MODEL 1
REMARK VINA RESULT:      -8.8      0.000      0.000
REMARK  Name = 
REMARK  4 active torsions:
REMARK  status: ('A' for Active; 'I' for Inactive)
REMARK    1  A    between atoms: C_2  and  C_20
REMARK    2  A    between atoms: N_3  and  C_4
REMARK    3  A    between atoms: C_7  and  C_8
REMARK    4  A    between atoms: N_23  and  C_24
REMARK                            x       y       z     vdW  Elec       q    Type
REMARK                         _______ _______ _______ _____ _____    ______ ____
ROOT
ATOM      1  C   UNL     1       0.483   9.676  19.938  0.00  0.00    +0.000 A 
ATOM      2  C   UNL     1       0.813   9.835  18.594  0.00  0.00    +0.000 A 
ATOM      3  C   UNL     1       1.695   8.950  17.973  0.00  0.00    +0.000 A 
ATOM      4  C   UNL     1       2.271   7.898  18.689  0.00  0.00    +0.000 A 
ATOM      5  C   UNL     1       1.990   7.791  20.059  0.00  0.00    +0.000 A 
ATOM      6  C   UNL     1       1.093   8.662  20.677  0.00  0.00    +0.000 A 
ENDROOT
BRANCH   4   7
ATOM      7  C   UNL     1       3.160   6.966  17.998  0.00  0.00    +0.000 A 
ATOM      8  N   UNL     1       4.210   7.312  17.277  0.00  0.00    +0.000 NA
ATOM      9  N   UNL     1       4.836   6.177  16.841  0.00  0.00    +0.000 NA
ATOM     10  C   UNL     1       4.152   5.139  17.273  0.00  0.00    +0.000 A 
ATOM     11  N   UNL     1       3.042   5.593  17.942  0.00  0.00    +0.000 N 
ATOM     12  C   UNL     1       1.941   4.801  18.451  0.00  0.00    +0.000 C 
ATOM     13  C   UNL     1       1.571   3.605  17.588  0.00  0.00    +0.000 C 
ATOM     14  C   UNL     1       2.483   2.401  17.803  0.00  0.00    +0.000 C 
ATOM     15  C   UNL     1       3.957   2.730  18.048  0.00  0.00    +0.000 C 
ATOM     16  C   UNL     1       4.531   3.716  17.037  0.00  0.00    +0.000 C 
ENDBRANCH   4   7
BRANCH   1  19
ATOM     17  O   UNL     1       0.967  12.164  21.422  0.00  0.00    +0.000 OA
ATOM     18  C   UNL     1      -0.138  11.640  21.324  0.00  0.00    +0.000 C 
ATOM     19  N   UNL     1      -0.436  10.500  20.607  0.00  0.00    +0.000 N 
ATOM     20  H   UNL     1      -1.410  10.278  20.471  0.00  0.00    +0.000 HD
BRANCH  18  21
ATOM     21  C   UNL     1      -1.284  12.247  21.970  0.00  0.00    +0.000 A 
ATOM     22  C   UNL     1      -1.277  13.067  23.113  0.00  0.00    +0.000 A 
ATOM     23  N   UNL     1      -2.495  13.465  23.474  0.00  0.00    +0.000 NA
ATOM     24  N   UNL     1      -3.326  12.850  22.594  0.00  0.00    +0.000 N 
ATOM     25  C   UNL     1      -2.621  12.140  21.649  0.00  0.00    +0.000 A 
BRANCH  24  26
ATOM     26  C   UNL     1      -4.737  12.949  22.712  0.00  0.00    +0.000 A 
ATOM     27  C   UNL     1      -5.324  12.983  23.983  0.00  0.00    +0.000 A 
ATOM     28  C   UNL     1      -6.712  13.051  24.108  0.00  0.00    +0.000 A 
ATOM     29  C   UNL     1      -7.516  13.081  22.971  0.00  0.00    +0.000 A 
ATOM     30  C   UNL     1      -6.937  13.048  21.702  0.00  0.00    +0.000 A 
ATOM     31  C   UNL     1      -5.551  12.986  21.571  0.00  0.00    +0.000 A 
ENDBRANCH  24  26
ENDBRANCH  18  21
ENDBRANCH   1  19
TORSDOF 4
ENDMDL
MODEL 2
REMARK VINA RESULT:      -8.6      1.522      1.961
REMARK  Name = 
REMARK  4 active torsions:
REMARK  status: ('A' for Active; 'I' for Inactive)
REMARK    1  A    between atoms: C_2  and  C_20
REMARK    2  A    between atoms: N_3  and  C_4
REMARK    3  A    between atoms: C_7  and  C_8
REMARK    4  A    between atoms: N_23  and  C_24
REMARK                            x       y       z     vdW  Elec       q    Type
REMARK                         _______ _______ _______ _____ _____    ______ ____
ROOT
ATOM      1  C   UNL     1       0.494   9.594  20.342  0.00  0.00    +0.000 A 
ATOM      2  C   UNL     1       0.799   9.865  19.010  0.00  0.00    +0.000 A 
ATOM      3  C   UNL     1       1.644   9.021  18.291  0.00  0.00    +0.000 A 
ATOM      4  C   UNL     1       2.209   7.896  18.895  0.00  0.00    +0.000 A 
ATOM      5  C   UNL     1       1.957   7.671  20.256  0.00  0.00    +0.000 A 
ATOM      6  C   UNL     1       1.096   8.503  20.972  0.00  0.00    +0.000 A 
ENDROOT
BRANCH   4   7
ATOM      7  C   UNL     1       3.059   7.010  18.101  0.00  0.00    +0.000 A 
ATOM      8  N   UNL     1       4.048   7.405  17.322  0.00  0.00    +0.000 NA
ATOM      9  N   UNL     1       4.658   6.300  16.793  0.00  0.00    +0.000 NA
ATOM     10  C   UNL     1       4.022   5.233  17.227  0.00  0.00    +0.000 A 
ATOM     11  N   UNL     1       2.957   5.638  17.994  0.00  0.00    +0.000 N 
ATOM     12  C   UNL     1       1.908   4.806  18.546  0.00  0.00    +0.000 C 
ATOM     13  C   UNL     1       1.493   3.642  17.659  0.00  0.00    +0.000 C 
ATOM     14  C   UNL     1       2.436   2.446  17.754  0.00  0.00    +0.000 C 
ATOM     15  C   UNL     1       3.919   2.790  17.907  0.00  0.00    +0.000 C 
ATOM     16  C   UNL     1       4.403   3.829  16.902  0.00  0.00    +0.000 C 
ENDBRANCH   4   7
BRANCH   1  19
ATOM     17  O   UNL     1       0.919  12.250  21.521  0.00  0.00    +0.000 OA
ATOM     18  C   UNL     1      -0.113  11.603  21.667  0.00  0.00    +0.000 C 
ATOM     19  N   UNL     1      -0.388  10.374  21.106  0.00  0.00    +0.000 N 
ATOM     20  H   UNL     1      -1.336  10.036  21.169  0.00  0.00    +0.000 HD
BRANCH  18  21
ATOM     21  C   UNL     1      -1.195  12.142  22.466  0.00  0.00    +0.000 A 
ATOM     22  C   UNL     1      -2.173  11.414  23.168  0.00  0.00    +0.000 A 
ATOM     23  N   UNL     1      -3.045  12.195  23.803  0.00  0.00    +0.000 NA
ATOM     24  N   UNL     1      -2.675  13.458  23.467  0.00  0.00    +0.000 N 
ATOM     25  C   UNL     1      -1.537  13.459  22.693  0.00  0.00    +0.000 A 
BRANCH  24  26
ATOM     26  C   UNL     1      -3.433  14.586  23.876  0.00  0.00    +0.000 A 
ATOM     27  C   UNL     1      -4.708  14.796  23.336  0.00  0.00    +0.000 A 
ATOM     28  C   UNL     1      -5.447  15.918  23.712  0.00  0.00    +0.000 A 
ATOM     29  C   UNL     1      -4.917  16.833  24.618  0.00  0.00    +0.000 A 
ATOM     30  C   UNL     1      -3.647  16.630  25.159  0.00  0.00    +0.000 A 
ATOM     31  C   UNL     1      -2.907  15.507  24.793  0.00  0.00    +0.000 A 
ENDBRANCH  24  26
ENDBRANCH  18  21
ENDBRANCH   1  19
TORSDOF 4
ENDMDL
MODEL 3
REMARK VINA RESULT:      -8.5      7.385     10.756
REMARK  Name = 
REMARK  4 active torsions:
REMARK  status: ('A' for Active; 'I' for Inactive)
REMARK    1  A    between atoms: C_2  and  C_20
REMARK    2  A    between atoms: N_3  and  C_4
REMARK    3  A    between atoms: C_7  and  C_8
REMARK    4  A    between atoms: N_23  and  C_24
REMARK                            x       y       z     vdW  Elec       q    Type
REMARK                         _______ _______ _______ _____ _____    ______ ____
ROOT
ATOM      1  C   UNL     1       7.749   8.232  17.812  0.00  0.00    +0.000 A 
ATOM      2  C   UNL     1       8.099   7.075  18.505  0.00  0.00    +0.000 A 
ATOM      3  C   UNL     1       7.244   5.973  18.520  0.00  0.00    +0.000 A 
ATOM      4  C   UNL     1       6.018   6.013  17.851  0.00  0.00    +0.000 A 
ATOM      5  C   UNL     1       5.641   7.207  17.220  0.00  0.00    +0.000 A 
ATOM      6  C   UNL     1       6.503   8.303  17.186  0.00  0.00    +0.000 A 
ENDROOT
BRANCH   4   7
ATOM      7  C   UNL     1       5.164   4.827  17.854  0.00  0.00    +0.000 A 
ATOM      8  N   UNL     1       5.209   3.858  16.960  0.00  0.00    +0.000 NA
ATOM      9  N   UNL     1       4.314   2.887  17.320  0.00  0.00    +0.000 NA
ATOM     10  C   UNL     1       3.705   3.277  18.419  0.00  0.00    +0.000 A 
ATOM     11  N   UNL     1       4.155   4.532  18.748  0.00  0.00    +0.000 N 
ATOM     12  C   UNL     1       3.649   5.399  19.793  0.00  0.00    +0.000 C 
ATOM     13  C   UNL     1       2.146   5.316  20.009  0.00  0.00    +0.000 C 
ATOM     14  C   UNL     1       1.724   4.118  20.854  0.00  0.00    +0.000 C 
ATOM     15  C   UNL     1       2.527   2.836  20.623  0.00  0.00    +0.000 C 
ATOM     16  C   UNL     1       2.680   2.478  19.149  0.00  0.00    +0.000 C 
ENDBRANCH   4   7
BRANCH   1  19
ATOM     17  O   UNL     1       8.893   9.877  19.959  0.00  0.00    +0.000 OA
ATOM     18  C   UNL     1       9.059  10.112  18.766  0.00  0.00    +0.000 C 
ATOM     19  N   UNL     1       8.585   9.355  17.715  0.00  0.00    +0.000 N 
ATOM     20  H   UNL     1       8.938   9.566  16.795  0.00  0.00    +0.000 HD
BRANCH  18  21
ATOM     21  C   UNL     1       9.845  11.259  18.359  0.00  0.00    +0.000 A 
ATOM     22  C   UNL     1      11.215  11.276  18.039  0.00  0.00    +0.000 A 
ATOM     23  N   UNL     1      11.656  12.489  17.710  0.00  0.00    +0.000 NA
ATOM     24  N   UNL     1      10.576  13.297  17.873  0.00  0.00    +0.000 N 
ATOM     25  C   UNL     1       9.458  12.576  18.225  0.00  0.00    +0.000 A 
BRANCH  24  26
ATOM     26  C   UNL     1      10.671  14.704  17.710  0.00  0.00    +0.000 A 
ATOM     27  C   UNL     1       9.530  15.498  17.873  0.00  0.00    +0.000 A 
ATOM     28  C   UNL     1       9.609  16.878  17.687  0.00  0.00    +0.000 A 
ATOM     29  C   UNL     1      10.820  17.468  17.332  0.00  0.00    +0.000 A 
ATOM     30  C   UNL     1      11.961  16.682  17.168  0.00  0.00    +0.000 A 
ATOM     31  C   UNL     1      11.889  15.303  17.360  0.00  0.00    +0.000 A 
ENDBRANCH  24  26
ENDBRANCH  18  21
ENDBRANCH   1  19
TORSDOF 4
ENDMDL
MODEL 4
REMARK VINA RESULT:      -8.4      0.925      1.352
REMARK  Name = 
REMARK  4 active torsions:
REMARK  status: ('A' for Active; 'I' for Inactive)
REMARK    1  A    between atoms: C_2  and  C_20
REMARK    2  A    between atoms: N_3  and  C_4
REMARK    3  A    between atoms: C_7  and  C_8
REMARK    4  A    between atoms: N_23  and  C_24
REMARK                            x       y       z     vdW  Elec       q    Type
REMARK                         _______ _______ _______ _____ _____    ______ ____
ROOT
ATOM      1  C   UNL     1       0.584   9.809  20.191  0.00  0.00    +0.000 A 
ATOM      2  C   UNL     1       1.071   8.676  20.839  0.00  0.00    +0.000 A 
ATOM      3  C   UNL     1       1.866   7.756  20.156  0.00  0.00    +0.000 A 
ATOM      4  C   UNL     1       2.178   7.946  18.808  0.00  0.00    +0.000 A 
ATOM      5  C   UNL     1       1.622   9.050  18.144  0.00  0.00    +0.000 A 
ATOM      6  C   UNL     1       0.844   9.982  18.830  0.00  0.00    +0.000 A 
ENDROOT
BRANCH   4   7
ATOM      7  C   UNL     1       3.046   6.983  18.133  0.00  0.00    +0.000 A 
ATOM      8  N   UNL     1       4.076   7.295  17.370  0.00  0.00    +0.000 NA
ATOM      9  N   UNL     1       4.688   6.140  16.967  0.00  0.00    +0.000 NA
ATOM     10  C   UNL     1       4.014   5.123  17.460  0.00  0.00    +0.000 A 
ATOM     11  N   UNL     1       2.923   5.609  18.138  0.00  0.00    +0.000 N 
ATOM     12  C   UNL     1       1.834   4.843  18.710  0.00  0.00    +0.000 C 
ATOM     13  C   UNL     1       1.438   3.613  17.908  0.00  0.00    +0.000 C 
ATOM     14  C   UNL     1       2.353   2.416  18.149  0.00  0.00    +0.000 C 
ATOM     15  C   UNL     1       3.834   2.750  18.340  0.00  0.00    +0.000 C 
ATOM     16  C   UNL     1       4.382   3.691  17.274  0.00  0.00    +0.000 C 
ENDBRANCH   4   7
BRANCH   1  19
ATOM     17  O   UNL     1       0.278  10.332  23.064  0.00  0.00    +0.000 OA
ATOM     18  C   UNL     1      -0.312  10.967  22.195  0.00  0.00    +0.000 C 
ATOM     19  N   UNL     1      -0.177  10.798  20.833  0.00  0.00    +0.000 N 
ATOM     20  H   UNL     1      -0.588  11.498  20.235  0.00  0.00    +0.000 HD
BRANCH  18  21
ATOM     21  C   UNL     1      -1.223  12.030  22.570  0.00  0.00    +0.000 A 
ATOM     22  C   UNL     1      -0.881  13.311  23.041  0.00  0.00    +0.000 A 
ATOM     23  N   UNL     1      -1.945  14.064  23.312  0.00  0.00    +0.000 NA
ATOM     24  N   UNL     1      -3.005  13.250  23.075  0.00  0.00    +0.000 N 
ATOM     25  C   UNL     1      -2.602  12.028  22.587  0.00  0.00    +0.000 A 
BRANCH  24  26
ATOM     26  C   UNL     1      -4.335  13.665  23.347  0.00  0.00    +0.000 A 
ATOM     27  C   UNL     1      -5.266  12.736  23.828  0.00  0.00    +0.000 A 
ATOM     28  C   UNL     1      -6.582  13.130  24.070  0.00  0.00    +0.000 A 
ATOM     29  C   UNL     1      -6.974  14.445  23.829  0.00  0.00    +0.000 A 
ATOM     30  C   UNL     1      -6.052  15.375  23.350  0.00  0.00    +0.000 A 
ATOM     31  C   UNL     1      -4.734  14.989  23.113  0.00  0.00    +0.000 A 
ENDBRANCH  24  26
ENDBRANCH  18  21
ENDBRANCH   1  19
TORSDOF 4
ENDMDL
MODEL 5
REMARK VINA RESULT:      -8.4      0.517      1.019
REMARK  Name = 
REMARK  4 active torsions:
REMARK  status: ('A' for Active; 'I' for Inactive)
REMARK    1  A    between atoms: C_2  and  C_20
REMARK    2  A    between atoms: N_3  and  C_4
REMARK    3  A    between atoms: C_7  and  C_8
REMARK    4  A    between atoms: N_23  and  C_24
REMARK                            x       y       z     vdW  Elec       q    Type
REMARK                         _______ _______ _______ _____ _____    ______ ____
ROOT
ATOM      1  C   UNL     1       0.446   9.705  20.056  0.00  0.00    +0.000 A 
ATOM      2  C   UNL     1       1.071   8.661  20.734  0.00  0.00    +0.000 A 
ATOM      3  C   UNL     1       1.936   7.797  20.063  0.00  0.00    +0.000 A 
ATOM      4  C   UNL     1       2.183   7.956  18.697  0.00  0.00    +0.000 A 
ATOM      5  C   UNL     1       1.493   8.963  18.007  0.00  0.00    +0.000 A 
ATOM      6  C   UNL     1       0.643   9.840  18.680  0.00  0.00    +0.000 A 
ENDROOT
BRANCH   4   7
ATOM      7  C   UNL     1       3.125   7.058  18.032  0.00  0.00    +0.000 A 
ATOM      8  N   UNL     1       4.194   7.442  17.359  0.00  0.00    +0.000 NA
ATOM      9  N   UNL     1       4.869   6.330  16.937  0.00  0.00    +0.000 NA
ATOM     10  C   UNL     1       4.198   5.268  17.328  0.00  0.00    +0.000 A 
ATOM     11  N   UNL     1       3.049   5.683  17.955  0.00  0.00    +0.000 N 
ATOM     12  C   UNL     1       1.950   4.854  18.409  0.00  0.00    +0.000 C 
ATOM     13  C   UNL     1       1.650   3.659  17.518  0.00  0.00    +0.000 C 
ATOM     14  C   UNL     1       2.586   2.479  17.756  0.00  0.00    +0.000 C 
ATOM     15  C   UNL     1       4.039   2.845  18.066  0.00  0.00    +0.000 C 
ATOM     16  C   UNL     1       4.626   3.860  17.091  0.00  0.00    +0.000 C 
ENDBRANCH   4   7
BRANCH   1  19
ATOM     17  O   UNL     1       1.154  12.197  21.438  0.00  0.00    +0.000 OA
ATOM     18  C   UNL     1       0.006  11.775  21.353  0.00  0.00    +0.000 C 
ATOM     19  N   UNL     1      -0.394  10.638  20.683  0.00  0.00    +0.000 N 
ATOM     20  H   UNL     1      -1.384  10.501  20.549  0.00  0.00    +0.000 HD
BRANCH  18  21
ATOM     21  C   UNL     1      -1.082  12.512  21.964  0.00  0.00    +0.000 A 
ATOM     22  C   UNL     1      -0.998  13.394  23.057  0.00  0.00    +0.000 A 
ATOM     23  N   UNL     1      -2.176  13.913  23.396  0.00  0.00    +0.000 NA
ATOM     24  N   UNL     1      -3.062  13.319  22.555  0.00  0.00    +0.000 N 
ATOM     25  C   UNL     1      -2.425  12.499  21.652  0.00  0.00    +0.000 A 
BRANCH  24  26
ATOM     26  C   UNL     1      -4.459  13.543  22.670  0.00  0.00    +0.000 A 
ATOM     27  C   UNL     1      -4.941  14.417  23.651  0.00  0.00    +0.000 A 
ATOM     28  C   UNL     1      -6.315  14.621  23.789  0.00  0.00    +0.000 A 
ATOM     29  C   UNL     1      -7.208  13.951  22.955  0.00  0.00    +0.000 A 
ATOM     30  C   UNL     1      -6.733  13.079  21.976  0.00  0.00    +0.000 A 
ATOM     31  C   UNL     1      -5.363  12.877  21.829  0.00  0.00    +0.000 A 
ENDBRANCH  24  26
ENDBRANCH  18  21
ENDBRANCH   1  19
TORSDOF 4
ENDMDL
MODEL 6
REMARK VINA RESULT:      -8.4      1.703      2.319
REMARK  Name = 
REMARK  4 active torsions:
REMARK  status: ('A' for Active; 'I' for Inactive)
REMARK    1  A    between atoms: C_2  and  C_20
REMARK    2  A    between atoms: N_3  and  C_4
REMARK    3  A    between atoms: C_7  and  C_8
REMARK    4  A    between atoms: N_23  and  C_24
REMARK                            x       y       z     vdW  Elec       q    Type
REMARK                         _______ _______ _______ _____ _____    ______ ____
ROOT
ATOM      1  C   UNL     1       0.405   9.540  20.521  0.00  0.00    +0.000 A 
ATOM      2  C   UNL     1       1.046   8.429  21.065  0.00  0.00    +0.000 A 
ATOM      3  C   UNL     1       1.888   7.642  20.279  0.00  0.00    +0.000 A 
ATOM      4  C   UNL     1       2.094   7.946  18.932  0.00  0.00    +0.000 A 
ATOM      5  C   UNL     1       1.388   9.021  18.374  0.00  0.00    +0.000 A 
ATOM      6  C   UNL     1       0.562   9.822  19.162  0.00  0.00    +0.000 A 
ENDROOT
BRANCH   4   7
ATOM      7  C   UNL     1       3.014   7.123  18.148  0.00  0.00    +0.000 A 
ATOM      8  N   UNL     1       4.019   7.585  17.428  0.00  0.00    +0.000 NA
ATOM      9  N   UNL     1       4.696   6.525  16.889  0.00  0.00    +0.000 NA
ATOM     10  C   UNL     1       4.087   5.418  17.258  0.00  0.00    +0.000 A 
ATOM     11  N   UNL     1       2.973   5.753  17.989  0.00  0.00    +0.000 N 
ATOM     12  C   UNL     1       1.936   4.861  18.465  0.00  0.00    +0.000 C 
ATOM     13  C   UNL     1       1.609   3.714  17.522  0.00  0.00    +0.000 C 
ATOM     14  C   UNL     1       2.595   2.554  17.619  0.00  0.00    +0.000 C 
ATOM     15  C   UNL     1       4.055   2.951  17.850  0.00  0.00    +0.000 C 
ATOM     16  C   UNL     1       4.539   4.043  16.903  0.00  0.00    +0.000 C 
ENDBRANCH   4   7
BRANCH   1  19
ATOM     17  O   UNL     1       1.001  12.222  21.558  0.00  0.00    +0.000 OA
ATOM     18  C   UNL     1      -0.058  11.639  21.762  0.00  0.00    +0.000 C 
ATOM     19  N   UNL     1      -0.413  10.401  21.269  0.00  0.00    +0.000 N 
ATOM     20  H   UNL     1      -1.375  10.118  21.373  0.00  0.00    +0.000 HD
BRANCH  18  21
ATOM     21  C   UNL     1      -1.088  12.271  22.563  0.00  0.00    +0.000 A 
ATOM     22  C   UNL     1      -2.184  11.644  23.182  0.00  0.00    +0.000 A 
ATOM     23  N   UNL     1      -2.965  12.496  23.842  0.00  0.00    +0.000 NA
ATOM     24  N   UNL     1      -2.411  13.714  23.606  0.00  0.00    +0.000 N 
ATOM     25  C   UNL     1      -1.254  13.606  22.870  0.00  0.00    +0.000 A 
BRANCH  24  26
ATOM     26  C   UNL     1      -3.022  14.908  24.069  0.00  0.00    +0.000 A 
ATOM     27  C   UNL     1      -2.285  15.803  24.854  0.00  0.00    +0.000 A 
ATOM     28  C   UNL     1      -2.887  16.966  25.337  0.00  0.00    +0.000 A 
ATOM     29  C   UNL     1      -4.222  17.236  25.044  0.00  0.00    +0.000 A 
ATOM     30  C   UNL     1      -4.962  16.348  24.262  0.00  0.00    +0.000 A 
ATOM     31  C   UNL     1      -4.364  15.189  23.772  0.00  0.00    +0.000 A 
ENDBRANCH  24  26
ENDBRANCH  18  21
ENDBRANCH   1  19
TORSDOF 4
ENDMDL
MODEL 7
REMARK VINA RESULT:      -8.4      1.657      2.288
REMARK  Name = 
REMARK  4 active torsions:
REMARK  status: ('A' for Active; 'I' for Inactive)
REMARK    1  A    between atoms: C_2  and  C_20
REMARK    2  A    between atoms: N_3  and  C_4
REMARK    3  A    between atoms: C_7  and  C_8
REMARK    4  A    between atoms: N_23  and  C_24
REMARK                            x       y       z     vdW  Elec       q    Type
REMARK                         _______ _______ _______ _____ _____    ______ ____
ROOT
ATOM      1  C   UNL     1       0.642   9.682  20.138  0.00  0.00    +0.000 A 
ATOM      2  C   UNL     1       0.966   9.862  18.795  0.00  0.00    +0.000 A 
ATOM      3  C   UNL     1       1.773   8.937  18.132  0.00  0.00    +0.000 A 
ATOM      4  C   UNL     1       2.279   7.823  18.805  0.00  0.00    +0.000 A 
ATOM      5  C   UNL     1       2.009   7.690  20.174  0.00  0.00    +0.000 A 
ATOM      6  C   UNL     1       1.186   8.602  20.834  0.00  0.00    +0.000 A 
ENDROOT
BRANCH   4   7
ATOM      7  C   UNL     1       3.089   6.853  18.070  0.00  0.00    +0.000 A 
ATOM      8  N   UNL     1       4.095   7.154  17.270  0.00  0.00    +0.000 NA
ATOM      9  N   UNL     1       4.655   5.993  16.812  0.00  0.00    +0.000 NA
ATOM     10  C   UNL     1       3.973   4.984  17.311  0.00  0.00    +0.000 A 
ATOM     11  N   UNL     1       2.927   5.483  18.048  0.00  0.00    +0.000 N 
ATOM     12  C   UNL     1       1.841   4.733  18.648  0.00  0.00    +0.000 C 
ATOM     13  C   UNL     1       1.376   3.535  17.835  0.00  0.00    +0.000 C 
ATOM     14  C   UNL     1       2.265   2.308  18.007  0.00  0.00    +0.000 C 
ATOM     15  C   UNL     1       3.762   2.595  18.141  0.00  0.00    +0.000 C 
ATOM     16  C   UNL     1       4.291   3.547  17.074  0.00  0.00    +0.000 C 
ENDBRANCH   4   7
BRANCH   1  19
ATOM     17  O   UNL     1       1.234  12.317  21.293  0.00  0.00    +0.000 OA
ATOM     18  C   UNL     1       0.146  11.761  21.402  0.00  0.00    +0.000 C 
ATOM     19  N   UNL     1      -0.205  10.547  20.849  0.00  0.00    +0.000 N 
ATOM     20  H   UNL     1      -1.180  10.290  20.874  0.00  0.00    +0.000 HD
BRANCH  18  21
ATOM     21  C   UNL     1      -0.922  12.402  22.143  0.00  0.00    +0.000 A 
ATOM     22  C   UNL     1      -2.219  11.903  22.361  0.00  0.00    +0.000 A 
ATOM     23  N   UNL     1      -2.981  12.731  23.073  0.00  0.00    +0.000 NA
ATOM     24  N   UNL     1      -2.196  13.820  23.278  0.00  0.00    +0.000 N 
ATOM     25  C   UNL     1      -0.933  13.634  22.762  0.00  0.00    +0.000 A 
BRANCH  24  26
ATOM     26  C   UNL     1      -2.692  14.981  23.926  0.00  0.00    +0.000 A 
ATOM     27  C   UNL     1      -1.800  15.853  24.563  0.00  0.00    +0.000 A 
ATOM     28  C   UNL     1      -2.283  16.981  25.227  0.00  0.00    +0.000 A 
ATOM     29  C   UNL     1      -3.651  17.239  25.263  0.00  0.00    +0.000 A 
ATOM     30  C   UNL     1      -4.545  16.374  24.631  0.00  0.00    +0.000 A 
ATOM     31  C   UNL     1      -4.068  15.250  23.960  0.00  0.00    +0.000 A 
ENDBRANCH  24  26
ENDBRANCH  18  21
ENDBRANCH   1  19
TORSDOF 4
ENDMDL
MODEL 8
REMARK VINA RESULT:      -8.3      1.391      1.546
REMARK  Name = 
REMARK  4 active torsions:
REMARK  status: ('A' for Active; 'I' for Inactive)
REMARK    1  A    between atoms: C_2  and  C_20
REMARK    2  A    between atoms: N_3  and  C_4
REMARK    3  A    between atoms: C_7  and  C_8
REMARK    4  A    between atoms: N_23  and  C_24
REMARK                            x       y       z     vdW  Elec       q    Type
REMARK                         _______ _______ _______ _____ _____    ______ ____
ROOT
ATOM      1  C   UNL     1       0.300  10.066  20.668  0.00  0.00    +0.000 A 
ATOM      2  C   UNL     1       0.692  10.126  19.333  0.00  0.00    +0.000 A 
ATOM      3  C   UNL     1       1.451   9.100  18.771  0.00  0.00    +0.000 A 
ATOM      4  C   UNL     1       1.842   8.000  19.540  0.00  0.00    +0.000 A 
ATOM      5  C   UNL     1       1.506   7.984  20.901  0.00  0.00    +0.000 A 
ATOM      6  C   UNL     1       0.730   8.999  21.460  0.00  0.00    +0.000 A 
ENDROOT
BRANCH   4   7
ATOM      7  C   UNL     1       2.604   6.924  18.910  0.00  0.00    +0.000 A 
ATOM      8  N   UNL     1       3.449   7.078  17.907  0.00  0.00    +0.000 NA
ATOM      9  N   UNL     1       4.022   5.868  17.627  0.00  0.00    +0.000 NA
ATOM     10  C   UNL     1       3.507   4.970  18.440  0.00  0.00    +0.000 A 
ATOM     11  N   UNL     1       2.550   5.579  19.214  0.00  0.00    +0.000 N 
ATOM     12  C   UNL     1       1.631   4.941  20.136  0.00  0.00    +0.000 C 
ATOM     13  C   UNL     1       1.144   3.571  19.693  0.00  0.00    +0.000 C 
ATOM     14  C   UNL     1       2.143   2.454  19.978  0.00  0.00    +0.000 C 
ATOM     15  C   UNL     1       3.615   2.828  19.795  0.00  0.00    +0.000 C 
ATOM     16  C   UNL     1       3.898   3.533  18.473  0.00  0.00    +0.000 C 
ENDBRANCH   4   7
BRANCH   1  19
ATOM     17  O   UNL     1      -0.198  10.529  23.525  0.00  0.00    +0.000 OA
ATOM     18  C   UNL     1      -0.732  11.180  22.633  0.00  0.00    +0.000 C 
ATOM     19  N   UNL     1      -0.507  11.039  21.279  0.00  0.00    +0.000 N 
ATOM     20  H   UNL     1      -0.880  11.750  20.669  0.00  0.00    +0.000 HD
BRANCH  18  21
ATOM     21  C   UNL     1      -1.670  12.232  22.968  0.00  0.00    +0.000 A 
ATOM     22  C   UNL     1      -1.363  13.524  23.431  0.00  0.00    +0.000 A 
ATOM     23  N   UNL     1      -2.446  14.263  23.663  0.00  0.00    +0.000 NA
ATOM     24  N   UNL     1      -3.486  13.428  23.407  0.00  0.00    +0.000 N 
ATOM     25  C   UNL     1      -3.049  12.207  22.946  0.00  0.00    +0.000 A 
BRANCH  24  26
ATOM     26  C   UNL     1      -4.830  13.825  23.636  0.00  0.00    +0.000 A 
ATOM     27  C   UNL     1      -5.802  12.853  23.901  0.00  0.00    +0.000 A 
ATOM     28  C   UNL     1      -7.130  13.233  24.099  0.00  0.00    +0.000 A 
ATOM     29  C   UNL     1      -7.492  14.576  24.028  0.00  0.00    +0.000 A 
ATOM     30  C   UNL     1      -6.527  15.549  23.763  0.00  0.00    +0.000 A 
ATOM     31  C   UNL     1      -5.198  15.176  23.572  0.00  0.00    +0.000 A 
ENDBRANCH  24  26
ENDBRANCH  18  21
ENDBRANCH   1  19
TORSDOF 4
ENDMDL
MODEL 9
REMARK VINA RESULT:      -8.3      7.392     10.462
REMARK  Name = 
REMARK  4 active torsions:
REMARK  status: ('A' for Active; 'I' for Inactive)
REMARK    1  A    between atoms: C_2  and  C_20
REMARK    2  A    between atoms: N_3  and  C_4
REMARK    3  A    between atoms: C_7  and  C_8
REMARK    4  A    between atoms: N_23  and  C_24
REMARK                            x       y       z     vdW  Elec       q    Type
REMARK                         _______ _______ _______ _____ _____    ______ ____
ROOT
ATOM      1  C   UNL     1       7.396   8.071  17.556  0.00  0.00    +0.000 A 
ATOM      2  C   UNL     1       6.144   8.001  16.950  0.00  0.00    +0.000 A 
ATOM      3  C   UNL     1       5.364   6.850  17.068  0.00  0.00    +0.000 A 
ATOM      4  C   UNL     1       5.829   5.745  17.785  0.00  0.00    +0.000 A 
ATOM      5  C   UNL     1       7.120   5.797  18.328  0.00  0.00    +0.000 A 
ATOM      6  C   UNL     1       7.894   6.953  18.229  0.00  0.00    +0.000 A 
ENDROOT
BRANCH   4   7
ATOM      7  C   UNL     1       4.969   4.571  17.922  0.00  0.00    +0.000 A 
ATOM      8  N   UNL     1       4.962   3.536  17.102  0.00  0.00    +0.000 NA
ATOM      9  N   UNL     1       4.082   2.604  17.581  0.00  0.00    +0.000 NA
ATOM     10  C   UNL     1       3.532   3.082  18.677  0.00  0.00    +0.000 A 
ATOM     11  N   UNL     1       4.006   4.354  18.885  0.00  0.00    +0.000 N 
ATOM     12  C   UNL     1       3.559   5.303  19.886  0.00  0.00    +0.000 C 
ATOM     13  C   UNL     1       2.069   5.250  20.184  0.00  0.00    +0.000 C 
ATOM     14  C   UNL     1       1.684   4.124  21.138  0.00  0.00    +0.000 C 
ATOM     15  C   UNL     1       2.467   2.821  20.965  0.00  0.00    +0.000 C 
ATOM     16  C   UNL     1       2.542   2.351  19.517  0.00  0.00    +0.000 C 
ENDBRANCH   4   7
BRANCH   1  19
ATOM     17  O   UNL     1       8.900   9.346  19.733  0.00  0.00    +0.000 OA
ATOM     18  C   UNL     1       8.858   9.790  18.590  0.00  0.00    +0.000 C 
ATOM     19  N   UNL     1       8.207   9.216  17.518  0.00  0.00    +0.000 N 
ATOM     20  H   UNL     1       8.397   9.594  16.603  0.00  0.00    +0.000 HD
BRANCH  18  21
ATOM     21  C   UNL     1       9.567  11.011  18.264  0.00  0.00    +0.000 A 
ATOM     22  C   UNL     1      10.954  11.164  18.084  0.00  0.00    +0.000 A 
ATOM     23  N   UNL     1      11.306  12.416  17.801  0.00  0.00    +0.000 NA
ATOM     24  N   UNL     1      10.142  13.114  17.853  0.00  0.00    +0.000 N 
ATOM     25  C   UNL     1       9.069  12.286  18.091  0.00  0.00    +0.000 A 
BRANCH  24  26
ATOM     26  C   UNL     1      10.116  14.525  17.701  0.00  0.00    +0.000 A 
ATOM     27  C   UNL     1      11.172  15.169  17.044  0.00  0.00    +0.000 A 
ATOM     28  C   UNL     1      11.168  16.559  16.915  0.00  0.00    +0.000 A 
ATOM     29  C   UNL     1      10.118  17.307  17.443  0.00  0.00    +0.000 A 
ATOM     30  C   UNL     1       9.063  16.671  18.098  0.00  0.00    +0.000 A 
ATOM     31  C   UNL     1       9.059  15.283  18.224  0.00  0.00    +0.000 A 
ENDBRANCH  24  26
ENDBRANCH  18  21
ENDBRANCH   1  19
TORSDOF 4
ENDMDL
