MODEL 1
REMARK VINA RESULT:      -6.7      0.000      0.000
REMARK  Name = 
REMARK  7 active torsions:
REMARK  status: ('A' for Active; 'I' for Inactive)
REMARK    1  A    between atoms: C_1  and  C_2
REMARK    2  A    between atoms: C_4  and  C_5
REMARK    3  A    between atoms: N_7  and  C_8
REMARK    4  A    between atoms: N_7  and  C_15
REMARK    5  A    between atoms: C_8  and  C_9
REMARK    6  A    between atoms: C_24  and  C_25
REMARK    7  A    between atoms: N_27  and  C_28
REMARK                            x       y       z     vdW  Elec       q    Type
REMARK                         _______ _______ _______ _____ _____    ______ ____
ROOT
ATOM      1  C   UNL     1      -2.000  13.835  21.350  0.00  0.00    +0.000 C 
ATOM      2  O   UNL     1      -2.156  15.011  21.694  0.00  0.00    +0.000 OA
ATOM      3  N   UNL     1      -0.737  13.210  21.444  0.00  0.00    +0.000 N 
ENDROOT
BRANCH   1   7
ATOM      4  C   UNL     1      -4.132  11.372  17.544  0.00  0.00    +0.000 C 
ATOM      5  C   UNL     1      -4.246  11.997  18.908  0.00  0.00    +0.000 A 
ATOM      6  C   UNL     1      -3.184  12.714  19.467  0.00  0.00    +0.000 A 
ATOM      7  C   UNL     1      -3.232  13.151  20.826  0.00  0.00    +0.000 A 
ATOM      8  C   UNL     1      -4.397  12.838  21.549  0.00  0.00    +0.000 A 
ATOM      9  C   UNL     1      -4.946  12.908  22.870  0.00  0.00    +0.000 A 
ATOM     10  C   UNL     1      -4.354  13.331  24.158  0.00  0.00    +0.000 C 
ATOM     11  N   UNL     1      -6.230  12.524  22.918  0.00  0.00    +0.000 NA
ATOM     12  N   UNL     1      -6.513  12.160  21.654  0.00  0.00    +0.000 N 
ATOM     13  C   UNL     1      -7.854  11.808  21.297  0.00  0.00    +0.000 C 
ATOM     14  C   UNL     1      -5.437  12.235  20.823  0.00  0.00    +0.000 A 
ATOM     15  N   UNL     1      -5.412  11.811  19.556  0.00  0.00    +0.000 NA
ENDBRANCH   1   7
BRANCH   3  16
ATOM     16  C   UNL     1      -0.532  11.789  21.539  0.00  0.00    +0.000 A 
ATOM     17  C   UNL     1      -0.697  11.112  22.747  0.00  0.00    +0.000 A 
ATOM     18  C   UNL     1      -0.661   9.717  22.794  0.00  0.00    +0.000 A 
ATOM     19  C   UNL     1      -0.393   8.996  21.636  0.00  0.00    +0.000 A 
ATOM     20  F   UNL     1      -0.428   7.657  21.673  0.00  0.00    +0.000 F 
ATOM     21  C   UNL     1      -0.111   9.641  20.443  0.00  0.00    +0.000 A 
ATOM     22  C   UNL     1      -0.169  11.030  20.400  0.00  0.00    +0.000 A 
ATOM     23  F   UNL     1      -0.037  11.604  19.193  0.00  0.00    +0.000 F 
ENDBRANCH   3  16
BRANCH   3  24
ATOM     24  C   UNL     1       0.399  14.050  21.959  0.00  0.00    +0.000 C 
BRANCH  24  25
ATOM     25  C   UNL     1       1.524  14.040  20.929  0.00  0.00    +0.000 A 
ATOM     26  C   UNL     1       1.277  14.640  19.699  0.00  0.00    +0.000 A 
ATOM     27  C   UNL     1       2.335  15.264  19.051  0.00  0.00    +0.000 A 
ATOM     28  C   UNL     1       3.608  15.202  19.607  0.00  0.00    +0.000 A 
ATOM     29  C   UNL     1       3.795  14.433  20.738  0.00  0.00    +0.000 A 
ATOM     30  N   UNL     1       2.783  13.841  21.409  0.00  0.00    +0.000 NA
ENDBRANCH  24  25
ENDBRANCH   3  24
TORSDOF 4
ENDMDL
MODEL 2
REMARK VINA RESULT:      -6.7      7.716     11.153
REMARK  Name = 
REMARK  7 active torsions:
REMARK  status: ('A' for Active; 'I' for Inactive)
REMARK    1  A    between atoms: C_1  and  C_2
REMARK    2  A    between atoms: C_4  and  C_5
REMARK    3  A    between atoms: N_7  and  C_8
REMARK    4  A    between atoms: N_7  and  C_15
REMARK    5  A    between atoms: C_8  and  C_9
REMARK    6  A    between atoms: C_24  and  C_25
REMARK    7  A    between atoms: N_27  and  C_28
REMARK                            x       y       z     vdW  Elec       q    Type
REMARK                         _______ _______ _______ _____ _____    ______ ____
ROOT
ATOM      1  C   UNL     1       9.930  14.521  21.479  0.00  0.00    +0.000 C 
ATOM      2  O   UNL     1      10.568  15.249  22.246  0.00  0.00    +0.000 OA
ATOM      3  N   UNL     1      10.481  14.096  20.250  0.00  0.00    +0.000 N 
ENDROOT
BRANCH   1   7
ATOM      4  C   UNL     1       7.179  11.883  24.730  0.00  0.00    +0.000 C 
ATOM      5  C   UNL     1       7.251  12.789  23.532  0.00  0.00    +0.000 A 
ATOM      6  C   UNL     1       8.479  13.151  22.969  0.00  0.00    +0.000 A 
ATOM      7  C   UNL     1       8.551  14.147  21.949  0.00  0.00    +0.000 A 
ATOM      8  C   UNL     1       7.334  14.719  21.539  0.00  0.00    +0.000 A 
ATOM      9  C   UNL     1       6.813  15.757  20.701  0.00  0.00    +0.000 A 
ATOM     10  C   UNL     1       7.485  16.809  19.906  0.00  0.00    +0.000 C 
ATOM     11  N   UNL     1       5.473  15.746  20.635  0.00  0.00    +0.000 NA
ATOM     12  N   UNL     1       5.111  14.744  21.457  0.00  0.00    +0.000 N 
ATOM     13  C   UNL     1       3.737  14.351  21.540  0.00  0.00    +0.000 C 
ATOM     14  C   UNL     1       6.168  14.165  22.092  0.00  0.00    +0.000 A 
ATOM     15  N   UNL     1       6.077  13.240  23.051  0.00  0.00    +0.000 NA
ENDBRANCH   1   7
BRANCH   3  16
ATOM     16  C   UNL     1      10.070  12.920  19.531  0.00  0.00    +0.000 A 
ATOM     17  C   UNL     1      10.529  11.653  19.892  0.00  0.00    +0.000 A 
ATOM     18  C   UNL     1       9.997  10.506  19.300  0.00  0.00    +0.000 A 
ATOM     19  C   UNL     1       9.046  10.629  18.294  0.00  0.00    +0.000 A 
ATOM     20  F   UNL     1       8.489   9.525  17.777  0.00  0.00    +0.000 F 
ATOM     21  C   UNL     1       8.653  11.874  17.831  0.00  0.00    +0.000 A 
ATOM     22  C   UNL     1       9.172  13.012  18.440  0.00  0.00    +0.000 A 
ATOM     23  F   UNL     1       8.652  14.191  18.063  0.00  0.00    +0.000 F 
ENDBRANCH   3  16
BRANCH   3  24
ATOM     24  C   UNL     1      11.862  14.592  19.918  0.00  0.00    +0.000 C 
BRANCH  24  25
ATOM     25  C   UNL     1      11.746  15.739  18.919  0.00  0.00    +0.000 A 
ATOM     26  C   UNL     1      11.686  15.412  17.569  0.00  0.00    +0.000 A 
ATOM     27  C   UNL     1      10.928  16.222  16.733  0.00  0.00    +0.000 A 
ATOM     28  C   UNL     1      10.327  17.364  17.251  0.00  0.00    +0.000 A 
ATOM     29  C   UNL     1      10.589  17.708  18.562  0.00  0.00    +0.000 A 
ATOM     30  N   UNL     1      11.293  16.925  19.408  0.00  0.00    +0.000 NA
ENDBRANCH  24  25
ENDBRANCH   3  24
TORSDOF 4
ENDMDL
MODEL 3
REMARK VINA RESULT:      -6.7      2.358      3.293
REMARK  Name = 
REMARK  7 active torsions:
REMARK  status: ('A' for Active; 'I' for Inactive)
REMARK    1  A    between atoms: C_1  and  C_2
REMARK    2  A    between atoms: C_4  and  C_5
REMARK    3  A    between atoms: N_7  and  C_8
REMARK    4  A    between atoms: N_7  and  C_15
REMARK    5  A    between atoms: C_8  and  C_9
REMARK    6  A    between atoms: C_24  and  C_25
REMARK    7  A    between atoms: N_27  and  C_28
REMARK                            x       y       z     vdW  Elec       q    Type
REMARK                         _______ _______ _______ _____ _____    ______ ____
ROOT
ATOM      1  C   UNL     1       0.243  13.983  21.475  0.00  0.00    +0.000 C 
ATOM      2  O   UNL     1       1.001  14.440  22.337  0.00  0.00    +0.000 OA
ATOM      3  N   UNL     1       0.751  13.338  20.326  0.00  0.00    +0.000 N 
ENDROOT
BRANCH   1   7
ATOM      4  C   UNL     1      -3.860  16.713  20.574  0.00  0.00    +0.000 C 
ATOM      5  C   UNL     1      -3.192  15.583  21.310  0.00  0.00    +0.000 A 
ATOM      6  C   UNL     1      -1.819  15.350  21.187  0.00  0.00    +0.000 A 
ATOM      7  C   UNL     1      -1.224  14.177  21.743  0.00  0.00    +0.000 A 
ATOM      8  C   UNL     1      -2.082  13.295  22.423  0.00  0.00    +0.000 A 
ATOM      9  C   UNL     1      -2.095  12.008  23.051  0.00  0.00    +0.000 A 
ATOM     10  C   UNL     1      -1.061  10.954  23.151  0.00  0.00    +0.000 C 
ATOM     11  N   UNL     1      -3.260  11.739  23.657  0.00  0.00    +0.000 NA
ATOM     12  N   UNL     1      -4.025  12.814  23.394  0.00  0.00    +0.000 N 
ATOM     13  C   UNL     1      -5.317  12.936  23.999  0.00  0.00    +0.000 C 
ATOM     14  C   UNL     1      -3.410  13.722  22.586  0.00  0.00    +0.000 A 
ATOM     15  N   UNL     1      -3.990  14.809  22.070  0.00  0.00    +0.000 NA
ENDBRANCH   1   7
BRANCH   3  16
ATOM     16  C   UNL     1       0.023  12.382  19.534  0.00  0.00    +0.000 A 
ATOM     17  C   UNL     1       0.010  11.028  19.865  0.00  0.00    +0.000 A 
ATOM     18  C   UNL     1      -0.830  10.137  19.195  0.00  0.00    +0.000 A 
ATOM     19  C   UNL     1      -1.615  10.592  18.141  0.00  0.00    +0.000 A 
ATOM     20  F   UNL     1      -2.469   9.748  17.546  0.00  0.00    +0.000 F 
ATOM     21  C   UNL     1      -1.539  11.906  17.711  0.00  0.00    +0.000 A 
ATOM     22  C   UNL     1      -0.715  12.792  18.397  0.00  0.00    +0.000 A 
ATOM     23  F   UNL     1      -0.787  14.085  18.042  0.00  0.00    +0.000 F 
ENDBRANCH   3  16
BRANCH   3  24
ATOM     24  C   UNL     1       2.247  13.260  20.197  0.00  0.00    +0.000 C 
BRANCH  24  25
ATOM     25  C   UNL     1       2.693  14.176  19.062  0.00  0.00    +0.000 A 
ATOM     26  C   UNL     1       2.111  15.436  18.985  0.00  0.00    +0.000 A 
ATOM     27  C   UNL     1       2.882  16.486  18.505  0.00  0.00    +0.000 A 
ATOM     28  C   UNL     1       4.170  16.231  18.046  0.00  0.00    +0.000 A 
ATOM     29  C   UNL     1       4.602  14.922  17.991  0.00  0.00    +0.000 A 
ATOM     30  N   UNL     1       3.889  13.884  18.481  0.00  0.00    +0.000 NA
ENDBRANCH  24  25
ENDBRANCH   3  24
TORSDOF 4
ENDMDL
MODEL 4
REMARK VINA RESULT:      -6.7      1.348      1.813
REMARK  Name = 
REMARK  7 active torsions:
REMARK  status: ('A' for Active; 'I' for Inactive)
REMARK    1  A    between atoms: C_1  and  C_2
REMARK    2  A    between atoms: C_4  and  C_5
REMARK    3  A    between atoms: N_7  and  C_8
REMARK    4  A    between atoms: N_7  and  C_15
REMARK    5  A    between atoms: C_8  and  C_9
REMARK    6  A    between atoms: C_24  and  C_25
REMARK    7  A    between atoms: N_27  and  C_28
REMARK                            x       y       z     vdW  Elec       q    Type
REMARK                         _______ _______ _______ _____ _____    ______ ____
ROOT
ATOM      1  C   UNL     1      -1.291  13.341  20.282  0.00  0.00    +0.000 C 
ATOM      2  O   UNL     1      -1.493  14.525  20.570  0.00  0.00    +0.000 OA
ATOM      3  N   UNL     1      -0.060  12.717  20.584  0.00  0.00    +0.000 N 
ENDROOT
BRANCH   1   7
ATOM      4  C   UNL     1      -2.791  10.650  16.332  0.00  0.00    +0.000 C 
ATOM      5  C   UNL     1      -3.125  11.375  17.607  0.00  0.00    +0.000 A 
ATOM      6  C   UNL     1      -2.157  12.110  18.298  0.00  0.00    +0.000 A 
ATOM      7  C   UNL     1      -2.432  12.645  19.593  0.00  0.00    +0.000 A 
ATOM      8  C   UNL     1      -3.716  12.408  20.115  0.00  0.00    +0.000 A 
ATOM      9  C   UNL     1      -4.488  12.584  21.308  0.00  0.00    +0.000 A 
ATOM     10  C   UNL     1      -4.122  13.088  22.650  0.00  0.00    +0.000 C 
ATOM     11  N   UNL     1      -5.772  12.229  21.151  0.00  0.00    +0.000 NA
ATOM     12  N   UNL     1      -5.838  11.780  19.884  0.00  0.00    +0.000 N 
ATOM     13  C   UNL     1      -7.105  11.430  19.316  0.00  0.00    +0.000 C 
ATOM     14  C   UNL     1      -4.629  11.774  19.256  0.00  0.00    +0.000 A 
ATOM     15  N   UNL     1      -4.393  11.259  18.047  0.00  0.00    +0.000 NA
ENDBRANCH   1   7
BRANCH   3  16
ATOM     16  C   UNL     1       0.123  11.299  20.742  0.00  0.00    +0.000 A 
ATOM     17  C   UNL     1       0.733  10.532  19.751  0.00  0.00    +0.000 A 
ATOM     18  C   UNL     1       1.057   9.194  19.981  0.00  0.00    +0.000 A 
ATOM     19  C   UNL     1       0.710   8.601  21.190  0.00  0.00    +0.000 A 
ATOM     20  F   UNL     1       1.085   7.337  21.433  0.00  0.00    +0.000 F 
ATOM     21  C   UNL     1       0.001   9.301  22.151  0.00  0.00    +0.000 A 
ATOM     22  C   UNL     1      -0.300  10.640  21.922  0.00  0.00    +0.000 A 
ATOM     23  F   UNL     1      -0.853  11.319  22.940  0.00  0.00    +0.000 F 
ENDBRANCH   3  16
BRANCH   3  24
ATOM     24  C   UNL     1       0.988  13.569  21.245  0.00  0.00    +0.000 C 
BRANCH  24  25
ATOM     25  C   UNL     1       2.163  13.738  20.286  0.00  0.00    +0.000 A 
ATOM     26  C   UNL     1       1.873  14.027  18.958  0.00  0.00    +0.000 A 
ATOM     27  C   UNL     1       2.760  14.832  18.254  0.00  0.00    +0.000 A 
ATOM     28  C   UNL     1       3.935  15.251  18.869  0.00  0.00    +0.000 A 
ATOM     29  C   UNL     1       4.226  14.769  20.129  0.00  0.00    +0.000 A 
ATOM     30  N   UNL     1       3.371  14.013  20.850  0.00  0.00    +0.000 NA
ENDBRANCH  24  25
ENDBRANCH   3  24
TORSDOF 4
ENDMDL
MODEL 5
REMARK VINA RESULT:      -6.6      2.274      3.432
REMARK  Name = 
REMARK  7 active torsions:
REMARK  status: ('A' for Active; 'I' for Inactive)
REMARK    1  A    between atoms: C_1  and  C_2
REMARK    2  A    between atoms: C_4  and  C_5
REMARK    3  A    between atoms: N_7  and  C_8
REMARK    4  A    between atoms: N_7  and  C_15
REMARK    5  A    between atoms: C_8  and  C_9
REMARK    6  A    between atoms: C_24  and  C_25
REMARK    7  A    between atoms: N_27  and  C_28
REMARK                            x       y       z     vdW  Elec       q    Type
REMARK                         _______ _______ _______ _____ _____    ______ ____
ROOT
ATOM      1  C   UNL     1       0.288  13.855  21.360  0.00  0.00    +0.000 C 
ATOM      2  O   UNL     1       1.107  14.290  22.176  0.00  0.00    +0.000 OA
ATOM      3  N   UNL     1       0.710  13.217  20.173  0.00  0.00    +0.000 N 
ENDROOT
BRANCH   1   7
ATOM      4  C   UNL     1      -3.817  16.668  20.785  0.00  0.00    +0.000 C 
ATOM      5  C   UNL     1      -3.123  15.512  21.452  0.00  0.00    +0.000 A 
ATOM      6  C   UNL     1      -1.764  15.260  21.236  0.00  0.00    +0.000 A 
ATOM      7  C   UNL     1      -1.155  14.065  21.726  0.00  0.00    +0.000 A 
ATOM      8  C   UNL     1      -1.983  13.182  22.441  0.00  0.00    +0.000 A 
ATOM      9  C   UNL     1      -1.977  11.880  23.039  0.00  0.00    +0.000 A 
ATOM     10  C   UNL     1      -0.958  10.808  23.049  0.00  0.00    +0.000 C 
ATOM     11  N   UNL     1      -3.106  11.616  23.713  0.00  0.00    +0.000 NA
ATOM     12  N   UNL     1      -3.868  12.708  23.523  0.00  0.00    +0.000 N 
ATOM     13  C   UNL     1      -5.117  12.836  24.213  0.00  0.00    +0.000 C 
ATOM     14  C   UNL     1      -3.291  13.625  22.698  0.00  0.00    +0.000 A 
ATOM     15  N   UNL     1      -3.884  14.733  22.244  0.00  0.00    +0.000 NA
ENDBRANCH   1   7
BRANCH   3  16
ATOM     16  C   UNL     1      -0.081  12.281  19.420  0.00  0.00    +0.000 A 
ATOM     17  C   UNL     1      -1.018  12.714  18.483  0.00  0.00    +0.000 A 
ATOM     18  C   UNL     1      -1.658  11.804  17.640  0.00  0.00    +0.000 A 
ATOM     19  C   UNL     1      -1.407  10.444  17.778  0.00  0.00    +0.000 A 
ATOM     20  F   UNL     1      -1.970   9.581  16.922  0.00  0.00    +0.000 F 
ATOM     21  C   UNL     1      -0.569   9.971  18.774  0.00  0.00    +0.000 A 
ATOM     22  C   UNL     1       0.081  10.886  19.597  0.00  0.00    +0.000 A 
ATOM     23  F   UNL     1       0.996  10.392  20.447  0.00  0.00    +0.000 F 
ENDBRANCH   3  16
BRANCH   3  24
ATOM     24  C   UNL     1       2.194  13.121  19.946  0.00  0.00    +0.000 C 
BRANCH  24  25
ATOM     25  C   UNL     1       2.582  14.068  18.815  0.00  0.00    +0.000 A 
ATOM     26  C   UNL     1       1.806  15.208  18.637  0.00  0.00    +0.000 A 
ATOM     27  C   UNL     1       2.432  16.361  18.180  0.00  0.00    +0.000 A 
ATOM     28  C   UNL     1       3.781  16.318  17.845  0.00  0.00    +0.000 A 
ATOM     29  C   UNL     1       4.429  15.100  17.883  0.00  0.00    +0.000 A 
ATOM     30  N   UNL     1       3.858  13.970  18.353  0.00  0.00    +0.000 NA
ENDBRANCH  24  25
ENDBRANCH   3  24
TORSDOF 4
ENDMDL
MODEL 6
REMARK VINA RESULT:      -6.6      1.148      1.556
REMARK  Name = 
REMARK  7 active torsions:
REMARK  status: ('A' for Active; 'I' for Inactive)
REMARK    1  A    between atoms: C_1  and  C_2
REMARK    2  A    between atoms: C_4  and  C_5
REMARK    3  A    between atoms: N_7  and  C_8
REMARK    4  A    between atoms: N_7  and  C_15
REMARK    5  A    between atoms: C_8  and  C_9
REMARK    6  A    between atoms: C_24  and  C_25
REMARK    7  A    between atoms: N_27  and  C_28
REMARK                            x       y       z     vdW  Elec       q    Type
REMARK                         _______ _______ _______ _____ _____    ______ ____
ROOT
ATOM      1  C   UNL     1      -1.688  13.591  20.634  0.00  0.00    +0.000 C 
ATOM      2  O   UNL     1      -2.031  14.749  20.891  0.00  0.00    +0.000 OA
ATOM      3  N   UNL     1      -0.451  13.080  21.084  0.00  0.00    +0.000 N 
ENDROOT
BRANCH   1   7
ATOM      4  C   UNL     1      -2.413  10.685  16.618  0.00  0.00    +0.000 C 
ATOM      5  C   UNL     1      -2.978  11.424  17.800  0.00  0.00    +0.000 A 
ATOM      6  C   UNL     1      -2.171  12.244  18.596  0.00  0.00    +0.000 A 
ATOM      7  C   UNL     1      -2.668  12.799  19.813  0.00  0.00    +0.000 A 
ATOM      8  C   UNL     1      -3.998  12.493  20.150  0.00  0.00    +0.000 A 
ATOM      9  C   UNL     1      -4.949  12.653  21.209  0.00  0.00    +0.000 A 
ATOM     10  C   UNL     1      -4.818  13.222  22.569  0.00  0.00    +0.000 C 
ATOM     11  N   UNL     1      -6.171  12.209  20.880  0.00  0.00    +0.000 NA
ATOM     12  N   UNL     1      -6.019  11.717  19.637  0.00  0.00    +0.000 N 
ATOM     13  C   UNL     1      -7.163  11.265  18.904  0.00  0.00    +0.000 C 
ATOM     14  C   UNL     1      -4.732  11.772  19.194  0.00  0.00    +0.000 A 
ATOM     15  N   UNL     1      -4.288  11.237  18.054  0.00  0.00    +0.000 NA
ENDBRANCH   1   7
BRANCH   3  16
ATOM     16  C   UNL     1      -0.159  11.683  21.269  0.00  0.00    +0.000 A 
ATOM     17  C   UNL     1      -0.584  11.000  22.407  0.00  0.00    +0.000 A 
ATOM     18  C   UNL     1      -0.445   9.614  22.501  0.00  0.00    +0.000 A 
ATOM     19  C   UNL     1       0.182   8.915  21.476  0.00  0.00    +0.000 A 
ATOM     20  F   UNL     1       0.252   7.578  21.539  0.00  0.00    +0.000 F 
ATOM     21  C   UNL     1       0.719   9.577  20.385  0.00  0.00    +0.000 A 
ATOM     22  C   UNL     1       0.558  10.955  20.289  0.00  0.00    +0.000 A 
ATOM     23  F   UNL     1       0.959  11.534  19.145  0.00  0.00    +0.000 F 
ENDBRANCH   3  16
BRANCH   3  24
ATOM     24  C   UNL     1       0.427  14.020  21.865  0.00  0.00    +0.000 C 
BRANCH  24  25
ATOM     25  C   UNL     1       1.461  14.625  20.922  0.00  0.00    +0.000 A 
ATOM     26  C   UNL     1       2.627  13.902  20.694  0.00  0.00    +0.000 A 
ATOM     27  C   UNL     1       3.221  13.994  19.442  0.00  0.00    +0.000 A 
ATOM     28  C   UNL     1       2.683  14.859  18.494  0.00  0.00    +0.000 A 
ATOM     29  C   UNL     1       1.632  15.672  18.867  0.00  0.00    +0.000 A 
ATOM     30  N   UNL     1       1.013  15.582  20.064  0.00  0.00    +0.000 NA
ENDBRANCH  24  25
ENDBRANCH   3  24
TORSDOF 4
ENDMDL
MODEL 7
REMARK VINA RESULT:      -6.5      7.097     10.644
REMARK  Name = 
REMARK  7 active torsions:
REMARK  status: ('A' for Active; 'I' for Inactive)
REMARK    1  A    between atoms: C_1  and  C_2
REMARK    2  A    between atoms: C_4  and  C_5
REMARK    3  A    between atoms: N_7  and  C_8
REMARK    4  A    between atoms: N_7  and  C_15
REMARK    5  A    between atoms: C_8  and  C_9
REMARK    6  A    between atoms: C_24  and  C_25
REMARK    7  A    between atoms: N_27  and  C_28
REMARK                            x       y       z     vdW  Elec       q    Type
REMARK                         _______ _______ _______ _____ _____    ______ ____
ROOT
ATOM      1  C   UNL     1       8.962  15.240  21.895  0.00  0.00    +0.000 C 
ATOM      2  O   UNL     1       9.293  16.130  22.685  0.00  0.00    +0.000 OA
ATOM      3  N   UNL     1       9.830  14.823  20.862  0.00  0.00    +0.000 N 
ENDROOT
BRANCH   1   7
ATOM      4  C   UNL     1       6.016  12.416  24.801  0.00  0.00    +0.000 C 
ATOM      5  C   UNL     1       6.206  13.225  23.547  0.00  0.00    +0.000 A 
ATOM      6  C   UNL     1       7.454  13.754  23.207  0.00  0.00    +0.000 A 
ATOM      7  C   UNL     1       7.591  14.664  22.115  0.00  0.00    +0.000 A 
ATOM      8  C   UNL     1       6.418  14.978  21.405  0.00  0.00    +0.000 A 
ATOM      9  C   UNL     1       5.937  15.838  20.366  0.00  0.00    +0.000 A 
ATOM     10  C   UNL     1       6.593  16.927  19.609  0.00  0.00    +0.000 C 
ATOM     11  N   UNL     1       4.663  15.584  20.032  0.00  0.00    +0.000 NA
ATOM     12  N   UNL     1       4.292  14.601  20.872  0.00  0.00    +0.000 N 
ATOM     13  C   UNL     1       3.011  13.977  20.719  0.00  0.00    +0.000 C 
ATOM     14  C   UNL     1       5.261  14.270  21.770  0.00  0.00    +0.000 A 
ATOM     15  N   UNL     1       5.109  13.421  22.790  0.00  0.00    +0.000 NA
ENDBRANCH   1   7
BRANCH   3  16
ATOM     16  C   UNL     1       9.778  13.537  20.217  0.00  0.00    +0.000 A 
ATOM     17  C   UNL     1      10.364  12.413  20.796  0.00  0.00    +0.000 A 
ATOM     18  C   UNL     1      10.165  11.143  20.250  0.00  0.00    +0.000 A 
ATOM     19  C   UNL     1       9.428  11.006  19.080  0.00  0.00    +0.000 A 
ATOM     20  F   UNL     1       9.182   9.779  18.598  0.00  0.00    +0.000 F 
ATOM     21  C   UNL     1       8.930  12.114  18.416  0.00  0.00    +0.000 A 
ATOM     22  C   UNL     1       9.114  13.373  18.977  0.00  0.00    +0.000 A 
ATOM     23  F   UNL     1       8.487  14.400  18.381  0.00  0.00    +0.000 F 
ENDBRANCH   3  16
BRANCH   3  24
ATOM     24  C   UNL     1      11.154  15.529  20.762  0.00  0.00    +0.000 C 
BRANCH  24  25
ATOM     25  C   UNL     1      11.234  16.238  19.414  0.00  0.00    +0.000 A 
ATOM     26  C   UNL     1      12.011  15.651  18.422  0.00  0.00    +0.000 A 
ATOM     27  C   UNL     1      11.607  15.796  17.101  0.00  0.00    +0.000 A 
ATOM     28  C   UNL     1      10.496  16.581  16.810  0.00  0.00    +0.000 A 
ATOM     29  C   UNL     1       9.892  17.273  17.841  0.00  0.00    +0.000 A 
ATOM     30  N   UNL     1      10.240  17.127  19.137  0.00  0.00    +0.000 NA
ENDBRANCH  24  25
ENDBRANCH   3  24
TORSDOF 4
ENDMDL
MODEL 8
REMARK VINA RESULT:      -6.4      2.818      5.757
REMARK  Name = 
REMARK  7 active torsions:
REMARK  status: ('A' for Active; 'I' for Inactive)
REMARK    1  A    between atoms: C_1  and  C_2
REMARK    2  A    between atoms: C_4  and  C_5
REMARK    3  A    between atoms: N_7  and  C_8
REMARK    4  A    between atoms: N_7  and  C_15
REMARK    5  A    between atoms: C_8  and  C_9
REMARK    6  A    between atoms: C_24  and  C_25
REMARK    7  A    between atoms: N_27  and  C_28
REMARK                            x       y       z     vdW  Elec       q    Type
REMARK                         _______ _______ _______ _____ _____    ______ ____
ROOT
ATOM      1  C   UNL     1      -0.307  12.317  21.393  0.00  0.00    +0.000 C 
ATOM      2  O   UNL     1      -0.245  11.634  22.420  0.00  0.00    +0.000 OA
ATOM      3  N   UNL     1      -0.297  13.727  21.454  0.00  0.00    +0.000 N 
ENDROOT
BRANCH   1   7
ATOM      4  C   UNL     1       1.815   8.926  18.377  0.00  0.00    +0.000 C 
ATOM      5  C   UNL     1       0.710   9.911  18.642  0.00  0.00    +0.000 A 
ATOM      6  C   UNL     1       0.729  10.735  19.771  0.00  0.00    +0.000 A 
ATOM      7  C   UNL     1      -0.403  11.538  20.110  0.00  0.00    +0.000 A 
ATOM      8  C   UNL     1      -1.510  11.463  19.247  0.00  0.00    +0.000 A 
ATOM      9  C   UNL     1      -2.865  11.913  19.125  0.00  0.00    +0.000 A 
ATOM     10  C   UNL     1      -3.736  12.669  20.051  0.00  0.00    +0.000 C 
ATOM     11  N   UNL     1      -3.416  11.583  17.947  0.00  0.00    +0.000 NA
ATOM     12  N   UNL     1      -2.454  10.884  17.318  0.00  0.00    +0.000 N 
ATOM     13  C   UNL     1      -2.644  10.472  15.960  0.00  0.00    +0.000 C 
ATOM     14  C   UNL     1      -1.340  10.701  18.080  0.00  0.00    +0.000 A 
ATOM     15  N   UNL     1      -0.296   9.938  17.746  0.00  0.00    +0.000 NA
ENDBRANCH   1   7
BRANCH   3  16
ATOM     16  C   UNL     1       0.110  14.591  20.377  0.00  0.00    +0.000 A 
ATOM     17  C   UNL     1      -0.822  15.329  19.649  0.00  0.00    +0.000 A 
ATOM     18  C   UNL     1      -0.408  16.287  18.723  0.00  0.00    +0.000 A 
ATOM     19  C   UNL     1       0.948  16.464  18.476  0.00  0.00    +0.000 A 
ATOM     20  F   UNL     1       1.343  17.432  17.637  0.00  0.00    +0.000 F 
ATOM     21  C   UNL     1       1.896  15.668  19.097  0.00  0.00    +0.000 A 
ATOM     22  C   UNL     1       1.477  14.729  20.034  0.00  0.00    +0.000 A 
ATOM     23  F   UNL     1       2.436  14.087  20.719  0.00  0.00    +0.000 F 
ENDBRANCH   3  16
BRANCH   3  24
ATOM     24  C   UNL     1      -0.231  14.347  22.823  0.00  0.00    +0.000 C 
BRANCH  24  25
ATOM     25  C   UNL     1      -1.601  14.922  23.169  0.00  0.00    +0.000 A 
ATOM     26  C   UNL     1      -2.567  14.043  23.645  0.00  0.00    +0.000 A 
ATOM     27  C   UNL     1      -3.484  14.518  24.574  0.00  0.00    +0.000 A 
ATOM     28  C   UNL     1      -3.458  15.861  24.932  0.00  0.00    +0.000 A 
ATOM     29  C   UNL     1      -2.581  16.701  24.275  0.00  0.00    +0.000 A 
ATOM     30  N   UNL     1      -1.656  16.264  23.393  0.00  0.00    +0.000 NA
ENDBRANCH  24  25
ENDBRANCH   3  24
TORSDOF 4
ENDMDL
MODEL 9
REMARK VINA RESULT:      -6.4      7.126     10.684
REMARK  Name = 
REMARK  7 active torsions:
REMARK  status: ('A' for Active; 'I' for Inactive)
REMARK    1  A    between atoms: C_1  and  C_2
REMARK    2  A    between atoms: C_4  and  C_5
REMARK    3  A    between atoms: N_7  and  C_8
REMARK    4  A    between atoms: N_7  and  C_15
REMARK    5  A    between atoms: C_8  and  C_9
REMARK    6  A    between atoms: C_24  and  C_25
REMARK    7  A    between atoms: N_27  and  C_28
REMARK                            x       y       z     vdW  Elec       q    Type
REMARK                         _______ _______ _______ _____ _____    ______ ____
ROOT
ATOM      1  C   UNL     1       8.973  15.016  21.882  0.00  0.00    +0.000 C 
ATOM      2  O   UNL     1       9.459  15.775  22.726  0.00  0.00    +0.000 OA
ATOM      3  N   UNL     1       9.713  14.618  20.746  0.00  0.00    +0.000 N 
ENDROOT
BRANCH   1   7
ATOM      4  C   UNL     1       5.813  12.803  25.078  0.00  0.00    +0.000 C 
ATOM      5  C   UNL     1       6.067  13.431  23.735  0.00  0.00    +0.000 A 
ATOM      6  C   UNL     1       7.353  13.821  23.349  0.00  0.00    +0.000 A 
ATOM      7  C   UNL     1       7.561  14.574  22.154  0.00  0.00    +0.000 A 
ATOM      8  C   UNL     1       6.418  14.880  21.394  0.00  0.00    +0.000 A 
ATOM      9  C   UNL     1       6.006  15.635  20.249  0.00  0.00    +0.000 A 
ATOM     10  C   UNL     1       6.745  16.569  19.370  0.00  0.00    +0.000 C 
ATOM     11  N   UNL     1       4.718  15.434  19.932  0.00  0.00    +0.000 NA
ATOM     12  N   UNL     1       4.272  14.594  20.883  0.00  0.00    +0.000 N 
ATOM     13  C   UNL     1       2.950  14.052  20.793  0.00  0.00    +0.000 C 
ATOM     14  C   UNL     1       5.211  14.310  21.828  0.00  0.00    +0.000 A 
ATOM     15  N   UNL     1       4.991  13.610  22.945  0.00  0.00    +0.000 NA
ENDBRANCH   1   7
BRANCH   3  16
ATOM     16  C   UNL     1       9.466  13.422  19.985  0.00  0.00    +0.000 A 
ATOM     17  C   UNL     1       8.845  13.474  18.737  0.00  0.00    +0.000 A 
ATOM     18  C   UNL     1       8.762  12.335  17.934  0.00  0.00    +0.000 A 
ATOM     19  C   UNL     1       9.245  11.122  18.409  0.00  0.00    +0.000 A 
ATOM     20  F   UNL     1       9.226  10.047  17.608  0.00  0.00    +0.000 F 
ATOM     21  C   UNL     1       9.763  11.011  19.689  0.00  0.00    +0.000 A 
ATOM     22  C   UNL     1       9.862  12.154  20.475  0.00  0.00    +0.000 A 
ATOM     23  F   UNL     1      10.506  12.030  21.647  0.00  0.00    +0.000 F 
ENDBRANCH   3  16
BRANCH   3  24
ATOM     24  C   UNL     1      11.101  15.181  20.610  0.00  0.00    +0.000 C 
BRANCH  24  25
ATOM     25  C   UNL     1      11.196  15.942  19.292  0.00  0.00    +0.000 A 
ATOM     26  C   UNL     1      11.924  15.357  18.262  0.00  0.00    +0.000 A 
ATOM     27  C   UNL     1      11.507  15.580  16.956  0.00  0.00    +0.000 A 
ATOM     28  C   UNL     1      10.436  16.435  16.719  0.00  0.00    +0.000 A 
ATOM     29  C   UNL     1       9.887  17.114  17.789  0.00  0.00    +0.000 A 
ATOM     30  N   UNL     1      10.248  16.894  19.071  0.00  0.00    +0.000 NA
ENDBRANCH  24  25
ENDBRANCH   3  24
TORSDOF 4
ENDMDL
