MODEL 1
REMARK VINA RESULT:      -8.6      0.000      0.000
REMARK  Name = 
REMARK  4 active torsions:
REMARK  status: ('A' for Active; 'I' for Inactive)
REMARK    1  A    between atoms: C_2  and  C_12
REMARK    2  A    between atoms: N_3  and  C_4
REMARK    3  A    between atoms: N_14  and  C_15
REMARK    4  A    between atoms: C_22  and  C_23
REMARK                            x       y       z     vdW  Elec       q    Type
REMARK                         _______ _______ _______ _____ _____    ______ ____
ROOT
ATOM      1  C   UNL     1       2.279   7.201  19.403  0.00  0.00    +0.000 A 
ATOM      2  C   UNL     1       1.892   8.495  19.685  0.00  0.00    +0.000 A 
ATOM      3  N   UNL     1       1.069   8.458  20.779  0.00  0.00    +0.000 N 
ATOM      4  N   UNL     1       0.917   7.190  21.232  0.00  0.00    +0.000 NA
ATOM      5  C   UNL     1       1.634   6.409  20.401  0.00  0.00    +0.000 A 
ENDROOT
BRANCH   3   6
ATOM      6  C   UNL     1       0.436   9.568  21.407  0.00  0.00    +0.000 A 
ATOM      7  C   UNL     1       0.574  10.865  20.883  0.00  0.00    +0.000 A 
ATOM      8  C   UNL     1      -0.060  11.947  21.498  0.00  0.00    +0.000 A 
ATOM      9  C   UNL     1      -0.826  11.747  22.642  0.00  0.00    +0.000 A 
ATOM     10  C   UNL     1      -0.962  10.466  23.174  0.00  0.00    +0.000 A 
ATOM     11  C   UNL     1      -0.337   9.376  22.561  0.00  0.00    +0.000 A 
ENDBRANCH   3   6
BRANCH   5  12
ATOM     12  C   UNL     1       1.705   4.961  20.631  0.00  0.00    +0.000 A 
ATOM     13  C   UNL     1       1.017   4.059  19.810  0.00  0.00    +0.000 A 
ATOM     14  C   UNL     1       1.080   2.688  20.063  0.00  0.00    +0.000 A 
ATOM     15  C   UNL     1       1.830   2.252  21.143  0.00  0.00    +0.000 A 
ATOM     16  N   UNL     1       2.498   3.081  21.968  0.00  0.00    +0.000 NA
ATOM     17  C   UNL     1       2.421   4.408  21.692  0.00  0.00    +0.000 A 
ENDBRANCH   5  12
BRANCH   1  19
ATOM     18  O   UNL     1       3.064   7.339  17.186  0.00  0.00    +0.000 OA
ATOM     19  C   UNL     1       3.133   6.822  18.294  0.00  0.00    +0.000 C 
ATOM     20  N   UNL     1       4.006   5.802  18.600  0.00  0.00    +0.000 N 
ATOM     21  H   UNL     1       3.888   5.330  19.484  0.00  0.00    +0.000 HD
BRANCH  20  22
ATOM     22  C   UNL     1       4.912   5.226  17.614  0.00  0.00    +0.000 C 
ATOM     23  C   UNL     1       5.839   4.122  18.199  0.00  0.00    +0.000 C 
ATOM     24  N   UNL     1       7.278   4.444  18.010  0.00  0.00    +0.000 NA
ATOM     25  C   UNL     1       7.567   5.734  18.667  0.00  0.00    +0.000 C 
ATOM     26  C   UNL     1       6.766   6.884  18.036  0.00  0.00    +0.000 C 
ATOM     27  C   UNL     1       5.801   6.320  16.975  0.00  0.00    +0.000 C 
ATOM     28  C   UNL     1       6.669   5.640  15.902  0.00  0.00    +0.000 C 
ATOM     29  C   UNL     1       7.553   4.568  16.562  0.00  0.00    +0.000 C 
ENDBRANCH  20  22
ENDBRANCH   1  19
TORSDOF 4
ENDMDL
MODEL 2
REMARK VINA RESULT:      -8.0      3.826      8.780
REMARK  Name = 
REMARK  4 active torsions:
REMARK  status: ('A' for Active; 'I' for Inactive)
REMARK    1  A    between atoms: C_2  and  C_12
REMARK    2  A    between atoms: N_3  and  C_4
REMARK    3  A    between atoms: N_14  and  C_15
REMARK    4  A    between atoms: C_22  and  C_23
REMARK                            x       y       z     vdW  Elec       q    Type
REMARK                         _______ _______ _______ _____ _____    ______ ____
ROOT
ATOM      1  C   UNL     1       6.056   5.172  17.329  0.00  0.00    +0.000 A 
ATOM      2  C   UNL     1       5.834   4.377  16.224  0.00  0.00    +0.000 A 
ATOM      3  N   UNL     1       6.534   4.911  15.175  0.00  0.00    +0.000 N 
ATOM      4  N   UNL     1       7.218   6.016  15.557  0.00  0.00    +0.000 NA
ATOM      5  C   UNL     1       6.931   6.199  16.861  0.00  0.00    +0.000 A 
ENDROOT
BRANCH   3   6
ATOM      6  C   UNL     1       6.584   4.413  13.841  0.00  0.00    +0.000 A 
ATOM      7  C   UNL     1       5.661   3.449  13.400  0.00  0.00    +0.000 A 
ATOM      8  C   UNL     1       5.708   2.975  12.087  0.00  0.00    +0.000 A 
ATOM      9  C   UNL     1       6.678   3.449  11.210  0.00  0.00    +0.000 A 
ATOM     10  C   UNL     1       7.603   4.398  11.641  0.00  0.00    +0.000 A 
ATOM     11  C   UNL     1       7.559   4.884  12.952  0.00  0.00    +0.000 A 
ENDBRANCH   3   6
BRANCH   5  12
ATOM     12  C   UNL     1       7.540   7.312  17.600  0.00  0.00    +0.000 A 
ATOM     13  C   UNL     1       7.375   8.639  17.184  0.00  0.00    +0.000 A 
ATOM     14  C   UNL     1       7.985   9.678  17.889  0.00  0.00    +0.000 A 
ATOM     15  C   UNL     1       8.755   9.360  18.996  0.00  0.00    +0.000 A 
ATOM     16  N   UNL     1       8.954   8.099  19.426  0.00  0.00    +0.000 NA
ATOM     17  C   UNL     1       8.343   7.111  18.722  0.00  0.00    +0.000 A 
ENDBRANCH   5  12
BRANCH   1  19
ATOM     18  O   UNL     1       6.098   5.004  19.678  0.00  0.00    +0.000 OA
ATOM     19  C   UNL     1       5.462   4.950  18.634  0.00  0.00    +0.000 C 
ATOM     20  N   UNL     1       4.121   4.639  18.579  0.00  0.00    +0.000 N 
ATOM     21  H   UNL     1       3.715   4.462  17.672  0.00  0.00    +0.000 HD
BRANCH  20  22
ATOM     22  C   UNL     1       3.344   4.319  19.768  0.00  0.00    +0.000 C 
ATOM     23  C   UNL     1       3.487   2.838  20.220  0.00  0.00    +0.000 C 
ATOM     24  N   UNL     1       2.176   2.140  20.271  0.00  0.00    +0.000 NA
ATOM     25  C   UNL     1       1.556   2.193  18.932  0.00  0.00    +0.000 C 
ATOM     26  C   UNL     1       1.275   3.639  18.494  0.00  0.00    +0.000 C 
ATOM     27  C   UNL     1       1.841   4.616  19.543  0.00  0.00    +0.000 C 
ATOM     28  C   UNL     1       1.110   4.321  20.865  0.00  0.00    +0.000 C 
ATOM     29  C   UNL     1       1.300   2.840  21.235  0.00  0.00    +0.000 C 
ENDBRANCH  20  22
ENDBRANCH   1  19
TORSDOF 4
ENDMDL
MODEL 3
REMARK VINA RESULT:      -7.9      2.785      7.534
REMARK  Name = 
REMARK  4 active torsions:
REMARK  status: ('A' for Active; 'I' for Inactive)
REMARK    1  A    between atoms: C_2  and  C_12
REMARK    2  A    between atoms: N_3  and  C_4
REMARK    3  A    between atoms: N_14  and  C_15
REMARK    4  A    between atoms: C_22  and  C_23
REMARK                            x       y       z     vdW  Elec       q    Type
REMARK                         _______ _______ _______ _____ _____    ______ ____
ROOT
ATOM      1  C   UNL     1       1.973   7.892  18.856  0.00  0.00    +0.000 A 
ATOM      2  C   UNL     1       2.445   6.760  18.225  0.00  0.00    +0.000 A 
ATOM      3  N   UNL     1       2.388   5.725  19.119  0.00  0.00    +0.000 N 
ATOM      4  N   UNL     1       1.882   6.134  20.307  0.00  0.00    +0.000 NA
ATOM      5  C   UNL     1       1.635   7.452  20.173  0.00  0.00    +0.000 A 
ENDROOT
BRANCH   3   6
ATOM      6  C   UNL     1       2.784   4.376  18.889  0.00  0.00    +0.000 A 
ATOM      7  C   UNL     1       2.242   3.640  17.821  0.00  0.00    +0.000 A 
ATOM      8  C   UNL     1       2.644   2.323  17.594  0.00  0.00    +0.000 A 
ATOM      9  C   UNL     1       3.580   1.726  18.433  0.00  0.00    +0.000 A 
ATOM     10  C   UNL     1       4.116   2.444  19.501  0.00  0.00    +0.000 A 
ATOM     11  C   UNL     1       3.725   3.767  19.730  0.00  0.00    +0.000 A 
ENDBRANCH   3   6
BRANCH   5  12
ATOM     12  C   UNL     1       1.048   8.208  21.286  0.00  0.00    +0.000 A 
ATOM     13  C   UNL     1      -0.338   8.274  21.471  0.00  0.00    +0.000 A 
ATOM     14  C   UNL     1      -0.872   9.020  22.523  0.00  0.00    +0.000 A 
ATOM     15  C   UNL     1      -0.000   9.691  23.364  0.00  0.00    +0.000 A 
ATOM     16  N   UNL     1       1.338   9.670  23.218  0.00  0.00    +0.000 NA
ATOM     17  C   UNL     1       1.828   8.930  22.189  0.00  0.00    +0.000 A 
ENDBRANCH   5  12
BRANCH   1  19
ATOM     18  O   UNL     1       2.481   9.494  17.206  0.00  0.00    +0.000 OA
ATOM     19  C   UNL     1       1.902   9.205  18.245  0.00  0.00    +0.000 C 
ATOM     20  N   UNL     1       1.147  10.104  18.966  0.00  0.00    +0.000 N 
ATOM     21  H   UNL     1       0.837   9.827  19.886  0.00  0.00    +0.000 HD
BRANCH  20  22
ATOM     22  C   UNL     1       0.994  11.495  18.564  0.00  0.00    +0.000 C 
ATOM     23  C   UNL     1       2.062  12.440  19.187  0.00  0.00    +0.000 C 
ATOM     24  N   UNL     1       1.444  13.537  19.977  0.00  0.00    +0.000 NA
ATOM     25  C   UNL     1       0.618  12.945  21.049  0.00  0.00    +0.000 C 
ATOM     26  C   UNL     1      -0.534  12.102  20.478  0.00  0.00    +0.000 C 
ATOM     27  C   UNL     1      -0.408  12.029  18.944  0.00  0.00    +0.000 C 
ATOM     28  C   UNL     1      -0.509  13.472  18.420  0.00  0.00    +0.000 C 
ATOM     29  C   UNL     1       0.575  14.336  19.086  0.00  0.00    +0.000 C 
ENDBRANCH  20  22
ENDBRANCH   1  19
TORSDOF 4
ENDMDL
MODEL 4
REMARK VINA RESULT:      -7.8      0.968      1.496
REMARK  Name = 
REMARK  4 active torsions:
REMARK  status: ('A' for Active; 'I' for Inactive)
REMARK    1  A    between atoms: C_2  and  C_12
REMARK    2  A    between atoms: N_3  and  C_4
REMARK    3  A    between atoms: N_14  and  C_15
REMARK    4  A    between atoms: C_22  and  C_23
REMARK                            x       y       z     vdW  Elec       q    Type
REMARK                         _______ _______ _______ _____ _____    ______ ____
ROOT
ATOM      1  C   UNL     1       2.340   7.571  19.222  0.00  0.00    +0.000 A 
ATOM      2  C   UNL     1       1.838   8.799  19.601  0.00  0.00    +0.000 A 
ATOM      3  N   UNL     1       0.939   8.591  20.612  0.00  0.00    +0.000 N 
ATOM      4  N   UNL     1       0.845   7.274  20.919  0.00  0.00    +0.000 NA
ATOM      5  C   UNL     1       1.681   6.635  20.077  0.00  0.00    +0.000 A 
ENDROOT
BRANCH   3   6
ATOM      6  C   UNL     1       0.179   9.583  21.295  0.00  0.00    +0.000 A 
ATOM      7  C   UNL     1      -0.178  10.782  20.653  0.00  0.00    +0.000 A 
ATOM      8  C   UNL     1      -0.934  11.745  21.325  0.00  0.00    +0.000 A 
ATOM      9  C   UNL     1      -1.331  11.526  22.640  0.00  0.00    +0.000 A 
ATOM     10  C   UNL     1      -0.974  10.345  23.288  0.00  0.00    +0.000 A 
ATOM     11  C   UNL     1      -0.224   9.371  22.620  0.00  0.00    +0.000 A 
ENDBRANCH   3   6
BRANCH   5  12
ATOM     12  C   UNL     1       1.840   5.179  20.162  0.00  0.00    +0.000 A 
ATOM     13  C   UNL     1       1.534   4.348  19.077  0.00  0.00    +0.000 A 
ATOM     14  C   UNL     1       1.671   2.963  19.192  0.00  0.00    +0.000 A 
ATOM     15  C   UNL     1       2.106   2.442  20.399  0.00  0.00    +0.000 A 
ATOM     16  N   UNL     1       2.398   3.198  21.474  0.00  0.00    +0.000 NA
ATOM     17  C   UNL     1       2.261   4.542  21.329  0.00  0.00    +0.000 A 
ENDBRANCH   5  12
BRANCH   1  19
ATOM     18  O   UNL     1       3.180   7.857  17.040  0.00  0.00    +0.000 OA
ATOM     19  C   UNL     1       3.304   7.370  18.157  0.00  0.00    +0.000 C 
ATOM     20  N   UNL     1       4.352   6.551  18.515  0.00  0.00    +0.000 N 
ATOM     21  H   UNL     1       4.293   6.070  19.400  0.00  0.00    +0.000 HD
BRANCH  20  22
ATOM     22  C   UNL     1       5.400   6.169  17.578  0.00  0.00    +0.000 C 
ATOM     23  C   UNL     1       4.864   5.821  16.160  0.00  0.00    +0.000 C 
ATOM     24  N   UNL     1       5.235   4.442  15.746  0.00  0.00    +0.000 NA
ATOM     25  C   UNL     1       4.691   3.487  16.731  0.00  0.00    +0.000 C 
ATOM     26  C   UNL     1       5.290   3.710  18.129  0.00  0.00    +0.000 C 
ATOM     27  C   UNL     1       6.199   4.954  18.108  0.00  0.00    +0.000 C 
ATOM     28  C   UNL     1       7.324   4.666  17.098  0.00  0.00    +0.000 C 
ATOM     29  C   UNL     1       6.709   4.330  15.729  0.00  0.00    +0.000 C 
ENDBRANCH  20  22
ENDBRANCH   1  19
TORSDOF 4
ENDMDL
MODEL 5
REMARK VINA RESULT:      -7.8      1.123      1.959
REMARK  Name = 
REMARK  4 active torsions:
REMARK  status: ('A' for Active; 'I' for Inactive)
REMARK    1  A    between atoms: C_2  and  C_12
REMARK    2  A    between atoms: N_3  and  C_4
REMARK    3  A    between atoms: N_14  and  C_15
REMARK    4  A    between atoms: C_22  and  C_23
REMARK                            x       y       z     vdW  Elec       q    Type
REMARK                         _______ _______ _______ _____ _____    ______ ____
ROOT
ATOM      1  C   UNL     1       2.370   7.533  19.209  0.00  0.00    +0.000 A 
ATOM      2  C   UNL     1       1.880   8.761  19.600  0.00  0.00    +0.000 A 
ATOM      3  N   UNL     1       0.972   8.553  20.602  0.00  0.00    +0.000 N 
ATOM      4  N   UNL     1       0.860   7.234  20.893  0.00  0.00    +0.000 NA
ATOM      5  C   UNL     1       1.693   6.595  20.048  0.00  0.00    +0.000 A 
ENDROOT
BRANCH   3   6
ATOM      6  C   UNL     1       0.219   9.546  21.292  0.00  0.00    +0.000 A 
ATOM      7  C   UNL     1      -0.219   9.330  22.610  0.00  0.00    +0.000 A 
ATOM      8  C   UNL     1      -0.946  10.314  23.283  0.00  0.00    +0.000 A 
ATOM      9  C   UNL     1      -1.249  11.513  22.648  0.00  0.00    +0.000 A 
ATOM     10  C   UNL     1      -0.828  11.733  21.338  0.00  0.00    +0.000 A 
ATOM     11  C   UNL     1      -0.092  10.757  20.658  0.00  0.00    +0.000 A 
ENDBRANCH   3   6
BRANCH   5  12
ATOM     12  C   UNL     1       1.834   5.135  20.118  0.00  0.00    +0.000 A 
ATOM     13  C   UNL     1       2.262   4.500  21.290  0.00  0.00    +0.000 A 
ATOM     14  C   UNL     1       2.411   3.112  21.323  0.00  0.00    +0.000 A 
ATOM     15  C   UNL     1       2.134   2.393  20.173  0.00  0.00    +0.000 A 
ATOM     16  N   UNL     1       1.733   2.959  19.019  0.00  0.00    +0.000 NA
ATOM     17  C   UNL     1       1.592   4.310  19.020  0.00  0.00    +0.000 A 
ENDBRANCH   5  12
BRANCH   1  19
ATOM     18  O   UNL     1       3.200   7.787  17.019  0.00  0.00    +0.000 OA
ATOM     19  C   UNL     1       3.338   7.333  18.148  0.00  0.00    +0.000 C 
ATOM     20  N   UNL     1       4.410   6.554  18.525  0.00  0.00    +0.000 N 
ATOM     21  H   UNL     1       4.366   6.094  19.422  0.00  0.00    +0.000 HD
BRANCH  20  22
ATOM     22  C   UNL     1       5.468   6.179  17.596  0.00  0.00    +0.000 C 
ATOM     23  C   UNL     1       4.957   5.918  16.151  0.00  0.00    +0.000 C 
ATOM     24  N   UNL     1       5.290   4.548  15.680  0.00  0.00    +0.000 NA
ATOM     25  C   UNL     1       4.687   3.567  16.604  0.00  0.00    +0.000 C 
ATOM     26  C   UNL     1       5.257   3.702  18.026  0.00  0.00    +0.000 C 
ATOM     27  C   UNL     1       6.210   4.912  18.086  0.00  0.00    +0.000 C 
ATOM     28  C   UNL     1       7.350   4.632  17.092  0.00  0.00    +0.000 C 
ATOM     29  C   UNL     1       6.759   4.382  15.693  0.00  0.00    +0.000 C 
ENDBRANCH  20  22
ENDBRANCH   1  19
TORSDOF 4
ENDMDL
MODEL 6
REMARK VINA RESULT:      -7.8      2.916      7.787
REMARK  Name = 
REMARK  4 active torsions:
REMARK  status: ('A' for Active; 'I' for Inactive)
REMARK    1  A    between atoms: C_2  and  C_12
REMARK    2  A    between atoms: N_3  and  C_4
REMARK    3  A    between atoms: N_14  and  C_15
REMARK    4  A    between atoms: C_22  and  C_23
REMARK                            x       y       z     vdW  Elec       q    Type
REMARK                         _______ _______ _______ _____ _____    ______ ____
ROOT
ATOM      1  C   UNL     1       1.509   9.245  18.647  0.00  0.00    +0.000 A 
ATOM      2  C   UNL     1       2.177   8.469  17.722  0.00  0.00    +0.000 A 
ATOM      3  N   UNL     1       2.612   7.338  18.359  0.00  0.00    +0.000 N 
ATOM      4  N   UNL     1       2.240   7.337  19.662  0.00  0.00    +0.000 NA
ATOM      5  C   UNL     1       1.579   8.494  19.861  0.00  0.00    +0.000 A 
ENDROOT
BRANCH   3   6
ATOM      6  C   UNL     1       3.352   6.266  17.781  0.00  0.00    +0.000 A 
ATOM      7  C   UNL     1       2.900   4.939  17.892  0.00  0.00    +0.000 A 
ATOM      8  C   UNL     1       3.624   3.896  17.313  0.00  0.00    +0.000 A 
ATOM      9  C   UNL     1       4.806   4.163  16.630  0.00  0.00    +0.000 A 
ATOM     10  C   UNL     1       5.267   5.474  16.522  0.00  0.00    +0.000 A 
ATOM     11  C   UNL     1       4.544   6.527  17.092  0.00  0.00    +0.000 A 
ENDBRANCH   3   6
BRANCH   5  12
ATOM     12  C   UNL     1       1.012   8.800  21.180  0.00  0.00    +0.000 A 
ATOM     13  C   UNL     1      -0.372   8.804  21.394  0.00  0.00    +0.000 A 
ATOM     14  C   UNL     1      -0.888   9.122  22.651  0.00  0.00    +0.000 A 
ATOM     15  C   UNL     1      -0.001   9.435  23.667  0.00  0.00    +0.000 A 
ATOM     16  N   UNL     1       1.336   9.458  23.507  0.00  0.00    +0.000 NA
ATOM     17  C   UNL     1       1.808   9.139  22.273  0.00  0.00    +0.000 A 
ENDBRANCH   5  12
BRANCH   1  19
ATOM     18  O   UNL     1      -0.233  10.687  17.988  0.00  0.00    +0.000 OA
ATOM     19  C   UNL     1       0.923  10.541  18.364  0.00  0.00    +0.000 C 
ATOM     20  N   UNL     1       1.805  11.587  18.527  0.00  0.00    +0.000 N 
ATOM     21  H   UNL     1       2.776  11.365  18.686  0.00  0.00    +0.000 HD
BRANCH  20  22
ATOM     22  C   UNL     1       1.441  12.968  18.237  0.00  0.00    +0.000 C 
ATOM     23  C   UNL     1       2.669  13.907  18.066  0.00  0.00    +0.000 C 
ATOM     24  N   UNL     1       2.639  15.044  19.022  0.00  0.00    +0.000 NA
ATOM     25  C   UNL     1       2.613  14.509  20.398  0.00  0.00    +0.000 C 
ATOM     26  C   UNL     1       1.348  13.675  20.657  0.00  0.00    +0.000 C 
ATOM     27  C   UNL     1       0.537  13.547  19.352  0.00  0.00    +0.000 C 
ATOM     28  C   UNL     1       0.143  14.974  18.932  0.00  0.00    +0.000 C 
ATOM     29  C   UNL     1       1.411  15.833  18.788  0.00  0.00    +0.000 C 
ENDBRANCH  20  22
ENDBRANCH   1  19
TORSDOF 4
ENDMDL
MODEL 7
REMARK VINA RESULT:      -7.8      2.989      9.357
REMARK  Name = 
REMARK  4 active torsions:
REMARK  status: ('A' for Active; 'I' for Inactive)
REMARK    1  A    between atoms: C_2  and  C_12
REMARK    2  A    between atoms: N_3  and  C_4
REMARK    3  A    between atoms: N_14  and  C_15
REMARK    4  A    between atoms: C_22  and  C_23
REMARK                            x       y       z     vdW  Elec       q    Type
REMARK                         _______ _______ _______ _____ _____    ______ ____
ROOT
ATOM      1  C   UNL     1       0.748   9.518  21.312  0.00  0.00    +0.000 A 
ATOM      2  C   UNL     1       1.296   8.253  21.349  0.00  0.00    +0.000 A 
ATOM      3  N   UNL     1       1.705   7.935  20.081  0.00  0.00    +0.000 N 
ATOM      4  N   UNL     1       1.459   8.951  19.220  0.00  0.00    +0.000 NA
ATOM      5  C   UNL     1       0.866   9.919  19.946  0.00  0.00    +0.000 A 
ENDROOT
BRANCH   3   6
ATOM      6  C   UNL     1       2.319   6.720  19.663  0.00  0.00    +0.000 A 
ATOM      7  C   UNL     1       3.114   6.678  18.504  0.00  0.00    +0.000 A 
ATOM      8  C   UNL     1       3.723   5.486  18.107  0.00  0.00    +0.000 A 
ATOM      9  C   UNL     1       3.538   4.327  18.854  0.00  0.00    +0.000 A 
ATOM     10  C   UNL     1       2.745   4.356  20.000  0.00  0.00    +0.000 A 
ATOM     11  C   UNL     1       2.137   5.548  20.409  0.00  0.00    +0.000 A 
ENDBRANCH   3   6
BRANCH   5  12
ATOM     12  C   UNL     1       0.488  11.188  19.312  0.00  0.00    +0.000 A 
ATOM     13  C   UNL     1       1.348  12.293  19.324  0.00  0.00    +0.000 A 
ATOM     14  C   UNL     1       0.955  13.496  18.734  0.00  0.00    +0.000 A 
ATOM     15  C   UNL     1      -0.299  13.565  18.150  0.00  0.00    +0.000 A 
ATOM     16  N   UNL     1      -1.166  12.534  18.126  0.00  0.00    +0.000 NA
ATOM     17  C   UNL     1      -0.752  11.376  18.702  0.00  0.00    +0.000 A 
ENDBRANCH   5  12
BRANCH   1  19
ATOM     18  O   UNL     1       0.209   9.746  23.594  0.00  0.00    +0.000 OA
ATOM     19  C   UNL     1       0.175  10.199  22.457  0.00  0.00    +0.000 C 
ATOM     20  N   UNL     1      -0.441  11.388  22.134  0.00  0.00    +0.000 N 
ATOM     21  H   UNL     1      -0.559  11.607  21.155  0.00  0.00    +0.000 HD
BRANCH  20  22
ATOM     22  C   UNL     1      -1.134  12.203  23.122  0.00  0.00    +0.000 C 
ATOM     23  C   UNL     1      -2.663  11.921  23.193  0.00  0.00    +0.000 C 
ATOM     24  N   UNL     1      -3.468  13.144  22.939  0.00  0.00    +0.000 NA
ATOM     25  C   UNL     1      -3.123  13.673  21.605  0.00  0.00    +0.000 C 
ATOM     26  C   UNL     1      -1.644  14.087  21.524  0.00  0.00    +0.000 C 
ATOM     27  C   UNL     1      -0.930  13.710  22.837  0.00  0.00    +0.000 C 
ATOM     28  C   UNL     1      -1.630  14.492  23.963  0.00  0.00    +0.000 C 
ATOM     29  C   UNL     1      -3.132  14.159  23.961  0.00  0.00    +0.000 C 
ENDBRANCH  20  22
ENDBRANCH   1  19
TORSDOF 4
ENDMDL
MODEL 8
REMARK VINA RESULT:      -7.8      3.023      9.387
REMARK  Name = 
REMARK  4 active torsions:
REMARK  status: ('A' for Active; 'I' for Inactive)
REMARK    1  A    between atoms: C_2  and  C_12
REMARK    2  A    between atoms: N_3  and  C_4
REMARK    3  A    between atoms: N_14  and  C_15
REMARK    4  A    between atoms: C_22  and  C_23
REMARK                            x       y       z     vdW  Elec       q    Type
REMARK                         _______ _______ _______ _____ _____    ______ ____
ROOT
ATOM      1  C   UNL     1       0.692   9.530  21.343  0.00  0.00    +0.000 A 
ATOM      2  C   UNL     1       1.254   8.272  21.384  0.00  0.00    +0.000 A 
ATOM      3  N   UNL     1       1.648   7.945  20.114  0.00  0.00    +0.000 N 
ATOM      4  N   UNL     1       1.379   8.950  19.246  0.00  0.00    +0.000 NA
ATOM      5  C   UNL     1       0.786   9.919  19.971  0.00  0.00    +0.000 A 
ENDROOT
BRANCH   3   6
ATOM      6  C   UNL     1       2.270   6.733  19.699  0.00  0.00    +0.000 A 
ATOM      7  C   UNL     1       2.118   5.554  20.450  0.00  0.00    +0.000 A 
ATOM      8  C   UNL     1       2.720   4.367  20.030  0.00  0.00    +0.000 A 
ATOM      9  C   UNL     1       3.484   4.346  18.868  0.00  0.00    +0.000 A 
ATOM     10  C   UNL     1       3.648   5.511  18.121  0.00  0.00    +0.000 A 
ATOM     11  C   UNL     1       3.042   6.704  18.530  0.00  0.00    +0.000 A 
ENDBRANCH   3   6
BRANCH   5  12
ATOM     12  C   UNL     1       0.384  11.177  19.330  0.00  0.00    +0.000 A 
ATOM     13  C   UNL     1      -0.885  11.331  18.760  0.00  0.00    +0.000 A 
ATOM     14  C   UNL     1      -1.235  12.530  18.135  0.00  0.00    +0.000 A 
ATOM     15  C   UNL     1      -0.296  13.546  18.089  0.00  0.00    +0.000 A 
ATOM     16  N   UNL     1       0.942  13.441  18.609  0.00  0.00    +0.000 NA
ATOM     17  C   UNL     1       1.249  12.265  19.216  0.00  0.00    +0.000 A 
ENDBRANCH   5  12
BRANCH   1  19
ATOM     18  O   UNL     1       0.185   9.777  23.630  0.00  0.00    +0.000 OA
ATOM     19  C   UNL     1       0.127  10.217  22.489  0.00  0.00    +0.000 C 
ATOM     20  N   UNL     1      -0.509  11.394  22.162  0.00  0.00    +0.000 N 
ATOM     21  H   UNL     1      -0.645  11.601  21.184  0.00  0.00    +0.000 HD
BRANCH  20  22
ATOM     22  C   UNL     1      -1.197  12.211  23.153  0.00  0.00    +0.000 C 
ATOM     23  C   UNL     1      -2.734  11.974  23.189  0.00  0.00    +0.000 C 
ATOM     24  N   UNL     1      -3.498  13.225  22.942  0.00  0.00    +0.000 NA
ATOM     25  C   UNL     1      -3.110  13.768  21.625  0.00  0.00    +0.000 C 
ATOM     26  C   UNL     1      -1.619  14.139  21.581  0.00  0.00    +0.000 C 
ATOM     27  C   UNL     1      -0.943  13.717  22.900  0.00  0.00    +0.000 C 
ATOM     28  C   UNL     1      -1.641  14.498  24.027  0.00  0.00    +0.000 C 
ATOM     29  C   UNL     1      -3.152  14.210  23.990  0.00  0.00    +0.000 C 
ENDBRANCH  20  22
ENDBRANCH   1  19
TORSDOF 4
ENDMDL
MODEL 9
REMARK VINA RESULT:      -7.6      3.842      8.805
REMARK  Name = 
REMARK  4 active torsions:
REMARK  status: ('A' for Active; 'I' for Inactive)
REMARK    1  A    between atoms: C_2  and  C_12
REMARK    2  A    between atoms: N_3  and  C_4
REMARK    3  A    between atoms: N_14  and  C_15
REMARK    4  A    between atoms: C_22  and  C_23
REMARK                            x       y       z     vdW  Elec       q    Type
REMARK                         _______ _______ _______ _____ _____    ______ ____
ROOT
ATOM      1  C   UNL     1       5.975   4.966  17.199  0.00  0.00    +0.000 A 
ATOM      2  C   UNL     1       5.730   4.183  16.090  0.00  0.00    +0.000 A 
ATOM      3  N   UNL     1       6.421   4.719  15.037  0.00  0.00    +0.000 N 
ATOM      4  N   UNL     1       7.122   5.813  15.419  0.00  0.00    +0.000 NA
ATOM      5  C   UNL     1       6.854   5.988  16.728  0.00  0.00    +0.000 A 
ENDROOT
BRANCH   3   6
ATOM      6  C   UNL     1       6.447   4.232  13.698  0.00  0.00    +0.000 A 
ATOM      7  C   UNL     1       7.458   4.634  12.807  0.00  0.00    +0.000 A 
ATOM      8  C   UNL     1       7.484   4.143  11.500  0.00  0.00    +0.000 A 
ATOM      9  C   UNL     1       6.501   3.259  11.069  0.00  0.00    +0.000 A 
ATOM     10  C   UNL     1       5.490   2.861  11.942  0.00  0.00    +0.000 A 
ATOM     11  C   UNL     1       5.460   3.342  13.255  0.00  0.00    +0.000 A 
ENDBRANCH   3   6
BRANCH   5  12
ATOM     12  C   UNL     1       7.485   7.088  17.468  0.00  0.00    +0.000 A 
ATOM     13  C   UNL     1       8.244   6.849  18.621  0.00  0.00    +0.000 A 
ATOM     14  C   UNL     1       8.814   7.914  19.320  0.00  0.00    +0.000 A 
ATOM     15  C   UNL     1       8.603   9.199  18.849  0.00  0.00    +0.000 A 
ATOM     16  N   UNL     1       7.871   9.480  17.755  0.00  0.00    +0.000 NA
ATOM     17  C   UNL     1       7.335   8.422  17.092  0.00  0.00    +0.000 A 
ENDBRANCH   5  12
BRANCH   1  19
ATOM     18  O   UNL     1       6.062   4.675  19.535  0.00  0.00    +0.000 OA
ATOM     19  C   UNL     1       5.396   4.738  18.509  0.00  0.00    +0.000 C 
ATOM     20  N   UNL     1       4.029   4.568  18.482  0.00  0.00    +0.000 N 
ATOM     21  H   UNL     1       3.583   4.480  17.581  0.00  0.00    +0.000 HD
BRANCH  20  22
ATOM     22  C   UNL     1       3.255   4.269  19.679  0.00  0.00    +0.000 C 
ATOM     23  C   UNL     1       3.396   2.793  20.152  0.00  0.00    +0.000 C 
ATOM     24  N   UNL     1       2.082   2.101  20.218  0.00  0.00    +0.000 NA
ATOM     25  C   UNL     1       1.458   2.136  18.880  0.00  0.00    +0.000 C 
ATOM     26  C   UNL     1       1.180   3.577  18.421  0.00  0.00    +0.000 C 
ATOM     27  C   UNL     1       1.753   4.567  19.454  0.00  0.00    +0.000 C 
ATOM     28  C   UNL     1       1.025   4.294  20.783  0.00  0.00    +0.000 C 
ATOM     29  C   UNL     1       1.212   2.818  21.174  0.00  0.00    +0.000 C 
ENDBRANCH  20  22
ENDBRANCH   1  19
TORSDOF 4
ENDMDL
