MODEL 1
REMARK VINA RESULT:      -9.1      0.000      0.000
REMARK  Name = 
REMARK  4 active torsions:
REMARK  status: ('A' for Active; 'I' for Inactive)
REMARK    1  A    between atoms: C_2  and  C_4
REMARK    2  A    between atoms: C_14  and  N_15
REMARK    3  A    between atoms: C_16  and  C_18
REMARK    4  A    between atoms: C_21  and  C_22
REMARK                            x       y       z     vdW  Elec       q    Type
REMARK                         _______ _______ _______ _____ _____    ______ ____
ROOT
ATOM      1  C   UNL     1       6.767   6.364  18.274  0.00  0.00    +0.000 A 
ATOM      2  C   UNL     1       5.473   6.509  17.926  0.00  0.00    +0.000 A 
ATOM      3  C   UNL     1       4.479   5.476  18.196  0.00  0.00    +0.000 A 
ATOM      4  C   UNL     1       4.868   4.339  18.804  0.00  0.00    +0.000 A 
ATOM      5  N   UNL     1       6.178   4.186  19.192  0.00  0.00    +0.000 N 
ATOM      6  C   UNL     1       7.167   5.116  18.988  0.00  0.00    +0.000 A 
ATOM      7  O   UNL     1       8.315   4.908  19.374  0.00  0.00    +0.000 OA
ATOM      8  C   UNL     1       3.946   3.184  19.079  0.00  0.00    +0.000 C 
ATOM      9  C   UNL     1       2.470   3.541  18.897  0.00  0.00    +0.000 C 
ATOM     10  C   UNL     1       2.267   4.377  17.632  0.00  0.00    +0.000 C 
ATOM     11  C   UNL     1       3.064   5.693  17.690  0.00  0.00    +0.000 C 
ATOM     12  H   UNL     1       6.476   3.334  19.650  0.00  0.00    +0.000 HD
ENDROOT
BRANCH   1  14
ATOM     13  N   UNL     1       8.577   7.853  18.881  0.00  0.00    +0.000 N 
ATOM     14  C   UNL     1       7.733   7.435  17.902  0.00  0.00    +0.000 C 
ATOM     15  O   UNL     1       7.791   7.921  16.777  0.00  0.00    +0.000 OA
ATOM     16  H   UNL     1       9.268   8.558  18.668  0.00  0.00    +0.000 HD
ATOM     17  H   UNL     1       8.549   7.458  19.819  0.00  0.00    +0.000 HD
ENDBRANCH   1  14
BRANCH  11  18
ATOM     18  N   UNL     1       2.423   6.659  18.571  0.00  0.00    +0.000 N 
ATOM     19  C   UNL     1       2.257   7.978  18.197  0.00  0.00    +0.000 C 
ATOM     20  O   UNL     1       2.664   8.431  17.131  0.00  0.00    +0.000 OA
ATOM     21  H   UNL     1       1.878   6.300  19.345  0.00  0.00    +0.000 HD
BRANCH  19  22
ATOM     22  C   UNL     1       1.495   8.845  19.140  0.00  0.00    +0.000 A 
ATOM     23  C   UNL     1       1.266   8.480  20.472  0.00  0.00    +0.000 A 
ATOM     24  C   UNL     1       0.488   9.299  21.302  0.00  0.00    +0.000 A 
ATOM     25  C   UNL     1      -0.057  10.499  20.828  0.00  0.00    +0.000 A 
ATOM     26  C   UNL     1       0.223  10.878  19.507  0.00  0.00    +0.000 A 
ATOM     27  C   UNL     1       0.995  10.063  18.671  0.00  0.00    +0.000 A 
BRANCH  25  28
ATOM     28  C   UNL     1      -0.943  11.317  21.664  0.00  0.00    +0.000 C 
ATOM     29  C   UNL     1      -1.557  12.447  21.289  0.00  0.00    +0.000 C 
ATOM     30  C   UNL     1      -2.413  13.016  22.370  0.00  0.00    +0.000 C 
ATOM     31  C   UNL     1      -2.411  11.923  23.437  0.00  0.00    +0.000 C 
ATOM     32  C   UNL     1      -1.271  10.964  23.084  0.00  0.00    +0.000 C 
ENDBRANCH  25  28
ENDBRANCH  19  22
ENDBRANCH  11  18
TORSDOF 4
ENDMDL
MODEL 2
REMARK VINA RESULT:      -8.9      0.445      1.010
REMARK  Name = 
REMARK  4 active torsions:
REMARK  status: ('A' for Active; 'I' for Inactive)
REMARK    1  A    between atoms: C_2  and  C_4
REMARK    2  A    between atoms: C_14  and  N_15
REMARK    3  A    between atoms: C_16  and  C_18
REMARK    4  A    between atoms: C_21  and  C_22
REMARK                            x       y       z     vdW  Elec       q    Type
REMARK                         _______ _______ _______ _____ _____    ______ ____
ROOT
ATOM      1  C   UNL     1       6.699   6.361  18.273  0.00  0.00    +0.000 A 
ATOM      2  C   UNL     1       5.406   6.502  17.920  0.00  0.00    +0.000 A 
ATOM      3  C   UNL     1       4.408   5.480  18.213  0.00  0.00    +0.000 A 
ATOM      4  C   UNL     1       4.792   4.356  18.849  0.00  0.00    +0.000 A 
ATOM      5  N   UNL     1       6.101   4.209  19.242  0.00  0.00    +0.000 N 
ATOM      6  C   UNL     1       7.094   5.130  19.018  0.00  0.00    +0.000 A 
ATOM      7  O   UNL     1       8.240   4.928  19.410  0.00  0.00    +0.000 OA
ATOM      8  C   UNL     1       3.866   3.211  19.152  0.00  0.00    +0.000 C 
ATOM      9  C   UNL     1       2.391   3.569  18.960  0.00  0.00    +0.000 C 
ATOM     10  C   UNL     1       2.193   4.375  17.674  0.00  0.00    +0.000 C 
ATOM     11  C   UNL     1       2.994   5.689  17.701  0.00  0.00    +0.000 C 
ATOM     12  H   UNL     1       6.395   3.367  19.722  0.00  0.00    +0.000 HD
ENDROOT
BRANCH   1  14
ATOM     13  N   UNL     1       8.547   7.822  18.831  0.00  0.00    +0.000 N 
ATOM     14  C   UNL     1       7.669   7.419  17.875  0.00  0.00    +0.000 C 
ATOM     15  O   UNL     1       7.701   7.908  16.750  0.00  0.00    +0.000 OA
ATOM     16  H   UNL     1       9.242   8.518  18.600  0.00  0.00    +0.000 HD
ATOM     17  H   UNL     1       8.540   7.425  19.768  0.00  0.00    +0.000 HD
ENDBRANCH   1  14
BRANCH  11  18
ATOM     18  N   UNL     1       2.355   6.679  18.557  0.00  0.00    +0.000 N 
ATOM     19  C   UNL     1       2.228   7.997  18.165  0.00  0.00    +0.000 C 
ATOM     20  O   UNL     1       2.669   8.430  17.104  0.00  0.00    +0.000 OA
ATOM     21  H   UNL     1       1.786   6.341  19.321  0.00  0.00    +0.000 HD
BRANCH  19  22
ATOM     22  C   UNL     1       1.465   8.891  19.081  0.00  0.00    +0.000 A 
ATOM     23  C   UNL     1       0.821  10.050  18.629  0.00  0.00    +0.000 A 
ATOM     24  C   UNL     1       0.172  10.895  19.540  0.00  0.00    +0.000 A 
ATOM     25  C   UNL     1       0.136  10.592  20.907  0.00  0.00    +0.000 A 
ATOM     26  C   UNL     1       0.741   9.403  21.339  0.00  0.00    +0.000 A 
ATOM     27  C   UNL     1       1.396   8.558  20.437  0.00  0.00    +0.000 A 
BRANCH  25  28
ATOM     28  C   UNL     1      -0.467  11.515  21.877  0.00  0.00    +0.000 C 
ATOM     29  C   UNL     1      -0.307  12.845  21.902  0.00  0.00    +0.000 C 
ATOM     30  C   UNL     1      -1.083  13.491  22.999  0.00  0.00    +0.000 C 
ATOM     31  C   UNL     1      -1.948  12.355  23.540  0.00  0.00    +0.000 C 
ATOM     32  C   UNL     1      -1.361  11.052  22.988  0.00  0.00    +0.000 C 
ENDBRANCH  25  28
ENDBRANCH  19  22
ENDBRANCH  11  18
TORSDOF 4
ENDMDL
MODEL 3
REMARK VINA RESULT:      -8.7      1.086      1.277
REMARK  Name = 
REMARK  4 active torsions:
REMARK  status: ('A' for Active; 'I' for Inactive)
REMARK    1  A    between atoms: C_2  and  C_4
REMARK    2  A    between atoms: C_14  and  N_15
REMARK    3  A    between atoms: C_16  and  C_18
REMARK    4  A    between atoms: C_21  and  C_22
REMARK                            x       y       z     vdW  Elec       q    Type
REMARK                         _______ _______ _______ _____ _____    ______ ____
ROOT
ATOM      1  C   UNL     1       6.234   5.958  17.704  0.00  0.00    +0.000 A 
ATOM      2  C   UNL     1       4.907   6.167  17.596  0.00  0.00    +0.000 A 
ATOM      3  C   UNL     1       3.931   5.263  18.193  0.00  0.00    +0.000 A 
ATOM      4  C   UNL     1       4.369   4.182  18.867  0.00  0.00    +0.000 A 
ATOM      5  N   UNL     1       5.720   3.969  19.012  0.00  0.00    +0.000 N 
ATOM      6  C   UNL     1       6.699   4.780  18.494  0.00  0.00    +0.000 A 
ATOM      7  O   UNL     1       7.887   4.527  18.676  0.00  0.00    +0.000 OA
ATOM      8  C   UNL     1       3.458   3.152  19.473  0.00  0.00    +0.000 C 
ATOM      9  C   UNL     1       1.998   3.606  19.532  0.00  0.00    +0.000 C 
ATOM     10  C   UNL     1       1.591   4.292  18.226  0.00  0.00    +0.000 C 
ATOM     11  C   UNL     1       2.458   5.533  17.945  0.00  0.00    +0.000 C 
ATOM     12  H   UNL     1       6.055   3.159  19.519  0.00  0.00    +0.000 HD
ENDROOT
BRANCH   1  14
ATOM     13  N   UNL     1       7.801   6.397  15.911  0.00  0.00    +0.000 N 
ATOM     14  C   UNL     1       7.165   6.889  17.006  0.00  0.00    +0.000 C 
ATOM     15  O   UNL     1       7.355   8.044  17.374  0.00  0.00    +0.000 OA
ATOM     16  H   UNL     1       8.421   7.000  15.389  0.00  0.00    +0.000 HD
ATOM     17  H   UNL     1       7.652   5.444  15.586  0.00  0.00    +0.000 HD
ENDBRANCH   1  14
BRANCH  11  18
ATOM     18  N   UNL     1       2.065   6.652  18.790  0.00  0.00    +0.000 N 
ATOM     19  C   UNL     1       2.045   7.946  18.310  0.00  0.00    +0.000 C 
ATOM     20  O   UNL     1       2.387   8.247  17.169  0.00  0.00    +0.000 OA
ATOM     21  H   UNL     1       1.567   6.442  19.646  0.00  0.00    +0.000 HD
BRANCH  19  22
ATOM     22  C   UNL     1       1.527   8.992  19.237  0.00  0.00    +0.000 A 
ATOM     23  C   UNL     1       1.270   8.730  20.589  0.00  0.00    +0.000 A 
ATOM     24  C   UNL     1       0.721   9.727  21.407  0.00  0.00    +0.000 A 
ATOM     25  C   UNL     1       0.437  11.002  20.900  0.00  0.00    +0.000 A 
ATOM     26  C   UNL     1       0.747  11.266  19.558  0.00  0.00    +0.000 A 
ATOM     27  C   UNL     1       1.290  10.274  18.734  0.00  0.00    +0.000 A 
BRANCH  25  28
ATOM     28  C   UNL     1      -0.217  12.023  21.727  0.00  0.00    +0.000 C 
ATOM     29  C   UNL     1      -1.074  11.793  22.730  0.00  0.00    +0.000 C 
ATOM     30  C   UNL     1      -1.533  13.051  23.388  0.00  0.00    +0.000 C 
ATOM     31  C   UNL     1      -0.641  14.122  22.766  0.00  0.00    +0.000 C 
ATOM     32  C   UNL     1       0.012  13.492  21.531  0.00  0.00    +0.000 C 
ENDBRANCH  25  28
ENDBRANCH  19  22
ENDBRANCH  11  18
TORSDOF 4
ENDMDL
MODEL 4
REMARK VINA RESULT:      -8.1      3.846      9.221
REMARK  Name = 
REMARK  4 active torsions:
REMARK  status: ('A' for Active; 'I' for Inactive)
REMARK    1  A    between atoms: C_2  and  C_4
REMARK    2  A    between atoms: C_14  and  N_15
REMARK    3  A    between atoms: C_16  and  C_18
REMARK    4  A    between atoms: C_21  and  C_22
REMARK                            x       y       z     vdW  Elec       q    Type
REMARK                         _______ _______ _______ _____ _____    ______ ____
ROOT
ATOM      1  C   UNL     1      -3.111  10.921  16.419  0.00  0.00    +0.000 A 
ATOM      2  C   UNL     1      -1.849  10.967  16.891  0.00  0.00    +0.000 A 
ATOM      3  C   UNL     1      -1.539  11.476  18.222  0.00  0.00    +0.000 A 
ATOM      4  C   UNL     1      -2.544  11.922  19.001  0.00  0.00    +0.000 A 
ATOM      5  N   UNL     1      -3.840  11.854  18.548  0.00  0.00    +0.000 N 
ATOM      6  C   UNL     1      -4.213  11.375  17.317  0.00  0.00    +0.000 A 
ATOM      7  O   UNL     1      -5.397  11.339  16.988  0.00  0.00    +0.000 OA
ATOM      8  C   UNL     1      -2.339  12.520  20.365  0.00  0.00    +0.000 C 
ATOM      9  C   UNL     1      -0.930  12.287  20.914  0.00  0.00    +0.000 C 
ATOM     10  C   UNL     1       0.120  12.521  19.827  0.00  0.00    +0.000 C 
ATOM     11  C   UNL     1      -0.080  11.570  18.633  0.00  0.00    +0.000 C 
ATOM     12  H   UNL     1      -4.600  12.186  19.130  0.00  0.00    +0.000 HD
ENDROOT
BRANCH   1  14
ATOM     13  N   UNL     1      -4.627  10.434  14.595  0.00  0.00    +0.000 N 
ATOM     14  C   UNL     1      -3.337  10.453  15.024  0.00  0.00    +0.000 C 
ATOM     15  O   UNL     1      -2.425  10.108  14.278  0.00  0.00    +0.000 OA
ATOM     16  H   UNL     1      -4.826  10.149  13.647  0.00  0.00    +0.000 HD
ATOM     17  H   UNL     1      -5.396  10.721  15.197  0.00  0.00    +0.000 HD
ENDBRANCH   1  14
BRANCH  11  18
ATOM     18  N   UNL     1       0.377  10.223  18.948  0.00  0.00    +0.000 N 
ATOM     19  C   UNL     1       1.494   9.682  18.345  0.00  0.00    +0.000 C 
ATOM     20  O   UNL     1       2.149  10.269  17.487  0.00  0.00    +0.000 OA
ATOM     21  H   UNL     1       0.022   9.793  19.791  0.00  0.00    +0.000 HD
BRANCH  19  22
ATOM     22  C   UNL     1       1.923   8.337  18.825  0.00  0.00    +0.000 A 
ATOM     23  C   UNL     1       2.748   7.500  18.064  0.00  0.00    +0.000 A 
ATOM     24  C   UNL     1       3.070   6.218  18.529  0.00  0.00    +0.000 A 
ATOM     25  C   UNL     1       2.594   5.756  19.763  0.00  0.00    +0.000 A 
ATOM     26  C   UNL     1       1.811   6.624  20.538  0.00  0.00    +0.000 A 
ATOM     27  C   UNL     1       1.481   7.903  20.078  0.00  0.00    +0.000 A 
BRANCH  25  28
ATOM     28  C   UNL     1       2.856   4.384  20.216  0.00  0.00    +0.000 C 
ATOM     29  C   UNL     1       3.836   3.584  19.777  0.00  0.00    +0.000 C 
ATOM     30  C   UNL     1       3.844   2.262  20.468  0.00  0.00    +0.000 C 
ATOM     31  C   UNL     1       2.823   2.441  21.589  0.00  0.00    +0.000 C 
ATOM     32  C   UNL     1       2.022   3.704  21.260  0.00  0.00    +0.000 C 
ENDBRANCH  25  28
ENDBRANCH  19  22
ENDBRANCH  11  18
TORSDOF 4
ENDMDL
MODEL 5
REMARK VINA RESULT:      -8.1      1.321      1.437
REMARK  Name = 
REMARK  4 active torsions:
REMARK  status: ('A' for Active; 'I' for Inactive)
REMARK    1  A    between atoms: C_2  and  C_4
REMARK    2  A    between atoms: C_14  and  N_15
REMARK    3  A    between atoms: C_16  and  C_18
REMARK    4  A    between atoms: C_21  and  C_22
REMARK                            x       y       z     vdW  Elec       q    Type
REMARK                         _______ _______ _______ _____ _____    ______ ____
ROOT
ATOM      1  C   UNL     1       5.843   5.459  17.425  0.00  0.00    +0.000 A 
ATOM      2  C   UNL     1       4.513   5.562  17.612  0.00  0.00    +0.000 A 
ATOM      3  C   UNL     1       3.800   4.728  18.572  0.00  0.00    +0.000 A 
ATOM      4  C   UNL     1       4.491   3.819  19.288  0.00  0.00    +0.000 A 
ATOM      5  N   UNL     1       5.853   3.720  19.131  0.00  0.00    +0.000 N 
ATOM      6  C   UNL     1       6.597   4.479  18.261  0.00  0.00    +0.000 A 
ATOM      7  O   UNL     1       7.815   4.337  18.186  0.00  0.00    +0.000 OA
ATOM      8  C   UNL     1       3.856   2.867  20.262  0.00  0.00    +0.000 C 
ATOM      9  C   UNL     1       2.410   3.234  20.601  0.00  0.00    +0.000 C 
ATOM     10  C   UNL     1       1.644   3.639  19.339  0.00  0.00    +0.000 C 
ATOM     11  C   UNL     1       2.289   4.856  18.652  0.00  0.00    +0.000 C 
ATOM     12  H   UNL     1       6.378   3.041  19.667  0.00  0.00    +0.000 HD
ENDROOT
BRANCH   1  14
ATOM     13  N   UNL     1       7.486   7.120  16.790  0.00  0.00    +0.000 N 
ATOM     14  C   UNL     1       6.486   6.298  16.376  0.00  0.00    +0.000 C 
ATOM     15  O   UNL     1       6.157   6.260  15.194  0.00  0.00    +0.000 OA
ATOM     16  H   UNL     1       7.970   7.688  16.110  0.00  0.00    +0.000 HD
ATOM     17  H   UNL     1       7.777   7.162  17.765  0.00  0.00    +0.000 HD
ENDBRANCH   1  14
BRANCH  11  18
ATOM     18  N   UNL     1       1.987   6.087  19.370  0.00  0.00    +0.000 N 
ATOM     19  C   UNL     1       1.856   7.293  18.710  0.00  0.00    +0.000 C 
ATOM     20  O   UNL     1       2.017   7.419  17.499  0.00  0.00    +0.000 OA
ATOM     21  H   UNL     1       1.627   6.006  20.311  0.00  0.00    +0.000 HD
BRANCH  19  22
ATOM     22  C   UNL     1       1.445   8.462  19.538  0.00  0.00    +0.000 A 
ATOM     23  C   UNL     1       1.363   8.397  20.934  0.00  0.00    +0.000 A 
ATOM     24  C   UNL     1       0.908   9.503  21.665  0.00  0.00    +0.000 A 
ATOM     25  C   UNL     1       0.546  10.694  21.022  0.00  0.00    +0.000 A 
ATOM     26  C   UNL     1       0.682  10.763  19.628  0.00  0.00    +0.000 A 
ATOM     27  C   UNL     1       1.130   9.661  18.892  0.00  0.00    +0.000 A 
BRANCH  25  28
ATOM     28  C   UNL     1      -0.012  11.826  21.772  0.00  0.00    +0.000 C 
ATOM     29  C   UNL     1       0.316  13.115  21.612  0.00  0.00    +0.000 C 
ATOM     30  C   UNL     1      -0.460  14.017  22.511  0.00  0.00    +0.000 C 
ATOM     31  C   UNL     1      -1.508  13.091  23.123  0.00  0.00    +0.000 C 
ATOM     32  C   UNL     1      -1.051  11.656  22.840  0.00  0.00    +0.000 C 
ENDBRANCH  25  28
ENDBRANCH  19  22
ENDBRANCH  11  18
TORSDOF 4
ENDMDL
MODEL 6
REMARK VINA RESULT:      -8.1      4.011      9.565
REMARK  Name = 
REMARK  4 active torsions:
REMARK  status: ('A' for Active; 'I' for Inactive)
REMARK    1  A    between atoms: C_2  and  C_4
REMARK    2  A    between atoms: C_14  and  N_15
REMARK    3  A    between atoms: C_16  and  C_18
REMARK    4  A    between atoms: C_21  and  C_22
REMARK                            x       y       z     vdW  Elec       q    Type
REMARK                         _______ _______ _______ _____ _____    ______ ____
ROOT
ATOM      1  C   UNL     1      -3.787  11.730  18.179  0.00  0.00    +0.000 A 
ATOM      2  C   UNL     1      -2.443  11.661  18.230  0.00  0.00    +0.000 A 
ATOM      3  C   UNL     1      -1.689  12.103  19.398  0.00  0.00    +0.000 A 
ATOM      4  C   UNL     1      -2.358  12.603  20.455  0.00  0.00    +0.000 A 
ATOM      5  N   UNL     1      -3.732  12.653  20.432  0.00  0.00    +0.000 N 
ATOM      6  C   UNL     1      -4.511  12.243  19.379  0.00  0.00    +0.000 A 
ATOM      7  O   UNL     1      -5.736  12.312  19.439  0.00  0.00    +0.000 OA
ATOM      8  C   UNL     1      -1.687  13.142  21.687  0.00  0.00    +0.000 C 
ATOM      9  C   UNL     1      -0.202  12.781  21.766  0.00  0.00    +0.000 C 
ATOM     10  C   UNL     1       0.471  12.963  20.404  0.00  0.00    +0.000 C 
ATOM     11  C   UNL     1      -0.173  12.068  19.330  0.00  0.00    +0.000 C 
ATOM     12  H   UNL     1      -4.240  13.026  21.224  0.00  0.00    +0.000 HD
ENDROOT
BRANCH   1  14
ATOM     13  N   UNL     1      -5.719  11.840  16.723  0.00  0.00    +0.000 N 
ATOM     14  C   UNL     1      -4.478  11.324  16.923  0.00  0.00    +0.000 C 
ATOM     15  O   UNL     1      -3.971  10.575  16.094  0.00  0.00    +0.000 OA
ATOM     16  H   UNL     1      -6.215  11.614  15.873  0.00  0.00    +0.000 HD
ATOM     17  H   UNL     1      -6.155  12.467  17.397  0.00  0.00    +0.000 HD
ENDBRANCH   1  14
BRANCH  11  18
ATOM     18  N   UNL     1       0.244  10.680  19.480  0.00  0.00    +0.000 N 
ATOM     19  C   UNL     1       1.337  10.178  18.802  0.00  0.00    +0.000 C 
ATOM     20  O   UNL     1       2.001  10.841  18.010  0.00  0.00    +0.000 OA
ATOM     21  H   UNL     1      -0.117  10.165  20.273  0.00  0.00    +0.000 HD
BRANCH  19  22
ATOM     22  C   UNL     1       1.726   8.774  19.117  0.00  0.00    +0.000 A 
ATOM     23  C   UNL     1       2.308   7.929  18.165  0.00  0.00    +0.000 A 
ATOM     24  C   UNL     1       2.596   6.596  18.489  0.00  0.00    +0.000 A 
ATOM     25  C   UNL     1       2.329   6.090  19.767  0.00  0.00    +0.000 A 
ATOM     26  C   UNL     1       1.794   6.961  20.727  0.00  0.00    +0.000 A 
ATOM     27  C   UNL     1       1.499   8.291  20.409  0.00  0.00    +0.000 A 
BRANCH  25  28
ATOM     28  C   UNL     1       2.548   4.674  20.088  0.00  0.00    +0.000 C 
ATOM     29  C   UNL     1       3.544   3.907  19.624  0.00  0.00    +0.000 C 
ATOM     30  C   UNL     1       3.496   2.520  20.171  0.00  0.00    +0.000 C 
ATOM     31  C   UNL     1       2.413   2.598  21.244  0.00  0.00    +0.000 C 
ATOM     32  C   UNL     1       1.646   3.902  21.004  0.00  0.00    +0.000 C 
ENDBRANCH  25  28
ENDBRANCH  19  22
ENDBRANCH  11  18
TORSDOF 4
ENDMDL
MODEL 7
REMARK VINA RESULT:      -8.0      4.297     10.073
REMARK  Name = 
REMARK  4 active torsions:
REMARK  status: ('A' for Active; 'I' for Inactive)
REMARK    1  A    between atoms: C_2  and  C_4
REMARK    2  A    between atoms: C_14  and  N_15
REMARK    3  A    between atoms: C_16  and  C_18
REMARK    4  A    between atoms: C_21  and  C_22
REMARK                            x       y       z     vdW  Elec       q    Type
REMARK                         _______ _______ _______ _____ _____    ______ ____
ROOT
ATOM      1  C   UNL     1      -4.578  12.203  19.201  0.00  0.00    +0.000 A 
ATOM      2  C   UNL     1      -3.244  12.340  19.327  0.00  0.00    +0.000 A 
ATOM      3  C   UNL     1      -2.604  12.517  20.625  0.00  0.00    +0.000 A 
ATOM      4  C   UNL     1      -3.371  12.553  21.732  0.00  0.00    +0.000 A 
ATOM      5  N   UNL     1      -4.731  12.385  21.625  0.00  0.00    +0.000 N 
ATOM      6  C   UNL     1      -5.405  12.199  20.443  0.00  0.00    +0.000 A 
ATOM      7  O   UNL     1      -6.624  12.047  20.432  0.00  0.00    +0.000 OA
ATOM      8  C   UNL     1      -2.830  12.787  23.115  0.00  0.00    +0.000 C 
ATOM      9  C   UNL     1      -1.307  12.664  23.189  0.00  0.00    +0.000 C 
ATOM     10  C   UNL     1      -0.648  13.362  21.997  0.00  0.00    +0.000 C 
ATOM     11  C   UNL     1      -1.104  12.749  20.660  0.00  0.00    +0.000 C 
ATOM     12  H   UNL     1      -5.313  12.410  22.454  0.00  0.00    +0.000 HD
ENDROOT
BRANCH   1  14
ATOM     13  N   UNL     1      -5.979  13.112  17.447  0.00  0.00    +0.000 N 
ATOM     14  C   UNL     1      -5.162  12.097  17.834  0.00  0.00    +0.000 C 
ATOM     15  O   UNL     1      -4.924  11.161  17.077  0.00  0.00    +0.000 OA
ATOM     16  H   UNL     1      -6.376  13.096  16.519  0.00  0.00    +0.000 HD
ATOM     17  H   UNL     1      -6.184  13.899  18.059  0.00  0.00    +0.000 HD
ENDBRANCH   1  14
BRANCH  11  18
ATOM     18  N   UNL     1      -0.453  11.469  20.418  0.00  0.00    +0.000 N 
ATOM     19  C   UNL     1       0.357  11.268  19.318  0.00  0.00    +0.000 C 
ATOM     20  O   UNL     1       0.553  12.125  18.460  0.00  0.00    +0.000 OA
ATOM     21  H   UNL     1      -0.395  10.818  21.191  0.00  0.00    +0.000 HD
BRANCH  19  22
ATOM     22  C   UNL     1       1.049   9.951  19.234  0.00  0.00    +0.000 A 
ATOM     23  C   UNL     1       1.679   9.511  18.063  0.00  0.00    +0.000 A 
ATOM     24  C   UNL     1       2.259   8.237  18.012  0.00  0.00    +0.000 A 
ATOM     25  C   UNL     1       2.240   7.389  19.128  0.00  0.00    +0.000 A 
ATOM     26  C   UNL     1       1.652   7.862  20.310  0.00  0.00    +0.000 A 
ATOM     27  C   UNL     1       1.066   9.131  20.366  0.00  0.00    +0.000 A 
BRANCH  25  28
ATOM     28  C   UNL     1       2.770   6.021  19.056  0.00  0.00    +0.000 C 
ATOM     29  C   UNL     1       2.778   5.128  20.053  0.00  0.00    +0.000 C 
ATOM     30  C   UNL     1       3.360   3.818  19.639  0.00  0.00    +0.000 C 
ATOM     31  C   UNL     1       3.523   3.963  18.128  0.00  0.00    +0.000 C 
ATOM     32  C   UNL     1       3.382   5.455  17.810  0.00  0.00    +0.000 C 
ENDBRANCH  25  28
ENDBRANCH  19  22
ENDBRANCH  11  18
TORSDOF 4
ENDMDL
MODEL 8
REMARK VINA RESULT:      -7.9      3.783      8.801
REMARK  Name = 
REMARK  4 active torsions:
REMARK  status: ('A' for Active; 'I' for Inactive)
REMARK    1  A    between atoms: C_2  and  C_4
REMARK    2  A    between atoms: C_14  and  N_15
REMARK    3  A    between atoms: C_16  and  C_18
REMARK    4  A    between atoms: C_21  and  C_22
REMARK                            x       y       z     vdW  Elec       q    Type
REMARK                         _______ _______ _______ _____ _____    ______ ____
ROOT
ATOM      1  C   UNL     1       1.999  13.789  20.140  0.00  0.00    +0.000 A 
ATOM      2  C   UNL     1       1.617  12.507  20.308  0.00  0.00    +0.000 A 
ATOM      3  C   UNL     1       0.470  11.944  19.607  0.00  0.00    +0.000 A 
ATOM      4  C   UNL     1      -0.236  12.731  18.771  0.00  0.00    +0.000 A 
ATOM      5  N   UNL     1       0.157  14.033  18.566  0.00  0.00    +0.000 N 
ATOM      6  C   UNL     1       1.232  14.630  19.175  0.00  0.00    +0.000 A 
ATOM      7  O   UNL     1       1.525  15.798  18.931  0.00  0.00    +0.000 OA
ATOM      8  C   UNL     1      -1.469  12.278  18.040  0.00  0.00    +0.000 C 
ATOM      9  C   UNL     1      -1.664  10.761  18.082  0.00  0.00    +0.000 C 
ATOM     10  C   UNL     1      -1.380  10.217  19.484  0.00  0.00    +0.000 C 
ATOM     11  C   UNL     1       0.064  10.516  19.925  0.00  0.00    +0.000 C 
ATOM     12  H   UNL     1      -0.368  14.629  17.938  0.00  0.00    +0.000 HD
ENDROOT
BRANCH   1  14
ATOM     13  N   UNL     1       4.146  14.903  20.253  0.00  0.00    +0.000 N 
ATOM     14  C   UNL     1       3.139  14.308  20.946  0.00  0.00    +0.000 C 
ATOM     15  O   UNL     1       3.185  14.225  22.170  0.00  0.00    +0.000 OA
ATOM     16  H   UNL     1       4.928  15.294  20.759  0.00  0.00    +0.000 HD
ATOM     17  H   UNL     1       4.123  14.985  19.239  0.00  0.00    +0.000 HD
ENDBRANCH   1  14
BRANCH  11  18
ATOM     18  N   UNL     1       1.011   9.629  19.263  0.00  0.00    +0.000 N 
ATOM     19  C   UNL     1       1.462   8.474  19.869  0.00  0.00    +0.000 C 
ATOM     20  O   UNL     1       1.133   8.135  21.003  0.00  0.00    +0.000 OA
ATOM     21  H   UNL     1       1.136   9.737  18.265  0.00  0.00    +0.000 HD
BRANCH  19  22
ATOM     22  C   UNL     1       2.348   7.597  19.052  0.00  0.00    +0.000 A 
ATOM     23  C   UNL     1       2.666   6.289  19.437  0.00  0.00    +0.000 A 
ATOM     24  C   UNL     1       3.556   5.525  18.669  0.00  0.00    +0.000 A 
ATOM     25  C   UNL     1       4.128   6.042  17.500  0.00  0.00    +0.000 A 
ATOM     26  C   UNL     1       3.761   7.335  17.097  0.00  0.00    +0.000 A 
ATOM     27  C   UNL     1       2.877   8.105  17.861  0.00  0.00    +0.000 A 
BRANCH  25  28
ATOM     28  C   UNL     1       5.126   5.282  16.738  0.00  0.00    +0.000 C 
ATOM     29  C   UNL     1       4.904   4.145  16.066  0.00  0.00    +0.000 C 
ATOM     30  C   UNL     1       6.127   3.645  15.372  0.00  0.00    +0.000 C 
ATOM     31  C   UNL     1       7.123   4.790  15.541  0.00  0.00    +0.000 C 
ATOM     32  C   UNL     1       6.558   5.711  16.626  0.00  0.00    +0.000 C 
ENDBRANCH  25  28
ENDBRANCH  19  22
ENDBRANCH  11  18
TORSDOF 4
ENDMDL
MODEL 9
REMARK VINA RESULT:      -7.9      4.567     10.324
REMARK  Name = 
REMARK  4 active torsions:
REMARK  status: ('A' for Active; 'I' for Inactive)
REMARK    1  A    between atoms: C_2  and  C_4
REMARK    2  A    between atoms: C_14  and  N_15
REMARK    3  A    between atoms: C_16  and  C_18
REMARK    4  A    between atoms: C_21  and  C_22
REMARK                            x       y       z     vdW  Elec       q    Type
REMARK                         _______ _______ _______ _____ _____    ______ ____
ROOT
ATOM      1  C   UNL     1      -5.275  12.052  19.510  0.00  0.00    +0.000 A 
ATOM      2  C   UNL     1      -3.952  12.301  19.539  0.00  0.00    +0.000 A 
ATOM      3  C   UNL     1      -3.257  12.648  20.774  0.00  0.00    +0.000 A 
ATOM      4  C   UNL     1      -3.963  12.730  21.919  0.00  0.00    +0.000 A 
ATOM      5  N   UNL     1      -5.309  12.451  21.913  0.00  0.00    +0.000 N 
ATOM      6  C   UNL     1      -6.029  12.103  20.797  0.00  0.00    +0.000 A 
ATOM      7  O   UNL     1      -7.231  11.859  20.876  0.00  0.00    +0.000 OA
ATOM      8  C   UNL     1      -3.366  13.135  23.238  0.00  0.00    +0.000 C 
ATOM      9  C   UNL     1      -1.836  13.135  23.228  0.00  0.00    +0.000 C 
ATOM     10  C   UNL     1      -1.304  13.765  21.939  0.00  0.00    +0.000 C 
ATOM     11  C   UNL     1      -1.781  12.995  20.694  0.00  0.00    +0.000 C 
ATOM     12  H   UNL     1      -5.844  12.510  22.770  0.00  0.00    +0.000 HD
ENDROOT
BRANCH   1  14
ATOM     13  N   UNL     1      -6.912  10.841  18.199  0.00  0.00    +0.000 N 
ATOM     14  C   UNL     1      -5.923  11.773  18.198  0.00  0.00    +0.000 C 
ATOM     15  O   UNL     1      -5.606  12.347  17.161  0.00  0.00    +0.000 OA
ATOM     16  H   UNL     1      -7.398  10.638  17.338  0.00  0.00    +0.000 HD
ATOM     17  H   UNL     1      -7.193  10.358  19.051  0.00  0.00    +0.000 HD
ENDBRANCH   1  14
BRANCH  11  18
ATOM     18  N   UNL     1      -1.043  11.750  20.529  0.00  0.00    +0.000 N 
ATOM     19  C   UNL     1      -0.206  11.546  19.450  0.00  0.00    +0.000 C 
ATOM     20  O   UNL     1      -0.055  12.368  18.549  0.00  0.00    +0.000 OA
ATOM     21  H   UNL     1      -0.953  11.147  21.335  0.00  0.00    +0.000 HD
BRANCH  19  22
ATOM     22  C   UNL     1       0.574  10.276  19.444  0.00  0.00    +0.000 A 
ATOM     23  C   UNL     1       1.255   9.822  18.308  0.00  0.00    +0.000 A 
ATOM     24  C   UNL     1       1.920   8.589  18.331  0.00  0.00    +0.000 A 
ATOM     25  C   UNL     1       1.934   7.798  19.487  0.00  0.00    +0.000 A 
ATOM     26  C   UNL     1       1.292   8.288  20.634  0.00  0.00    +0.000 A 
ATOM     27  C   UNL     1       0.621   9.516  20.616  0.00  0.00    +0.000 A 
BRANCH  25  28
ATOM     28  C   UNL     1       2.554   6.467  19.494  0.00  0.00    +0.000 C 
ATOM     29  C   UNL     1       3.684   6.123  18.862  0.00  0.00    +0.000 C 
ATOM     30  C   UNL     1       4.057   4.698  19.098  0.00  0.00    +0.000 C 
ATOM     31  C   UNL     1       3.076   4.249  20.179  0.00  0.00    +0.000 C 
ATOM     32  C   UNL     1       1.967   5.304  20.236  0.00  0.00    +0.000 C 
ENDBRANCH  25  28
ENDBRANCH  19  22
ENDBRANCH  11  18
TORSDOF 4
ENDMDL
