MODEL 1
REMARK VINA RESULT:      -9.0      0.000      0.000
REMARK  Name = 
REMARK  9 active torsions:
REMARK  status: ('A' for Active; 'I' for Inactive)
REMARK    1  A    between atoms: C_1  and  O_2
REMARK    2  A    between atoms: O_2  and  C_3
REMARK    3  A    between atoms: C_6  and  C_7
REMARK    4  A    between atoms: C_10  and  C_11
REMARK    5  A    between atoms: C_11  and  O_12
REMARK    6  A    between atoms: O_12  and  C_13
REMARK    7  A    between atoms: C_18  and  C_19
REMARK    8  A    between atoms: N_21  and  C_22
REMARK    9  A    between atoms: C_22  and  C_23
REMARK                            x       y       z     vdW  Elec       q    Type
REMARK                         _______ _______ _______ _____ _____    ______ ____
ROOT
ATOM      1  C   UNL     1       2.836   4.675  19.073  0.00  0.00    +0.000 A 
ATOM      2  C   UNL     1       1.563   4.273  19.505  0.00  0.00    +0.000 A 
ATOM      3  C   UNL     1       1.094   2.983  19.264  0.00  0.00    +0.000 A 
ATOM      4  C   UNL     1       1.881   2.086  18.557  0.00  0.00    +0.000 A 
ATOM      5  C   UNL     1       3.152   2.467  18.123  0.00  0.00    +0.000 A 
ATOM      6  C   UNL     1       3.656   3.752  18.401  0.00  0.00    +0.000 A 
ENDROOT
BRANCH   6   7
ATOM      7  C   UNL     1       5.056   4.014  17.945  0.00  0.00    +0.000 C 
ATOM      8  O   UNL     1       5.960   4.049  18.765  0.00  0.00    +0.000 OA
ATOM      9  N   UNL     1       5.248   4.284  16.604  0.00  0.00    +0.000 N 
ATOM     10  H   UNL     1       4.504   4.087  15.942  0.00  0.00    +0.000 HD
BRANCH   9  11
ATOM     11  C   UNL     1       6.560   4.621  16.100  0.00  0.00    +0.000 C 
BRANCH  11  12
ATOM     12  C   UNL     1       6.658   4.536  14.595  0.00  0.00    +0.000 A 
ATOM     13  C   UNL     1       7.606   5.297  13.895  0.00  0.00    +0.000 A 
ATOM     14  C   UNL     1       7.781   5.125  12.519  0.00  0.00    +0.000 A 
ATOM     15  C   UNL     1       7.014   4.188  11.830  0.00  0.00    +0.000 A 
ATOM     16  C   UNL     1       6.051   3.445  12.508  0.00  0.00    +0.000 A 
ATOM     17  C   UNL     1       5.871   3.620  13.883  0.00  0.00    +0.000 A 
ENDBRANCH  11  12
ENDBRANCH   9  11
ENDBRANCH   6   7
BRANCH   1  18
ATOM     18  O   UNL     1       3.300   5.951  19.251  0.00  0.00    +0.000 OA
BRANCH  18  19
ATOM     19  C   UNL     1       3.122   6.855  18.155  0.00  0.00    +0.000 C 
BRANCH  19  23
ATOM     20  C   UNL     1       1.042   9.335  19.620  0.00  0.00    +0.000 A 
ATOM     21  N   UNL     1       1.183   9.854  18.387  0.00  0.00    +0.000 NA
ATOM     22  O   UNL     1       2.005   8.946  17.735  0.00  0.00    +0.000 OA
ATOM     23  C   UNL     1       2.275   7.960  18.634  0.00  0.00    +0.000 A 
ATOM     24  N   UNL     1       1.725   8.160  19.810  0.00  0.00    +0.000 NA
BRANCH  20  28
ATOM     25  C   UNL     1      -1.306  11.113  22.699  0.00  0.00    +0.000 A 
ATOM     26  C   UNL     1      -0.597   9.938  22.943  0.00  0.00    +0.000 A 
ATOM     27  C   UNL     1       0.167   9.354  21.934  0.00  0.00    +0.000 A 
ATOM     28  C   UNL     1       0.243   9.946  20.669  0.00  0.00    +0.000 A 
ATOM     29  C   UNL     1      -0.464  11.131  20.428  0.00  0.00    +0.000 A 
ATOM     30  C   UNL     1      -1.238  11.707  21.437  0.00  0.00    +0.000 A 
BRANCH  25  32
ATOM     31  C   UNL     1      -2.799  12.893  23.126  0.00  0.00    +0.000 C 
ATOM     32  O   UNL     1      -2.104  11.748  23.610  0.00  0.00    +0.000 OA
ENDBRANCH  25  32
ENDBRANCH  20  28
ENDBRANCH  19  23
ENDBRANCH  18  19
ENDBRANCH   1  18
TORSDOF 8
ENDMDL
MODEL 2
REMARK VINA RESULT:      -8.5      2.518      4.847
REMARK  Name = 
REMARK  9 active torsions:
REMARK  status: ('A' for Active; 'I' for Inactive)
REMARK    1  A    between atoms: C_1  and  O_2
REMARK    2  A    between atoms: O_2  and  C_3
REMARK    3  A    between atoms: C_6  and  C_7
REMARK    4  A    between atoms: C_10  and  C_11
REMARK    5  A    between atoms: C_11  and  O_12
REMARK    6  A    between atoms: O_12  and  C_13
REMARK    7  A    between atoms: C_18  and  C_19
REMARK    8  A    between atoms: N_21  and  C_22
REMARK    9  A    between atoms: C_22  and  C_23
REMARK                            x       y       z     vdW  Elec       q    Type
REMARK                         _______ _______ _______ _____ _____    ______ ____
ROOT
ATOM      1  C   UNL     1       5.624   6.632  17.413  0.00  0.00    +0.000 A 
ATOM      2  C   UNL     1       6.391   7.806  17.352  0.00  0.00    +0.000 A 
ATOM      3  C   UNL     1       7.686   7.848  17.866  0.00  0.00    +0.000 A 
ATOM      4  C   UNL     1       8.221   6.724  18.477  0.00  0.00    +0.000 A 
ATOM      5  C   UNL     1       7.475   5.546  18.542  0.00  0.00    +0.000 A 
ATOM      6  C   UNL     1       6.183   5.476  17.987  0.00  0.00    +0.000 A 
ENDROOT
BRANCH   6   7
ATOM      7  C   UNL     1       5.514   4.140  18.058  0.00  0.00    +0.000 C 
ATOM      8  O   UNL     1       5.098   3.620  17.035  0.00  0.00    +0.000 OA
ATOM      9  N   UNL     1       5.332   3.587  19.310  0.00  0.00    +0.000 N 
ATOM     10  H   UNL     1       5.832   3.972  20.106  0.00  0.00    +0.000 HD
BRANCH   9  11
ATOM     11  C   UNL     1       4.628   2.334  19.468  0.00  0.00    +0.000 C 
BRANCH  11  12
ATOM     12  C   UNL     1       3.142   2.509  19.676  0.00  0.00    +0.000 A 
ATOM     13  C   UNL     1       2.646   3.081  20.857  0.00  0.00    +0.000 A 
ATOM     14  C   UNL     1       1.283   3.357  20.998  0.00  0.00    +0.000 A 
ATOM     15  C   UNL     1       0.403   3.069  19.956  0.00  0.00    +0.000 A 
ATOM     16  C   UNL     1       0.878   2.476  18.789  0.00  0.00    +0.000 A 
ATOM     17  C   UNL     1       2.240   2.194  18.650  0.00  0.00    +0.000 A 
ENDBRANCH  11  12
ENDBRANCH   9  11
ENDBRANCH   6   7
BRANCH   1  18
ATOM     18  O   UNL     1       4.332   6.578  16.963  0.00  0.00    +0.000 OA
BRANCH  18  19
ATOM     19  C   UNL     1       3.334   6.220  17.927  0.00  0.00    +0.000 C 
BRANCH  19  23
ATOM     20  C   UNL     1       1.492   9.024  19.096  0.00  0.00    +0.000 A 
ATOM     21  N   UNL     1       1.839   9.471  17.876  0.00  0.00    +0.000 NA
ATOM     22  O   UNL     1       2.585   8.432  17.340  0.00  0.00    +0.000 OA
ATOM     23  C   UNL     1       2.611   7.451  18.284  0.00  0.00    +0.000 A 
ATOM     24  N   UNL     1       1.973   7.771  19.387  0.00  0.00    +0.000 NA
BRANCH  20  28
ATOM     25  C   UNL     1      -0.885  11.231  21.859  0.00  0.00    +0.000 A 
ATOM     26  C   UNL     1      -0.047  10.211  22.308  0.00  0.00    +0.000 A 
ATOM     27  C   UNL     1       0.726   9.486  21.403  0.00  0.00    +0.000 A 
ATOM     28  C   UNL     1       0.684   9.781  20.036  0.00  0.00    +0.000 A 
ATOM     29  C   UNL     1      -0.153  10.812  19.588  0.00  0.00    +0.000 A 
ATOM     30  C   UNL     1      -0.936  11.528  20.496  0.00  0.00    +0.000 A 
BRANCH  25  32
ATOM     31  C   UNL     1      -1.168  13.231  23.084  0.00  0.00    +0.000 C 
ATOM     32  O   UNL     1      -1.702  11.981  22.660  0.00  0.00    +0.000 OA
ENDBRANCH  25  32
ENDBRANCH  20  28
ENDBRANCH  19  23
ENDBRANCH  18  19
ENDBRANCH   1  18
TORSDOF 8
ENDMDL
MODEL 3
REMARK VINA RESULT:      -8.4      0.795      1.203
REMARK  Name = 
REMARK  9 active torsions:
REMARK  status: ('A' for Active; 'I' for Inactive)
REMARK    1  A    between atoms: C_1  and  O_2
REMARK    2  A    between atoms: O_2  and  C_3
REMARK    3  A    between atoms: C_6  and  C_7
REMARK    4  A    between atoms: C_10  and  C_11
REMARK    5  A    between atoms: C_11  and  O_12
REMARK    6  A    between atoms: O_12  and  C_13
REMARK    7  A    between atoms: C_18  and  C_19
REMARK    8  A    between atoms: N_21  and  C_22
REMARK    9  A    between atoms: C_22  and  C_23
REMARK                            x       y       z     vdW  Elec       q    Type
REMARK                         _______ _______ _______ _____ _____    ______ ____
ROOT
ATOM      1  C   UNL     1       2.630   5.036  19.749  0.00  0.00    +0.000 A 
ATOM      2  C   UNL     1       1.402   4.678  20.327  0.00  0.00    +0.000 A 
ATOM      3  C   UNL     1       0.971   3.353  20.341  0.00  0.00    +0.000 A 
ATOM      4  C   UNL     1       1.748   2.370  19.747  0.00  0.00    +0.000 A 
ATOM      5  C   UNL     1       2.975   2.706  19.171  0.00  0.00    +0.000 A 
ATOM      6  C   UNL     1       3.444   4.034  19.191  0.00  0.00    +0.000 A 
ENDROOT
BRANCH   6   7
ATOM      7  C   UNL     1       4.802   4.254  18.605  0.00  0.00    +0.000 C 
ATOM      8  O   UNL     1       5.792   3.914  19.235  0.00  0.00    +0.000 OA
ATOM      9  N   UNL     1       4.873   4.911  17.393  0.00  0.00    +0.000 N 
ATOM     10  H   UNL     1       4.031   5.028  16.836  0.00  0.00    +0.000 HD
BRANCH   9  11
ATOM     11  C   UNL     1       6.151   5.227  16.798  0.00  0.00    +0.000 C 
BRANCH  11  12
ATOM     12  C   UNL     1       6.232   4.865  15.334  0.00  0.00    +0.000 A 
ATOM     13  C   UNL     1       7.357   5.213  14.571  0.00  0.00    +0.000 A 
ATOM     14  C   UNL     1       7.487   4.770  13.251  0.00  0.00    +0.000 A 
ATOM     15  C   UNL     1       6.496   3.972  12.683  0.00  0.00    +0.000 A 
ATOM     16  C   UNL     1       5.362   3.642  13.420  0.00  0.00    +0.000 A 
ATOM     17  C   UNL     1       5.228   4.089  14.738  0.00  0.00    +0.000 A 
ENDBRANCH  11  12
ENDBRANCH   9  11
ENDBRANCH   6   7
BRANCH   1  18
ATOM     18  O   UNL     1       3.053   6.336  19.676  0.00  0.00    +0.000 OA
BRANCH  18  19
ATOM     19  C   UNL     1       2.709   7.054  18.486  0.00  0.00    +0.000 C 
BRANCH  19  23
ATOM     20  C   UNL     1       0.854   9.792  19.789  0.00  0.00    +0.000 A 
ATOM     21  N   UNL     1       1.202  10.299  18.593  0.00  0.00    +0.000 NA
ATOM     22  O   UNL     1       1.953   9.290  18.008  0.00  0.00    +0.000 OA
ATOM     23  C   UNL     1       1.980   8.264  18.903  0.00  0.00    +0.000 A 
ATOM     24  N   UNL     1       1.339   8.527  20.018  0.00  0.00    +0.000 NA
BRANCH  20  28
ATOM     25  C   UNL     1      -1.525  11.874  22.644  0.00  0.00    +0.000 A 
ATOM     26  C   UNL     1      -1.294  12.425  21.384  0.00  0.00    +0.000 A 
ATOM     27  C   UNL     1      -0.512  11.745  20.452  0.00  0.00    +0.000 A 
ATOM     28  C   UNL     1       0.041  10.498  20.763  0.00  0.00    +0.000 A 
ATOM     29  C   UNL     1      -0.199   9.943  22.027  0.00  0.00    +0.000 A 
ATOM     30  C   UNL     1      -0.974  10.632  22.963  0.00  0.00    +0.000 A 
BRANCH  25  32
ATOM     31  C   UNL     1      -3.668  12.374  23.504  0.00  0.00    +0.000 C 
ATOM     32  O   UNL     1      -2.253  12.471  23.636  0.00  0.00    +0.000 OA
ENDBRANCH  25  32
ENDBRANCH  20  28
ENDBRANCH  19  23
ENDBRANCH  18  19
ENDBRANCH   1  18
TORSDOF 8
ENDMDL
MODEL 4
REMARK VINA RESULT:      -8.3      1.959      2.822
REMARK  Name = 
REMARK  9 active torsions:
REMARK  status: ('A' for Active; 'I' for Inactive)
REMARK    1  A    between atoms: C_1  and  O_2
REMARK    2  A    between atoms: O_2  and  C_3
REMARK    3  A    between atoms: C_6  and  C_7
REMARK    4  A    between atoms: C_10  and  C_11
REMARK    5  A    between atoms: C_11  and  O_12
REMARK    6  A    between atoms: O_12  and  C_13
REMARK    7  A    between atoms: C_18  and  C_19
REMARK    8  A    between atoms: N_21  and  C_22
REMARK    9  A    between atoms: C_22  and  C_23
REMARK                            x       y       z     vdW  Elec       q    Type
REMARK                         _______ _______ _______ _____ _____    ______ ____
ROOT
ATOM      1  C   UNL     1       2.532   4.931  19.693  0.00  0.00    +0.000 A 
ATOM      2  C   UNL     1       1.225   4.839  20.198  0.00  0.00    +0.000 A 
ATOM      3  C   UNL     1       0.566   3.614  20.275  0.00  0.00    +0.000 A 
ATOM      4  C   UNL     1       1.195   2.466  19.816  0.00  0.00    +0.000 A 
ATOM      5  C   UNL     1       2.495   2.537  19.314  0.00  0.00    +0.000 A 
ATOM      6  C   UNL     1       3.189   3.762  19.275  0.00  0.00    +0.000 A 
ENDROOT
BRANCH   6   7
ATOM      7  C   UNL     1       4.600   3.696  18.782  0.00  0.00    +0.000 C 
ATOM      8  O   UNL     1       5.468   3.229  19.503  0.00  0.00    +0.000 OA
ATOM      9  N   UNL     1       4.867   4.245  17.543  0.00  0.00    +0.000 N 
ATOM     10  H   UNL     1       4.099   4.471  16.919  0.00  0.00    +0.000 HD
BRANCH   9  11
ATOM     11  C   UNL     1       6.218   4.287  17.031  0.00  0.00    +0.000 C 
BRANCH  11  12
ATOM     12  C   UNL     1       6.984   5.512  17.473  0.00  0.00    +0.000 A 
ATOM     13  C   UNL     1       6.863   6.723  16.774  0.00  0.00    +0.000 A 
ATOM     14  C   UNL     1       7.473   7.885  17.255  0.00  0.00    +0.000 A 
ATOM     15  C   UNL     1       8.204   7.850  18.440  0.00  0.00    +0.000 A 
ATOM     16  C   UNL     1       8.354   6.649  19.129  0.00  0.00    +0.000 A 
ATOM     17  C   UNL     1       7.750   5.484  18.646  0.00  0.00    +0.000 A 
ENDBRANCH  11  12
ENDBRANCH   9  11
ENDBRANCH   6   7
BRANCH   1  18
ATOM     18  O   UNL     1       3.181   6.129  19.559  0.00  0.00    +0.000 OA
BRANCH  18  19
ATOM     19  C   UNL     1       3.071   6.777  18.287  0.00  0.00    +0.000 C 
BRANCH  19  23
ATOM     20  C   UNL     1       1.093   9.615  19.097  0.00  0.00    +0.000 A 
ATOM     21  N   UNL     1       1.488   9.958  17.858  0.00  0.00    +0.000 NA
ATOM     22  O   UNL     1       2.290   8.899  17.459  0.00  0.00    +0.000 OA
ATOM     23  C   UNL     1       2.296   8.012  18.492  0.00  0.00    +0.000 A 
ATOM     24  N   UNL     1       1.594   8.411  19.527  0.00  0.00    +0.000 NA
BRANCH  20  28
ATOM     25  C   UNL     1      -1.475  12.011  21.509  0.00  0.00    +0.000 A 
ATOM     26  C   UNL     1      -1.432  12.196  20.127  0.00  0.00    +0.000 A 
ATOM     27  C   UNL     1      -0.588  11.415  19.340  0.00  0.00    +0.000 A 
ATOM     28  C   UNL     1       0.215  10.428  19.921  0.00  0.00    +0.000 A 
ATOM     29  C   UNL     1       0.164  10.239  21.308  0.00  0.00    +0.000 A 
ATOM     30  C   UNL     1      -0.674  11.031  22.097  0.00  0.00    +0.000 A 
BRANCH  25  32
ATOM     31  C   UNL     1      -2.795  12.018  23.468  0.00  0.00    +0.000 C 
ATOM     32  O   UNL     1      -2.247  12.741  22.371  0.00  0.00    +0.000 OA
ENDBRANCH  25  32
ENDBRANCH  20  28
ENDBRANCH  19  23
ENDBRANCH  18  19
ENDBRANCH   1  18
TORSDOF 8
ENDMDL
MODEL 5
REMARK VINA RESULT:      -8.3      2.547      4.933
REMARK  Name = 
REMARK  9 active torsions:
REMARK  status: ('A' for Active; 'I' for Inactive)
REMARK    1  A    between atoms: C_1  and  O_2
REMARK    2  A    between atoms: O_2  and  C_3
REMARK    3  A    between atoms: C_6  and  C_7
REMARK    4  A    between atoms: C_10  and  C_11
REMARK    5  A    between atoms: C_11  and  O_12
REMARK    6  A    between atoms: O_12  and  C_13
REMARK    7  A    between atoms: C_18  and  C_19
REMARK    8  A    between atoms: N_21  and  C_22
REMARK    9  A    between atoms: C_22  and  C_23
REMARK                            x       y       z     vdW  Elec       q    Type
REMARK                         _______ _______ _______ _____ _____    ______ ____
ROOT
ATOM      1  C   UNL     1       5.690   6.702  17.390  0.00  0.00    +0.000 A 
ATOM      2  C   UNL     1       6.461   7.874  17.325  0.00  0.00    +0.000 A 
ATOM      3  C   UNL     1       7.744   7.924  17.868  0.00  0.00    +0.000 A 
ATOM      4  C   UNL     1       8.261   6.811  18.513  0.00  0.00    +0.000 A 
ATOM      5  C   UNL     1       7.512   5.636  18.583  0.00  0.00    +0.000 A 
ATOM      6  C   UNL     1       6.233   5.557  17.998  0.00  0.00    +0.000 A 
ENDROOT
BRANCH   6   7
ATOM      7  C   UNL     1       5.561   4.224  18.078  0.00  0.00    +0.000 C 
ATOM      8  O   UNL     1       5.181   3.678  17.055  0.00  0.00    +0.000 OA
ATOM      9  N   UNL     1       5.332   3.702  19.337  0.00  0.00    +0.000 N 
ATOM     10  H   UNL     1       5.803   4.107  20.140  0.00  0.00    +0.000 HD
BRANCH   9  11
ATOM     11  C   UNL     1       4.621   2.455  19.500  0.00  0.00    +0.000 C 
BRANCH  11  12
ATOM     12  C   UNL     1       3.132   2.637  19.673  0.00  0.00    +0.000 A 
ATOM     13  C   UNL     1       2.253   2.412  18.602  0.00  0.00    +0.000 A 
ATOM     14  C   UNL     1       0.870   2.459  18.794  0.00  0.00    +0.000 A 
ATOM     15  C   UNL     1       0.350   2.726  20.059  0.00  0.00    +0.000 A 
ATOM     16  C   UNL     1       1.210   2.978  21.124  0.00  0.00    +0.000 A 
ATOM     17  C   UNL     1       2.594   2.937  20.932  0.00  0.00    +0.000 A 
ENDBRANCH  11  12
ENDBRANCH   9  11
ENDBRANCH   6   7
BRANCH   1  18
ATOM     18  O   UNL     1       4.409   6.642  16.911  0.00  0.00    +0.000 OA
BRANCH  18  19
ATOM     19  C   UNL     1       3.386   6.321  17.860  0.00  0.00    +0.000 C 
BRANCH  19  23
ATOM     20  C   UNL     1       1.621   9.198  18.968  0.00  0.00    +0.000 A 
ATOM     21  N   UNL     1       1.853   9.550  17.691  0.00  0.00    +0.000 NA
ATOM     22  O   UNL     1       2.562   8.476  17.173  0.00  0.00    +0.000 OA
ATOM     23  C   UNL     1       2.683   7.573  18.184  0.00  0.00    +0.000 A 
ATOM     24  N   UNL     1       2.140   7.974  19.311  0.00  0.00    +0.000 NA
BRANCH  20  28
ATOM     25  C   UNL     1      -0.538  11.604  21.743  0.00  0.00    +0.000 A 
ATOM     26  C   UNL     1      -0.487  10.220  21.902  0.00  0.00    +0.000 A 
ATOM     27  C   UNL     1       0.215   9.433  20.991  0.00  0.00    +0.000 A 
ATOM     28  C   UNL     1       0.888  10.021  19.915  0.00  0.00    +0.000 A 
ATOM     29  C   UNL     1       0.842  11.413  19.762  0.00  0.00    +0.000 A 
ATOM     30  C   UNL     1       0.127  12.198  20.670  0.00  0.00    +0.000 A 
BRANCH  25  32
ATOM     31  C   UNL     1      -2.351  11.905  23.227  0.00  0.00    +0.000 C 
ATOM     32  O   UNL     1      -1.220  12.460  22.564  0.00  0.00    +0.000 OA
ENDBRANCH  25  32
ENDBRANCH  20  28
ENDBRANCH  19  23
ENDBRANCH  18  19
ENDBRANCH   1  18
TORSDOF 8
ENDMDL
MODEL 6
REMARK VINA RESULT:      -8.3      2.229      2.803
REMARK  Name = 
REMARK  9 active torsions:
REMARK  status: ('A' for Active; 'I' for Inactive)
REMARK    1  A    between atoms: C_1  and  O_2
REMARK    2  A    between atoms: O_2  and  C_3
REMARK    3  A    between atoms: C_6  and  C_7
REMARK    4  A    between atoms: C_10  and  C_11
REMARK    5  A    between atoms: C_11  and  O_12
REMARK    6  A    between atoms: O_12  and  C_13
REMARK    7  A    between atoms: C_18  and  C_19
REMARK    8  A    between atoms: N_21  and  C_22
REMARK    9  A    between atoms: C_22  and  C_23
REMARK                            x       y       z     vdW  Elec       q    Type
REMARK                         _______ _______ _______ _____ _____    ______ ____
ROOT
ATOM      1  C   UNL     1       2.367   4.296  18.480  0.00  0.00    +0.000 A 
ATOM      2  C   UNL     1       1.179   3.764  19.006  0.00  0.00    +0.000 A 
ATOM      3  C   UNL     1       0.953   2.389  19.030  0.00  0.00    +0.000 A 
ATOM      4  C   UNL     1       1.900   1.527  18.498  0.00  0.00    +0.000 A 
ATOM      5  C   UNL     1       3.090   2.038  17.974  0.00  0.00    +0.000 A 
ATOM      6  C   UNL     1       3.350   3.421  17.986  0.00  0.00    +0.000 A 
ENDROOT
BRANCH   6   7
ATOM      7  C   UNL     1       4.688   3.837  17.462  0.00  0.00    +0.000 C 
ATOM      8  O   UNL     1       4.886   3.847  16.257  0.00  0.00    +0.000 OA
ATOM      9  N   UNL     1       5.673   4.121  18.387  0.00  0.00    +0.000 N 
ATOM     10  H   UNL     1       5.421   4.256  19.361  0.00  0.00    +0.000 HD
BRANCH   9  11
ATOM     11  C   UNL     1       7.012   4.457  17.960  0.00  0.00    +0.000 C 
BRANCH  11  12
ATOM     12  C   UNL     1       7.303   5.937  18.023  0.00  0.00    +0.000 A 
ATOM     13  C   UNL     1       8.215   6.449  18.958  0.00  0.00    +0.000 A 
ATOM     14  C   UNL     1       8.577   7.799  18.934  0.00  0.00    +0.000 A 
ATOM     15  C   UNL     1       8.035   8.650  17.973  0.00  0.00    +0.000 A 
ATOM     16  C   UNL     1       7.108   8.161  17.056  0.00  0.00    +0.000 A 
ATOM     17  C   UNL     1       6.740   6.812  17.083  0.00  0.00    +0.000 A 
ENDBRANCH  11  12
ENDBRANCH   9  11
ENDBRANCH   6   7
BRANCH   1  18
ATOM     18  O   UNL     1       2.591   5.644  18.397  0.00  0.00    +0.000 OA
BRANCH  18  19
ATOM     19  C   UNL     1       3.004   6.299  19.601  0.00  0.00    +0.000 C 
BRANCH  19  23
ATOM     20  C   UNL     1       0.931   9.100  20.296  0.00  0.00    +0.000 A 
ATOM     21  N   UNL     1       1.188   9.322  18.995  0.00  0.00    +0.000 NA
ATOM     22  O   UNL     1       2.015   8.270  18.633  0.00  0.00    +0.000 OA
ATOM     23  C   UNL     1       2.173   7.506  19.749  0.00  0.00    +0.000 A 
ATOM     24  N   UNL     1       1.546   7.980  20.800  0.00  0.00    +0.000 NA
BRANCH  20  28
ATOM     25  C   UNL     1      -1.561  11.590  22.693  0.00  0.00    +0.000 A 
ATOM     26  C   UNL     1      -0.997  10.432  23.229  0.00  0.00    +0.000 A 
ATOM     27  C   UNL     1      -0.186   9.616  22.443  0.00  0.00    +0.000 A 
ATOM     28  C   UNL     1       0.084   9.953  21.112  0.00  0.00    +0.000 A 
ATOM     29  C   UNL     1      -0.477  11.120  20.578  0.00  0.00    +0.000 A 
ATOM     30  C   UNL     1      -1.300  11.930  21.364  0.00  0.00    +0.000 A 
BRANCH  25  32
ATOM     31  C   UNL     1      -2.707  13.655  22.697  0.00  0.00    +0.000 C 
ATOM     32  O   UNL     1      -2.390  12.441  23.370  0.00  0.00    +0.000 OA
ENDBRANCH  25  32
ENDBRANCH  20  28
ENDBRANCH  19  23
ENDBRANCH  18  19
ENDBRANCH   1  18
TORSDOF 8
ENDMDL
MODEL 7
REMARK VINA RESULT:      -8.2      2.013      2.575
REMARK  Name = 
REMARK  9 active torsions:
REMARK  status: ('A' for Active; 'I' for Inactive)
REMARK    1  A    between atoms: C_1  and  O_2
REMARK    2  A    between atoms: O_2  and  C_3
REMARK    3  A    between atoms: C_6  and  C_7
REMARK    4  A    between atoms: C_10  and  C_11
REMARK    5  A    between atoms: C_11  and  O_12
REMARK    6  A    between atoms: O_12  and  C_13
REMARK    7  A    between atoms: C_18  and  C_19
REMARK    8  A    between atoms: N_21  and  C_22
REMARK    9  A    between atoms: C_22  and  C_23
REMARK                            x       y       z     vdW  Elec       q    Type
REMARK                         _______ _______ _______ _____ _____    ______ ____
ROOT
ATOM      1  C   UNL     1       2.655   4.545  19.090  0.00  0.00    +0.000 A 
ATOM      2  C   UNL     1       1.405   4.038  19.479  0.00  0.00    +0.000 A 
ATOM      3  C   UNL     1       1.041   2.723  19.197  0.00  0.00    +0.000 A 
ATOM      4  C   UNL     1       1.912   1.905  18.493  0.00  0.00    +0.000 A 
ATOM      5  C   UNL     1       3.161   2.389  18.103  0.00  0.00    +0.000 A 
ATOM      6  C   UNL     1       3.559   3.702  18.421  0.00  0.00    +0.000 A 
ENDROOT
BRANCH   6   7
ATOM      7  C   UNL     1       4.947   4.079  18.010  0.00  0.00    +0.000 C 
ATOM      8  O   UNL     1       5.811   4.216  18.861  0.00  0.00    +0.000 OA
ATOM      9  N   UNL     1       5.166   4.333  16.670  0.00  0.00    +0.000 N 
ATOM     10  H   UNL     1       4.469   4.053  15.987  0.00  0.00    +0.000 HD
BRANCH   9  11
ATOM     11  C   UNL     1       6.461   4.775  16.205  0.00  0.00    +0.000 C 
BRANCH  11  12
ATOM     12  C   UNL     1       6.682   4.522  14.733  0.00  0.00    +0.000 A 
ATOM     13  C   UNL     1       5.885   3.601  14.036  0.00  0.00    +0.000 A 
ATOM     14  C   UNL     1       6.006   3.458  12.651  0.00  0.00    +0.000 A 
ATOM     15  C   UNL     1       6.922   4.238  11.947  0.00  0.00    +0.000 A 
ATOM     16  C   UNL     1       7.738   5.136  12.630  0.00  0.00    +0.000 A 
ATOM     17  C   UNL     1       7.622   5.276  14.016  0.00  0.00    +0.000 A 
ENDBRANCH  11  12
ENDBRANCH   9  11
ENDBRANCH   6   7
BRANCH   1  18
ATOM     18  O   UNL     1       3.017   5.848  19.308  0.00  0.00    +0.000 OA
BRANCH  18  19
ATOM     19  C   UNL     1       2.868   6.746  18.203  0.00  0.00    +0.000 C 
BRANCH  19  23
ATOM     20  C   UNL     1       1.354   9.827  19.121  0.00  0.00    +0.000 A 
ATOM     21  N   UNL     1       1.137   9.121  20.246  0.00  0.00    +0.000 NA
ATOM     22  O   UNL     1       1.691   7.879  19.972  0.00  0.00    +0.000 OA
ATOM     23  C   UNL     1       2.198   7.955  18.711  0.00  0.00    +0.000 A 
ATOM     24  N   UNL     1       2.002   9.120  18.138  0.00  0.00    +0.000 NA
BRANCH  20  28
ATOM     25  C   UNL     1       0.181  13.890  18.606  0.00  0.00    +0.000 A 
ATOM     26  C   UNL     1       1.511  13.513  18.425  0.00  0.00    +0.000 A 
ATOM     27  C   UNL     1       1.895  12.184  18.599  0.00  0.00    +0.000 A 
ATOM     28  C   UNL     1       0.951  11.211  18.943  0.00  0.00    +0.000 A 
ATOM     29  C   UNL     1      -0.386  11.591  19.116  0.00  0.00    +0.000 A 
ATOM     30  C   UNL     1      -0.767  12.925  18.954  0.00  0.00    +0.000 A 
BRANCH  25  32
ATOM     31  C   UNL     1      -0.721  15.780  19.699  0.00  0.00    +0.000 C 
ATOM     32  O   UNL     1      -0.292  15.168  18.487  0.00  0.00    +0.000 OA
ENDBRANCH  25  32
ENDBRANCH  20  28
ENDBRANCH  19  23
ENDBRANCH  18  19
ENDBRANCH   1  18
TORSDOF 8
ENDMDL
MODEL 8
REMARK VINA RESULT:      -8.2      2.508      4.870
REMARK  Name = 
REMARK  9 active torsions:
REMARK  status: ('A' for Active; 'I' for Inactive)
REMARK    1  A    between atoms: C_1  and  O_2
REMARK    2  A    between atoms: O_2  and  C_3
REMARK    3  A    between atoms: C_6  and  C_7
REMARK    4  A    between atoms: C_10  and  C_11
REMARK    5  A    between atoms: C_11  and  O_12
REMARK    6  A    between atoms: O_12  and  C_13
REMARK    7  A    between atoms: C_18  and  C_19
REMARK    8  A    between atoms: N_21  and  C_22
REMARK    9  A    between atoms: C_22  and  C_23
REMARK                            x       y       z     vdW  Elec       q    Type
REMARK                         _______ _______ _______ _____ _____    ______ ____
ROOT
ATOM      1  C   UNL     1       5.121   6.564  17.673  0.00  0.00    +0.000 A 
ATOM      2  C   UNL     1       5.820   7.755  17.423  0.00  0.00    +0.000 A 
ATOM      3  C   UNL     1       7.213   7.781  17.391  0.00  0.00    +0.000 A 
ATOM      4  C   UNL     1       7.928   6.619  17.642  0.00  0.00    +0.000 A 
ATOM      5  C   UNL     1       7.250   5.424  17.887  0.00  0.00    +0.000 A 
ATOM      6  C   UNL     1       5.843   5.375  17.876  0.00  0.00    +0.000 A 
ENDROOT
BRANCH   6   7
ATOM      7  C   UNL     1       5.236   4.023  18.083  0.00  0.00    +0.000 C 
ATOM      8  O   UNL     1       4.731   3.439  17.138  0.00  0.00    +0.000 OA
ATOM      9  N   UNL     1       5.211   3.528  19.372  0.00  0.00    +0.000 N 
ATOM     10  H   UNL     1       5.780   3.968  20.089  0.00  0.00    +0.000 HD
BRANCH   9  11
ATOM     11  C   UNL     1       4.576   2.264  19.664  0.00  0.00    +0.000 C 
BRANCH  11  12
ATOM     12  C   UNL     1       3.078   2.374  19.827  0.00  0.00    +0.000 A 
ATOM     13  C   UNL     1       2.522   2.907  20.999  0.00  0.00    +0.000 A 
ATOM     14  C   UNL     1       1.145   3.125  21.100  0.00  0.00    +0.000 A 
ATOM     15  C   UNL     1       0.311   2.816  20.027  0.00  0.00    +0.000 A 
ATOM     16  C   UNL     1       0.846   2.261  18.868  0.00  0.00    +0.000 A 
ATOM     17  C   UNL     1       2.222   2.038  18.768  0.00  0.00    +0.000 A 
ENDBRANCH  11  12
ENDBRANCH   9  11
ENDBRANCH   6   7
BRANCH   1  18
ATOM     18  O   UNL     1       3.756   6.522  17.761  0.00  0.00    +0.000 OA
BRANCH  18  19
ATOM     19  C   UNL     1       3.063   7.756  17.542  0.00  0.00    +0.000 C 
BRANCH  19  23
ATOM     20  C   UNL     1       1.126   8.776  20.341  0.00  0.00    +0.000 A 
ATOM     21  N   UNL     1       1.555   7.580  20.784  0.00  0.00    +0.000 NA
ATOM     22  O   UNL     1       2.320   7.092  19.735  0.00  0.00    +0.000 OA
ATOM     23  C   UNL     1       2.288   8.044  18.761  0.00  0.00    +0.000 A 
ATOM     24  N   UNL     1       1.555   9.087  19.074  0.00  0.00    +0.000 NA
BRANCH  20  28
ATOM     25  C   UNL     1      -1.346  11.395  22.618  0.00  0.00    +0.000 A 
ATOM     26  C   UNL     1      -0.832  10.234  23.194  0.00  0.00    +0.000 A 
ATOM     27  C   UNL     1      -0.028   9.375  22.447  0.00  0.00    +0.000 A 
ATOM     28  C   UNL     1       0.286   9.673  21.117  0.00  0.00    +0.000 A 
ATOM     29  C   UNL     1      -0.225  10.845  20.543  0.00  0.00    +0.000 A 
ATOM     30  C   UNL     1      -1.040  11.698  21.290  0.00  0.00    +0.000 A 
BRANCH  25  32
ATOM     31  C   UNL     1      -1.599  13.570  23.505  0.00  0.00    +0.000 C 
ATOM     32  O   UNL     1      -2.164  12.287  23.256  0.00  0.00    +0.000 OA
ENDBRANCH  25  32
ENDBRANCH  20  28
ENDBRANCH  19  23
ENDBRANCH  18  19
ENDBRANCH   1  18
TORSDOF 8
ENDMDL
MODEL 9
REMARK VINA RESULT:      -8.2      1.631      1.891
REMARK  Name = 
REMARK  9 active torsions:
REMARK  status: ('A' for Active; 'I' for Inactive)
REMARK    1  A    between atoms: C_1  and  O_2
REMARK    2  A    between atoms: O_2  and  C_3
REMARK    3  A    between atoms: C_6  and  C_7
REMARK    4  A    between atoms: C_10  and  C_11
REMARK    5  A    between atoms: C_11  and  O_12
REMARK    6  A    between atoms: O_12  and  C_13
REMARK    7  A    between atoms: C_18  and  C_19
REMARK    8  A    between atoms: N_21  and  C_22
REMARK    9  A    between atoms: C_22  and  C_23
REMARK                            x       y       z     vdW  Elec       q    Type
REMARK                         _______ _______ _______ _____ _____    ______ ____
ROOT
ATOM      1  C   UNL     1       2.415   4.457  18.227  0.00  0.00    +0.000 A 
ATOM      2  C   UNL     1       1.265   3.881  18.789  0.00  0.00    +0.000 A 
ATOM      3  C   UNL     1       1.199   2.515  19.055  0.00  0.00    +0.000 A 
ATOM      4  C   UNL     1       2.273   1.699  18.732  0.00  0.00    +0.000 A 
ATOM      5  C   UNL     1       3.427   2.255  18.177  0.00  0.00    +0.000 A 
ATOM      6  C   UNL     1       3.524   3.640  17.946  0.00  0.00    +0.000 A 
ENDROOT
BRANCH   6   7
ATOM      7  C   UNL     1       4.837   4.122  17.414  0.00  0.00    +0.000 C 
ATOM      8  O   UNL     1       5.868   3.823  17.995  0.00  0.00    +0.000 OA
ATOM      9  N   UNL     1       4.809   4.959  16.316  0.00  0.00    +0.000 N 
ATOM     10  H   UNL     1       3.954   5.048  15.775  0.00  0.00    +0.000 HD
BRANCH   9  11
ATOM     11  C   UNL     1       6.029   5.526  15.790  0.00  0.00    +0.000 C 
BRANCH  11  12
ATOM     12  C   UNL     1       6.444   4.922  14.469  0.00  0.00    +0.000 A 
ATOM     13  C   UNL     1       5.671   3.919  13.865  0.00  0.00    +0.000 A 
ATOM     14  C   UNL     1       5.986   3.450  12.587  0.00  0.00    +0.000 A 
ATOM     15  C   UNL     1       7.074   3.981  11.897  0.00  0.00    +0.000 A 
ATOM     16  C   UNL     1       7.866   4.957  12.496  0.00  0.00    +0.000 A 
ATOM     17  C   UNL     1       7.556   5.424  13.776  0.00  0.00    +0.000 A 
ENDBRANCH  11  12
ENDBRANCH   9  11
ENDBRANCH   6   7
BRANCH   1  18
ATOM     18  O   UNL     1       2.486   5.787  17.908  0.00  0.00    +0.000 OA
BRANCH  18  19
ATOM     19  C   UNL     1       2.931   6.670  18.943  0.00  0.00    +0.000 C 
BRANCH  19  23
ATOM     20  C   UNL     1       1.258   9.791  18.650  0.00  0.00    +0.000 A 
ATOM     21  N   UNL     1       1.911   9.770  17.474  0.00  0.00    +0.000 NA
ATOM     22  O   UNL     1       2.614   8.575  17.505  0.00  0.00    +0.000 OA
ATOM     23  C   UNL     1       2.312   7.983  18.693  0.00  0.00    +0.000 A 
ATOM     24  N   UNL     1       1.501   8.695  19.441  0.00  0.00    +0.000 NA
BRANCH  20  28
ATOM     25  C   UNL     1      -1.349  12.938  19.857  0.00  0.00    +0.000 A 
ATOM     26  C   UNL     1      -1.870  11.724  19.408  0.00  0.00    +0.000 A 
ATOM     27  C   UNL     1      -1.016  10.698  19.009  0.00  0.00    +0.000 A 
ATOM     28  C   UNL     1       0.372  10.864  19.065  0.00  0.00    +0.000 A 
ATOM     29  C   UNL     1       0.893  12.081  19.524  0.00  0.00    +0.000 A 
ATOM     30  C   UNL     1       0.035  13.113  19.913  0.00  0.00    +0.000 A 
BRANCH  25  32
ATOM     31  C   UNL     1      -3.204  13.721  21.092  0.00  0.00    +0.000 C 
ATOM     32  O   UNL     1      -2.098  14.014  20.244  0.00  0.00    +0.000 OA
ENDBRANCH  25  32
ENDBRANCH  20  28
ENDBRANCH  19  23
ENDBRANCH  18  19
ENDBRANCH   1  18
TORSDOF 8
ENDMDL
