MODEL 1
REMARK VINA RESULT:      -9.2      0.000      0.000
REMARK  Name = 
REMARK  4 active torsions:
REMARK  status: ('A' for Active; 'I' for Inactive)
REMARK    1  A    between atoms: C_2  and  O_3
REMARK    2  A    between atoms: C_2  and  C_4
REMARK    3  A    between atoms: C_7  and  N_8
REMARK    4  A    between atoms: C_9  and  C_11
REMARK                            x       y       z     vdW  Elec       q    Type
REMARK                         _______ _______ _______ _____ _____    ______ ____
ROOT
ATOM      1  N   UNL     1       2.196   7.553  20.485  0.00  0.00    +0.000 N 
ATOM      2  C   UNL     1       2.575   7.010  19.269  0.00  0.00    +0.000 C 
ATOM      3  O   UNL     1       2.104   7.408  18.196  0.00  0.00    +0.000 OA
ATOM      4  H   UNL     1       2.567   7.136  21.325  0.00  0.00    +0.000 HD
ENDROOT
BRANCH   2   5
ATOM      5  C   UNL     1       3.596   5.863  19.200  0.00  0.00    +0.000 C 
ATOM      6  C   UNL     1       4.727   5.783  18.152  0.00  0.00    +0.000 A 
ATOM      7  C   UNL     1       4.740   6.112  16.801  0.00  0.00    +0.000 A 
ATOM      8  C   UNL     1       5.843   5.740  15.996  0.00  0.00    +0.000 A 
ATOM      9  C   UNL     1       6.961   5.090  16.534  0.00  0.00    +0.000 A 
ATOM     10  C   UNL     1       6.904   4.632  17.834  0.00  0.00    +0.000 A 
ATOM     11  C   UNL     1       5.703   4.824  18.503  0.00  0.00    +0.000 A 
ATOM     12  O   UNL     1       5.224   3.647  19.106  0.00  0.00    +0.000 OA
ATOM     13  C   UNL     1       3.872   3.445  18.873  0.00  0.00    +0.000 A 
ATOM     14  C   UNL     1       3.408   2.341  18.177  0.00  0.00    +0.000 A 
ATOM     15  C   UNL     1       2.031   2.134  18.091  0.00  0.00    +0.000 A 
ATOM     16  C   UNL     1       1.157   2.974  18.786  0.00  0.00    +0.000 A 
ATOM     17  C   UNL     1       1.630   4.157  19.349  0.00  0.00    +0.000 A 
ATOM     18  C   UNL     1       2.981   4.464  19.228  0.00  0.00    +0.000 A 
ENDBRANCH   2   5
BRANCH   1  22
ATOM     19  C   UNL     1      -0.571  10.716  21.152  0.00  0.00    +0.000 A 
ATOM     20  C   UNL     1       0.000  10.559  19.895  0.00  0.00    +0.000 A 
ATOM     21  C   UNL     1       0.918   9.532  19.666  0.00  0.00    +0.000 A 
ATOM     22  C   UNL     1       1.279   8.630  20.675  0.00  0.00    +0.000 A 
ATOM     23  C   UNL     1       0.692   8.792  21.940  0.00  0.00    +0.000 A 
ATOM     24  C   UNL     1      -0.231   9.828  22.183  0.00  0.00    +0.000 A 
BRANCH  19  26
ATOM     25  O   UNL     1      -1.849  12.595  20.444  0.00  0.00    +0.000 OA
ATOM     26  C   UNL     1      -1.564  11.807  21.322  0.00  0.00    +0.000 C 
BRANCH  26  27
ATOM     27  O   UNL     1      -2.079  11.841  22.560  0.00  0.00    +0.000 OA
ATOM     28  H   UNL     1      -2.393  12.719  22.870  0.00  0.00    +0.000 HD
ENDBRANCH  26  27
ENDBRANCH  19  26
ENDBRANCH   1  22
TORSDOF 4
ENDMDL
MODEL 2
REMARK VINA RESULT:      -9.1      0.261      1.142
REMARK  Name = 
REMARK  4 active torsions:
REMARK  status: ('A' for Active; 'I' for Inactive)
REMARK    1  A    between atoms: C_2  and  O_3
REMARK    2  A    between atoms: C_2  and  C_4
REMARK    3  A    between atoms: C_7  and  N_8
REMARK    4  A    between atoms: C_9  and  C_11
REMARK                            x       y       z     vdW  Elec       q    Type
REMARK                         _______ _______ _______ _____ _____    ______ ____
ROOT
ATOM      1  N   UNL     1       2.194   7.523  20.404  0.00  0.00    +0.000 N 
ATOM      2  C   UNL     1       2.567   6.948  19.201  0.00  0.00    +0.000 C 
ATOM      3  O   UNL     1       2.069   7.299  18.122  0.00  0.00    +0.000 OA
ATOM      4  H   UNL     1       2.588   7.143  21.251  0.00  0.00    +0.000 HD
ENDROOT
BRANCH   2   5
ATOM      5  C   UNL     1       3.614   5.824  19.153  0.00  0.00    +0.000 C 
ATOM      6  C   UNL     1       4.763   5.765  18.124  0.00  0.00    +0.000 A 
ATOM      7  C   UNL     1       4.791   6.089  16.772  0.00  0.00    +0.000 A 
ATOM      8  C   UNL     1       5.914   5.738  15.985  0.00  0.00    +0.000 A 
ATOM      9  C   UNL     1       7.038   5.116  16.544  0.00  0.00    +0.000 A 
ATOM     10  C   UNL     1       6.971   4.662  17.845  0.00  0.00    +0.000 A 
ATOM     11  C   UNL     1       5.755   4.830  18.494  0.00  0.00    +0.000 A 
ATOM     12  O   UNL     1       5.293   3.645  19.095  0.00  0.00    +0.000 OA
ATOM     13  C   UNL     1       3.950   3.412  18.842  0.00  0.00    +0.000 A 
ATOM     14  C   UNL     1       3.521   2.294  18.143  0.00  0.00    +0.000 A 
ATOM     15  C   UNL     1       2.151   2.057  18.036  0.00  0.00    +0.000 A 
ATOM     16  C   UNL     1       1.247   2.879  18.714  0.00  0.00    +0.000 A 
ATOM     17  C   UNL     1       1.685   4.074  19.278  0.00  0.00    +0.000 A 
ATOM     18  C   UNL     1       3.030   4.412  19.178  0.00  0.00    +0.000 A 
ENDBRANCH   2   5
BRANCH   1  22
ATOM     19  C   UNL     1      -0.565  10.735  20.814  0.00  0.00    +0.000 A 
ATOM     20  C   UNL     1      -0.402   9.835  21.860  0.00  0.00    +0.000 A 
ATOM     21  C   UNL     1       0.492   8.770  21.734  0.00  0.00    +0.000 A 
ATOM     22  C   UNL     1       1.254   8.583  20.573  0.00  0.00    +0.000 A 
ATOM     23  C   UNL     1       1.086   9.501  19.524  0.00  0.00    +0.000 A 
ATOM     24  C   UNL     1       0.182  10.575  19.639  0.00  0.00    +0.000 A 
BRANCH  19  26
ATOM     25  O   UNL     1      -1.759  12.333  22.114  0.00  0.00    +0.000 OA
ATOM     26  C   UNL     1      -1.507  11.864  21.023  0.00  0.00    +0.000 C 
BRANCH  26  27
ATOM     27  O   UNL     1      -2.071  12.278  19.878  0.00  0.00    +0.000 OA
ATOM     28  H   UNL     1      -2.019  11.650  19.124  0.00  0.00    +0.000 HD
ENDBRANCH  26  27
ENDBRANCH  19  26
ENDBRANCH   1  22
TORSDOF 4
ENDMDL
MODEL 3
REMARK VINA RESULT:      -9.0      0.771      1.107
REMARK  Name = 
REMARK  4 active torsions:
REMARK  status: ('A' for Active; 'I' for Inactive)
REMARK    1  A    between atoms: C_2  and  O_3
REMARK    2  A    between atoms: C_2  and  C_4
REMARK    3  A    between atoms: C_7  and  N_8
REMARK    4  A    between atoms: C_9  and  C_11
REMARK                            x       y       z     vdW  Elec       q    Type
REMARK                         _______ _______ _______ _____ _____    ______ ____
ROOT
ATOM      1  N   UNL     1       2.215   7.847  19.811  0.00  0.00    +0.000 N 
ATOM      2  C   UNL     1       2.574   7.026  18.756  0.00  0.00    +0.000 C 
ATOM      3  O   UNL     1       2.044   7.120  17.641  0.00  0.00    +0.000 OA
ATOM      4  H   UNL     1       2.636   7.672  20.711  0.00  0.00    +0.000 HD
ENDROOT
BRANCH   2   5
ATOM      5  C   UNL     1       3.645   5.937  18.931  0.00  0.00    +0.000 C 
ATOM      6  C   UNL     1       4.801   5.705  17.934  0.00  0.00    +0.000 A 
ATOM      7  C   UNL     1       4.829   5.758  16.545  0.00  0.00    +0.000 A 
ATOM      8  C   UNL     1       5.964   5.285  15.844  0.00  0.00    +0.000 A 
ATOM      9  C   UNL     1       7.098   4.809  16.515  0.00  0.00    +0.000 A 
ATOM     10  C   UNL     1       7.033   4.617  17.879  0.00  0.00    +0.000 A 
ATOM     11  C   UNL     1       5.811   4.882  18.482  0.00  0.00    +0.000 A 
ATOM     12  O   UNL     1       5.370   3.827  19.301  0.00  0.00    +0.000 OA
ATOM     13  C   UNL     1       4.034   3.519  19.097  0.00  0.00    +0.000 A 
ATOM     14  C   UNL     1       3.634   2.277  18.630  0.00  0.00    +0.000 A 
ATOM     15  C   UNL     1       2.270   1.993  18.569  0.00  0.00    +0.000 A 
ATOM     16  C   UNL     1       1.344   2.912  19.072  0.00  0.00    +0.000 A 
ATOM     17  C   UNL     1       1.753   4.204  19.393  0.00  0.00    +0.000 A 
ATOM     18  C   UNL     1       3.091   4.545  19.230  0.00  0.00    +0.000 A 
ENDBRANCH   2   5
BRANCH   1  22
ATOM     19  C   UNL     1      -0.695  10.951  19.776  0.00  0.00    +0.000 A 
ATOM     20  C   UNL     1       0.074  10.721  18.642  0.00  0.00    +0.000 A 
ATOM     21  C   UNL     1       1.041   9.712  18.644  0.00  0.00    +0.000 A 
ATOM     22  C   UNL     1       1.255   8.902  19.767  0.00  0.00    +0.000 A 
ATOM     23  C   UNL     1       0.468   9.138  20.905  0.00  0.00    +0.000 A 
ATOM     24  C   UNL     1      -0.505  10.157  20.915  0.00  0.00    +0.000 A 
BRANCH  19  26
ATOM     25  O   UNL     1      -2.407  12.359  20.643  0.00  0.00    +0.000 OA
ATOM     26  C   UNL     1      -1.727  12.016  19.698  0.00  0.00    +0.000 C 
BRANCH  26  27
ATOM     27  O   UNL     1      -1.844  12.525  18.462  0.00  0.00    +0.000 OA
ATOM     28  H   UNL     1      -1.295  13.318  18.272  0.00  0.00    +0.000 HD
ENDBRANCH  26  27
ENDBRANCH  19  26
ENDBRANCH   1  22
TORSDOF 4
ENDMDL
MODEL 4
REMARK VINA RESULT:      -9.0      1.080      1.688
REMARK  Name = 
REMARK  4 active torsions:
REMARK  status: ('A' for Active; 'I' for Inactive)
REMARK    1  A    between atoms: C_2  and  O_3
REMARK    2  A    between atoms: C_2  and  C_4
REMARK    3  A    between atoms: C_7  and  N_8
REMARK    4  A    between atoms: C_9  and  C_11
REMARK                            x       y       z     vdW  Elec       q    Type
REMARK                         _______ _______ _______ _____ _____    ______ ____
ROOT
ATOM      1  N   UNL     1       2.299   7.862  19.120  0.00  0.00    +0.000 N 
ATOM      2  C   UNL     1       2.378   6.691  19.855  0.00  0.00    +0.000 C 
ATOM      3  O   UNL     1       1.561   6.417  20.743  0.00  0.00    +0.000 OA
ATOM      4  H   UNL     1       3.036   8.056  18.459  0.00  0.00    +0.000 HD
ENDROOT
BRANCH   2   5
ATOM      5  C   UNL     1       3.508   5.678  19.608  0.00  0.00    +0.000 C 
ATOM      6  C   UNL     1       4.660   5.906  18.607  0.00  0.00    +0.000 A 
ATOM      7  C   UNL     1       4.667   6.488  17.344  0.00  0.00    +0.000 A 
ATOM      8  C   UNL     1       5.816   6.381  16.524  0.00  0.00    +0.000 A 
ATOM      9  C   UNL     1       6.982   5.747  16.971  0.00  0.00    +0.000 A 
ATOM     10  C   UNL     1       6.946   5.045  18.158  0.00  0.00    +0.000 A 
ATOM     11  C   UNL     1       5.720   4.993  18.806  0.00  0.00    +0.000 A 
ATOM     12  O   UNL     1       5.347   3.683  19.157  0.00  0.00    +0.000 OA
ATOM     13  C   UNL     1       4.026   3.404  18.841  0.00  0.00    +0.000 A 
ATOM     14  C   UNL     1       3.686   2.416  17.931  0.00  0.00    +0.000 A 
ATOM     15  C   UNL     1       2.338   2.103  17.756  0.00  0.00    +0.000 A 
ATOM     16  C   UNL     1       1.372   2.708  18.565  0.00  0.00    +0.000 A 
ATOM     17  C   UNL     1       1.716   3.800  19.358  0.00  0.00    +0.000 A 
ATOM     18  C   UNL     1       3.033   4.249  19.348  0.00  0.00    +0.000 A 
ENDBRANCH   2   5
BRANCH   1  22
ATOM     19  C   UNL     1      -0.701  10.868  19.368  0.00  0.00    +0.000 A 
ATOM     20  C   UNL     1      -0.112  10.392  20.532  0.00  0.00    +0.000 A 
ATOM     21  C   UNL     1       0.867   9.397  20.466  0.00  0.00    +0.000 A 
ATOM     22  C   UNL     1       1.290   8.864  19.241  0.00  0.00    +0.000 A 
ATOM     23  C   UNL     1       0.693   9.356  18.070  0.00  0.00    +0.000 A 
ATOM     24  C   UNL     1      -0.299  10.355  18.127  0.00  0.00    +0.000 A 
BRANCH  19  26
ATOM     25  O   UNL     1      -2.247  12.235  20.555  0.00  0.00    +0.000 OA
ATOM     26  C   UNL     1      -1.711  11.948  19.505  0.00  0.00    +0.000 C 
BRANCH  26  27
ATOM     27  O   UNL     1      -1.986  12.542  18.333  0.00  0.00    +0.000 OA
ATOM     28  H   UNL     1      -1.282  12.486  17.649  0.00  0.00    +0.000 HD
ENDBRANCH  26  27
ENDBRANCH  19  26
ENDBRANCH   1  22
TORSDOF 4
ENDMDL
MODEL 5
REMARK VINA RESULT:      -8.9      2.229      3.998
REMARK  Name = 
REMARK  4 active torsions:
REMARK  status: ('A' for Active; 'I' for Inactive)
REMARK    1  A    between atoms: C_2  and  O_3
REMARK    2  A    between atoms: C_2  and  C_4
REMARK    3  A    between atoms: C_7  and  N_8
REMARK    4  A    between atoms: C_9  and  C_11
REMARK                            x       y       z     vdW  Elec       q    Type
REMARK                         _______ _______ _______ _____ _____    ______ ____
ROOT
ATOM      1  N   UNL     1       1.624   8.608  17.760  0.00  0.00    +0.000 N 
ATOM      2  C   UNL     1       2.067   7.615  18.618  0.00  0.00    +0.000 C 
ATOM      3  O   UNL     1       2.311   7.838  19.811  0.00  0.00    +0.000 OA
ATOM      4  H   UNL     1       1.511   8.375  16.786  0.00  0.00    +0.000 HD
ENDROOT
BRANCH   2   5
ATOM      5  C   UNL     1       2.294   6.181  18.115  0.00  0.00    +0.000 C 
ATOM      6  C   UNL     1       1.926   4.920  18.927  0.00  0.00    +0.000 A 
ATOM      7  C   UNL     1       2.034   4.649  20.286  0.00  0.00    +0.000 A 
ATOM      8  C   UNL     1       1.836   3.330  20.761  0.00  0.00    +0.000 A 
ATOM      9  C   UNL     1       1.475   2.285  19.900  0.00  0.00    +0.000 A 
ATOM     10  C   UNL     1       1.503   2.504  18.539  0.00  0.00    +0.000 A 
ATOM     11  C   UNL     1       1.931   3.757  18.124  0.00  0.00    +0.000 A 
ATOM     12  O   UNL     1       2.936   3.689  17.142  0.00  0.00    +0.000 OA
ATOM     13  C   UNL     1       3.989   4.555  17.400  0.00  0.00    +0.000 A 
ATOM     14  C   UNL     1       5.275   4.093  17.626  0.00  0.00    +0.000 A 
ATOM     15  C   UNL     1       6.307   5.023  17.751  0.00  0.00    +0.000 A 
ATOM     16  C   UNL     1       6.049   6.381  17.545  0.00  0.00    +0.000 A 
ATOM     17  C   UNL     1       4.735   6.834  17.472  0.00  0.00    +0.000 A 
ATOM     18  C   UNL     1       3.699   5.912  17.578  0.00  0.00    +0.000 A 
ENDBRANCH   2   5
BRANCH   1  22
ATOM     19  C   UNL     1       0.715  12.631  18.805  0.00  0.00    +0.000 A 
ATOM     20  C   UNL     1       2.010  12.297  18.430  0.00  0.00    +0.000 A 
ATOM     21  C   UNL     1       2.325  10.979  18.095  0.00  0.00    +0.000 A 
ATOM     22  C   UNL     1       1.357   9.965  18.112  0.00  0.00    +0.000 A 
ATOM     23  C   UNL     1       0.050  10.313  18.487  0.00  0.00    +0.000 A 
ATOM     24  C   UNL     1      -0.276  11.639  18.832  0.00  0.00    +0.000 A 
BRANCH  19  26
ATOM     25  O   UNL     1       1.177  14.752  19.783  0.00  0.00    +0.000 OA
ATOM     26  C   UNL     1       0.438  14.056  19.117  0.00  0.00    +0.000 C 
BRANCH  26  27
ATOM     27  O   UNL     1      -0.734  14.472  18.612  0.00  0.00    +0.000 OA
ATOM     28  H   UNL     1      -0.992  14.078  17.750  0.00  0.00    +0.000 HD
ENDBRANCH  26  27
ENDBRANCH  19  26
ENDBRANCH   1  22
TORSDOF 4
ENDMDL
MODEL 6
REMARK VINA RESULT:      -8.4      1.285      3.390
REMARK  Name = 
REMARK  4 active torsions:
REMARK  status: ('A' for Active; 'I' for Inactive)
REMARK    1  A    between atoms: C_2  and  O_3
REMARK    2  A    between atoms: C_2  and  C_4
REMARK    3  A    between atoms: C_7  and  N_8
REMARK    4  A    between atoms: C_9  and  C_11
REMARK                            x       y       z     vdW  Elec       q    Type
REMARK                         _______ _______ _______ _____ _____    ______ ____
ROOT
ATOM      1  N   UNL     1       2.181   7.183  19.423  0.00  0.00    +0.000 N 
ATOM      2  C   UNL     1       2.765   7.142  18.169  0.00  0.00    +0.000 C 
ATOM      3  O   UNL     1       2.784   8.129  17.420  0.00  0.00    +0.000 OA
ATOM      4  H   UNL     1       2.140   6.326  19.953  0.00  0.00    +0.000 HD
ENDROOT
BRANCH   2   5
ATOM      5  C   UNL     1       3.408   5.851  17.638  0.00  0.00    +0.000 C 
ATOM      6  C   UNL     1       3.258   4.475  18.321  0.00  0.00    +0.000 A 
ATOM      7  C   UNL     1       3.243   4.124  19.667  0.00  0.00    +0.000 A 
ATOM      8  C   UNL     1       3.316   2.761  20.041  0.00  0.00    +0.000 A 
ATOM      9  C   UNL     1       3.346   1.736  19.086  0.00  0.00    +0.000 A 
ATOM     10  C   UNL     1       3.504   2.069  17.757  0.00  0.00    +0.000 A 
ATOM     11  C   UNL     1       3.661   3.419  17.474  0.00  0.00    +0.000 A 
ATOM     12  O   UNL     1       4.775   3.675  16.655  0.00  0.00    +0.000 OA
ATOM     13  C   UNL     1       5.534   4.742  17.111  0.00  0.00    +0.000 A 
ATOM     14  C   UNL     1       6.852   4.583  17.509  0.00  0.00    +0.000 A 
ATOM     15  C   UNL     1       7.594   5.718  17.835  0.00  0.00    +0.000 A 
ATOM     16  C   UNL     1       7.038   6.988  17.658  0.00  0.00    +0.000 A 
ATOM     17  C   UNL     1       5.674   7.119  17.407  0.00  0.00    +0.000 A 
ATOM     18  C   UNL     1       4.895   5.971  17.309  0.00  0.00    +0.000 A 
ENDBRANCH   2   5
BRANCH   1  22
ATOM     19  C   UNL     1       0.362  10.521  21.334  0.00  0.00    +0.000 A 
ATOM     20  C   UNL     1       0.534  10.531  19.956  0.00  0.00    +0.000 A 
ATOM     21  C   UNL     1       1.140   9.447  19.317  0.00  0.00    +0.000 A 
ATOM     22  C   UNL     1       1.575   8.323  20.031  0.00  0.00    +0.000 A 
ATOM     23  C   UNL     1       1.391   8.319  21.423  0.00  0.00    +0.000 A 
ATOM     24  C   UNL     1       0.787   9.410  22.077  0.00  0.00    +0.000 A 
BRANCH  19  26
ATOM     25  O   UNL     1      -0.605  11.755  23.126  0.00  0.00    +0.000 OA
ATOM     26  C   UNL     1      -0.318  11.689  21.948  0.00  0.00    +0.000 C 
BRANCH  26  27
ATOM     27  O   UNL     1      -0.609  12.642  21.049  0.00  0.00    +0.000 OA
ATOM     28  H   UNL     1       0.093  13.311  20.892  0.00  0.00    +0.000 HD
ENDBRANCH  26  27
ENDBRANCH  19  26
ENDBRANCH   1  22
TORSDOF 4
ENDMDL
MODEL 7
REMARK VINA RESULT:      -8.4      1.914      8.463
REMARK  Name = 
REMARK  4 active torsions:
REMARK  status: ('A' for Active; 'I' for Inactive)
REMARK    1  A    between atoms: C_2  and  O_3
REMARK    2  A    between atoms: C_2  and  C_4
REMARK    3  A    between atoms: C_7  and  N_8
REMARK    4  A    between atoms: C_9  and  C_11
REMARK                            x       y       z     vdW  Elec       q    Type
REMARK                         _______ _______ _______ _____ _____    ______ ____
ROOT
ATOM      1  N   UNL     1       1.564   8.540  19.314  0.00  0.00    +0.000 N 
ATOM      2  C   UNL     1       1.352   9.686  18.565  0.00  0.00    +0.000 C 
ATOM      3  O   UNL     1       1.955   9.899  17.505  0.00  0.00    +0.000 OA
ATOM      4  H   UNL     1       1.092   8.462  20.202  0.00  0.00    +0.000 HD
ENDROOT
BRANCH   2   5
ATOM      5  C   UNL     1       0.361  10.763  19.034  0.00  0.00    +0.000 C 
ATOM      6  C   UNL     1      -0.050  10.968  20.508  0.00  0.00    +0.000 A 
ATOM      7  C   UNL     1      -0.301  10.047  21.519  0.00  0.00    +0.000 A 
ATOM      8  C   UNL     1      -0.881  10.476  22.736  0.00  0.00    +0.000 A 
ATOM      9  C   UNL     1      -1.165  11.826  22.980  0.00  0.00    +0.000 A 
ATOM     10  C   UNL     1      -1.056  12.727  21.943  0.00  0.00    +0.000 A 
ATOM     11  C   UNL     1      -0.703  12.205  20.706  0.00  0.00    +0.000 A 
ATOM     12  O   UNL     1      -1.565  12.620  19.675  0.00  0.00    +0.000 OA
ATOM     13  C   UNL     1      -1.950  11.572  18.852  0.00  0.00    +0.000 A 
ATOM     14  C   UNL     1      -3.275  11.184  18.736  0.00  0.00    +0.000 A 
ATOM     15  C   UNL     1      -3.606  10.209  17.795  0.00  0.00    +0.000 A 
ATOM     16  C   UNL     1      -2.628   9.721  16.924  0.00  0.00    +0.000 A 
ATOM     17  C   UNL     1      -1.285  10.008  17.158  0.00  0.00    +0.000 A 
ATOM     18  C   UNL     1      -0.949  10.805  18.247  0.00  0.00    +0.000 A 
ENDBRANCH   2   5
BRANCH   1  22
ATOM     19  C   UNL     1       4.155   5.290  18.407  0.00  0.00    +0.000 A 
ATOM     20  C   UNL     1       4.108   6.385  17.555  0.00  0.00    +0.000 A 
ATOM     21  C   UNL     1       3.253   7.454  17.834  0.00  0.00    +0.000 A 
ATOM     22  C   UNL     1       2.438   7.465  18.974  0.00  0.00    +0.000 A 
ATOM     23  C   UNL     1       2.499   6.356  19.833  0.00  0.00    +0.000 A 
ATOM     24  C   UNL     1       3.352   5.270  19.557  0.00  0.00    +0.000 A 
BRANCH  19  26
ATOM     25  O   UNL     1       5.646   4.093  16.988  0.00  0.00    +0.000 OA
ATOM     26  C   UNL     1       5.108   4.201  18.071  0.00  0.00    +0.000 C 
BRANCH  26  27
ATOM     27  O   UNL     1       5.276   3.338  19.084  0.00  0.00    +0.000 OA
ATOM     28  H   UNL     1       4.543   3.296  19.737  0.00  0.00    +0.000 HD
ENDBRANCH  26  27
ENDBRANCH  19  26
ENDBRANCH   1  22
TORSDOF 4
ENDMDL
MODEL 8
REMARK VINA RESULT:      -8.3      1.313      3.469
REMARK  Name = 
REMARK  4 active torsions:
REMARK  status: ('A' for Active; 'I' for Inactive)
REMARK    1  A    between atoms: C_2  and  O_3
REMARK    2  A    between atoms: C_2  and  C_4
REMARK    3  A    between atoms: C_7  and  N_8
REMARK    4  A    between atoms: C_9  and  C_11
REMARK                            x       y       z     vdW  Elec       q    Type
REMARK                         _______ _______ _______ _____ _____    ______ ____
ROOT
ATOM      1  N   UNL     1       2.145   7.163  19.439  0.00  0.00    +0.000 N 
ATOM      2  C   UNL     1       2.783   7.150  18.210  0.00  0.00    +0.000 C 
ATOM      3  O   UNL     1       2.861   8.162  17.499  0.00  0.00    +0.000 OA
ATOM      4  H   UNL     1       2.057   6.289  19.934  0.00  0.00    +0.000 HD
ENDROOT
BRANCH   2   5
ATOM      5  C   UNL     1       3.412   5.860  17.660  0.00  0.00    +0.000 C 
ATOM      6  C   UNL     1       3.270   4.481  18.337  0.00  0.00    +0.000 A 
ATOM      7  C   UNL     1       3.277   4.121  19.680  0.00  0.00    +0.000 A 
ATOM      8  C   UNL     1       3.351   2.755  20.045  0.00  0.00    +0.000 A 
ATOM      9  C   UNL     1       3.362   1.737  19.083  0.00  0.00    +0.000 A 
ATOM     10  C   UNL     1       3.499   2.078  17.753  0.00  0.00    +0.000 A 
ATOM     11  C   UNL     1       3.655   3.429  17.476  0.00  0.00    +0.000 A 
ATOM     12  O   UNL     1       4.756   3.687  16.640  0.00  0.00    +0.000 OA
ATOM     13  C   UNL     1       5.526   4.749  17.090  0.00  0.00    +0.000 A 
ATOM     14  C   UNL     1       6.850   4.583  17.465  0.00  0.00    +0.000 A 
ATOM     15  C   UNL     1       7.601   5.714  17.786  0.00  0.00    +0.000 A 
ATOM     16  C   UNL     1       7.045   6.987  17.626  0.00  0.00    +0.000 A 
ATOM     17  C   UNL     1       5.678   7.124  17.399  0.00  0.00    +0.000 A 
ATOM     18  C   UNL     1       4.894   5.979  17.307  0.00  0.00    +0.000 A 
ENDBRANCH   2   5
BRANCH   1  22
ATOM     19  C   UNL     1       0.366  10.604  21.198  0.00  0.00    +0.000 A 
ATOM     20  C   UNL     1       0.753   9.544  22.008  0.00  0.00    +0.000 A 
ATOM     21  C   UNL     1       1.328   8.404  21.442  0.00  0.00    +0.000 A 
ATOM     22  C   UNL     1       1.544   8.298  20.062  0.00  0.00    +0.000 A 
ATOM     23  C   UNL     1       1.156   9.377  19.252  0.00  0.00    +0.000 A 
ATOM     24  C   UNL     1       0.570  10.529  19.813  0.00  0.00    +0.000 A 
BRANCH  19  26
ATOM     25  O   UNL     1      -0.286  12.890  21.334  0.00  0.00    +0.000 OA
ATOM     26  C   UNL     1      -0.208  11.801  21.864  0.00  0.00    +0.000 C 
BRANCH  26  27
ATOM     27  O   UNL     1      -0.596  11.547  23.124  0.00  0.00    +0.000 OA
ATOM     28  H   UNL     1      -1.249  10.821  23.233  0.00  0.00    +0.000 HD
ENDBRANCH  26  27
ENDBRANCH  19  26
ENDBRANCH   1  22
TORSDOF 4
ENDMDL
MODEL 9
REMARK VINA RESULT:      -8.2      1.903      8.529
REMARK  Name = 
REMARK  4 active torsions:
REMARK  status: ('A' for Active; 'I' for Inactive)
REMARK    1  A    between atoms: C_2  and  O_3
REMARK    2  A    between atoms: C_2  and  C_4
REMARK    3  A    between atoms: C_7  and  N_8
REMARK    4  A    between atoms: C_9  and  C_11
REMARK                            x       y       z     vdW  Elec       q    Type
REMARK                         _______ _______ _______ _____ _____    ______ ____
ROOT
ATOM      1  N   UNL     1       1.491   8.482  19.550  0.00  0.00    +0.000 N 
ATOM      2  C   UNL     1       1.188   9.469  18.627  0.00  0.00    +0.000 C 
ATOM      3  O   UNL     1       1.597   9.425  17.460  0.00  0.00    +0.000 OA
ATOM      4  H   UNL     1       1.183   8.613  20.501  0.00  0.00    +0.000 HD
ENDROOT
BRANCH   2   5
ATOM      5  C   UNL     1       0.336  10.685  19.023  0.00  0.00    +0.000 C 
ATOM      6  C   UNL     1      -0.031  11.037  20.481  0.00  0.00    +0.000 A 
ATOM      7  C   UNL     1      -0.378  10.223  21.554  0.00  0.00    +0.000 A 
ATOM      8  C   UNL     1      -0.890  10.799  22.741  0.00  0.00    +0.000 A 
ATOM      9  C   UNL     1      -1.010  12.187  22.892  0.00  0.00    +0.000 A 
ATOM     10  C   UNL     1      -0.807  12.997  21.794  0.00  0.00    +0.000 A 
ATOM     11  C   UNL     1      -0.531  12.353  20.596  0.00  0.00    +0.000 A 
ATOM     12  O   UNL     1      -1.351  12.796  19.542  0.00  0.00    +0.000 OA
ATOM     13  C   UNL     1      -1.865  11.748  18.794  0.00  0.00    +0.000 A 
ATOM     14  C   UNL     1      -3.229  11.513  18.708  0.00  0.00    +0.000 A 
ATOM     15  C   UNL     1      -3.683  10.522  17.837  0.00  0.00    +0.000 A 
ATOM     16  C   UNL     1      -2.778   9.864  17.000  0.00  0.00    +0.000 A 
ATOM     17  C   UNL     1      -1.409  10.005  17.209  0.00  0.00    +0.000 A 
ATOM     18  C   UNL     1      -0.968  10.828  18.240  0.00  0.00    +0.000 A 
ENDBRANCH   2   5
BRANCH   1  22
ATOM     19  C   UNL     1       3.783   5.002  18.692  0.00  0.00    +0.000 A 
ATOM     20  C   UNL     1       2.936   5.009  19.793  0.00  0.00    +0.000 A 
ATOM     21  C   UNL     1       2.186   6.149  20.092  0.00  0.00    +0.000 A 
ATOM     22  C   UNL     1       2.251   7.300  19.297  0.00  0.00    +0.000 A 
ATOM     23  C   UNL     1       3.105   7.281  18.183  0.00  0.00    +0.000 A 
ATOM     24  C   UNL     1       3.870   6.139  17.877  0.00  0.00    +0.000 A 
BRANCH  19  26
ATOM     25  O   UNL     1       4.142   2.900  17.632  0.00  0.00    +0.000 OA
ATOM     26  C   UNL     1       4.528   3.748  18.410  0.00  0.00    +0.000 C 
BRANCH  26  27
ATOM     27  O   UNL     1       5.652   3.647  19.137  0.00  0.00    +0.000 OA
ATOM     28  H   UNL     1       6.482   3.907  18.680  0.00  0.00    +0.000 HD
ENDBRANCH  26  27
ENDBRANCH  19  26
ENDBRANCH   1  22
TORSDOF 4
ENDMDL
