MODEL 1
REMARK VINA RESULT:      -8.5      0.000      0.000
REMARK  Name = 
REMARK  6 active torsions:
REMARK  status: ('A' for Active; 'I' for Inactive)
REMARK    1  A    between atoms: C_1  and  C_2
REMARK    2  A    between atoms: C_2  and  C_3
REMARK    3  A    between atoms: C_2  and  C_4
REMARK    4  A    between atoms: C_6  and  C_7
REMARK    5  A    between atoms: N_9  and  C_10
REMARK    6  A    between atoms: N_13  and  C_14
REMARK                            x       y       z     vdW  Elec       q    Type
REMARK                         _______ _______ _______ _____ _____    ______ ____
ROOT
ATOM      1  C   UNL     1       1.995   9.095  18.239  0.00  0.00    +0.000 C 
ATOM      2  O   UNL     1       1.919   9.960  17.371  0.00  0.00    +0.000 OA
ATOM      3  N   UNL     1       1.494   9.203  19.520  0.00  0.00    +0.000 N 
ATOM      4  H   UNL     1       1.639   8.403  20.128  0.00  0.00    +0.000 HD
ENDROOT
BRANCH   1   7
ATOM      5  C   UNL     1       4.169   6.265  17.412  0.00  0.00    +0.000 A 
ATOM      6  C   UNL     1       3.975   7.627  17.527  0.00  0.00    +0.000 A 
ATOM      7  C   UNL     1       2.656   7.804  17.986  0.00  0.00    +0.000 A 
ATOM      8  N   UNL     1       2.042   6.623  18.168  0.00  0.00    +0.000 NA
ATOM      9  N   UNL     1       2.995   5.675  17.881  0.00  0.00    +0.000 N 
ATOM     10  C   UNL     1       2.719   4.283  18.108  0.00  0.00    +0.000 A 
ATOM     11  C   UNL     1       1.445   3.909  18.533  0.00  0.00    +0.000 A 
ATOM     12  C   UNL     1       1.193   2.565  18.803  0.00  0.00    +0.000 A 
ATOM     13  C   UNL     1       2.212   1.633  18.645  0.00  0.00    +0.000 A 
ATOM     14  C   UNL     1       3.444   2.081  18.212  0.00  0.00    +0.000 A 
ATOM     15  N   UNL     1       3.715   3.374  17.943  0.00  0.00    +0.000 NA
BRANCH   5  17
ATOM     16  C   UNL     1       5.392   5.476  15.365  0.00  0.00    +0.000 C 
ATOM     17  C   UNL     1       5.375   5.516  16.898  0.00  0.00    +0.000 C 
ATOM     18  C   UNL     1       6.676   6.128  17.424  0.00  0.00    +0.000 C 
ENDBRANCH   5  17
ENDBRANCH   1   7
BRANCH   3  19
ATOM     19  C   UNL     1       0.842  10.314  20.007  0.00  0.00    +0.000 A 
ATOM     20  C   UNL     1       1.249  11.649  20.175  0.00  0.00    +0.000 A 
ATOM     21  N   UNL     1       0.289  12.417  20.697  0.00  0.00    +0.000 NA
ATOM     22  N   UNL     1      -0.747  11.562  20.921  0.00  0.00    +0.000 N 
ATOM     23  C   UNL     1      -0.453  10.299  20.455  0.00  0.00    +0.000 A 
BRANCH  22  24
ATOM     24  C   UNL     1      -1.931  12.011  21.563  0.00  0.00    +0.000 A 
ATOM     25  C   UNL     1      -2.058  11.897  22.959  0.00  0.00    +0.000 A 
ATOM     26  C   UNL     1      -3.216  12.345  23.605  0.00  0.00    +0.000 A 
ATOM     27  C   UNL     1      -4.260  12.898  22.866  0.00  0.00    +0.000 A 
ATOM     28  C   UNL     1      -4.150  12.995  21.480  0.00  0.00    +0.000 A 
ATOM     29  C   UNL     1      -2.993  12.555  20.838  0.00  0.00    +0.000 A 
ATOM     30  F   UNL     1      -2.970  12.663  19.503  0.00  0.00    +0.000 F 
ENDBRANCH  22  24
ENDBRANCH   3  19
TORSDOF 4
ENDMDL
MODEL 2
REMARK VINA RESULT:      -8.5      0.889      1.259
REMARK  Name = 
REMARK  6 active torsions:
REMARK  status: ('A' for Active; 'I' for Inactive)
REMARK    1  A    between atoms: C_1  and  C_2
REMARK    2  A    between atoms: C_2  and  C_3
REMARK    3  A    between atoms: C_2  and  C_4
REMARK    4  A    between atoms: C_6  and  C_7
REMARK    5  A    between atoms: N_9  and  C_10
REMARK    6  A    between atoms: N_13  and  C_14
REMARK                            x       y       z     vdW  Elec       q    Type
REMARK                         _______ _______ _______ _____ _____    ______ ____
ROOT
ATOM      1  C   UNL     1       2.092   9.022  18.177  0.00  0.00    +0.000 C 
ATOM      2  O   UNL     1       2.211   9.931  17.360  0.00  0.00    +0.000 OA
ATOM      3  N   UNL     1       1.422   9.111  19.379  0.00  0.00    +0.000 N 
ATOM      4  H   UNL     1       1.415   8.272  19.953  0.00  0.00    +0.000 HD
ENDROOT
BRANCH   1   7
ATOM      5  C   UNL     1       4.087   6.064  17.345  0.00  0.00    +0.000 A 
ATOM      6  C   UNL     1       3.958   7.437  17.409  0.00  0.00    +0.000 A 
ATOM      7  C   UNL     1       2.680   7.693  17.943  0.00  0.00    +0.000 A 
ATOM      8  N   UNL     1       2.030   6.549  18.217  0.00  0.00    +0.000 NA
ATOM      9  N   UNL     1       2.922   5.548  17.914  0.00  0.00    +0.000 N 
ATOM     10  C   UNL     1       2.601   4.181  18.221  0.00  0.00    +0.000 A 
ATOM     11  C   UNL     1       1.344   3.884  18.742  0.00  0.00    +0.000 A 
ATOM     12  C   UNL     1       1.053   2.566  19.089  0.00  0.00    +0.000 A 
ATOM     13  C   UNL     1       2.019   1.582  18.910  0.00  0.00    +0.000 A 
ATOM     14  C   UNL     1       3.238   1.955  18.380  0.00  0.00    +0.000 A 
ATOM     15  N   UNL     1       3.545   3.222  18.035  0.00  0.00    +0.000 NA
BRANCH   5  17
ATOM     16  C   UNL     1       5.503   5.593  15.325  0.00  0.00    +0.000 C 
ATOM     17  C   UNL     1       5.224   5.240  16.791  0.00  0.00    +0.000 C 
ATOM     18  C   UNL     1       6.494   5.411  17.627  0.00  0.00    +0.000 C 
ENDBRANCH   5  17
ENDBRANCH   1   7
BRANCH   3  19
ATOM     19  C   UNL     1       0.795  10.249  19.836  0.00  0.00    +0.000 A 
ATOM     20  C   UNL     1       1.267  11.548  20.092  0.00  0.00    +0.000 A 
ATOM     21  N   UNL     1       0.308  12.364  20.539  0.00  0.00    +0.000 NA
ATOM     22  N   UNL     1      -0.797  11.575  20.625  0.00  0.00    +0.000 N 
ATOM     23  C   UNL     1      -0.538  10.308  20.148  0.00  0.00    +0.000 A 
BRANCH  22  24
ATOM     24  C   UNL     1      -2.011  12.084  21.158  0.00  0.00    +0.000 A 
ATOM     25  C   UNL     1      -2.994  12.600  20.295  0.00  0.00    +0.000 A 
ATOM     26  C   UNL     1      -4.199  13.097  20.806  0.00  0.00    +0.000 A 
ATOM     27  C   UNL     1      -4.429  13.093  22.181  0.00  0.00    +0.000 A 
ATOM     28  C   UNL     1      -3.451  12.602  23.043  0.00  0.00    +0.000 A 
ATOM     29  C   UNL     1      -2.254  12.102  22.533  0.00  0.00    +0.000 A 
ATOM     30  F   UNL     1      -1.357  11.667  23.426  0.00  0.00    +0.000 F 
ENDBRANCH  22  24
ENDBRANCH   3  19
TORSDOF 4
ENDMDL
MODEL 3
REMARK VINA RESULT:      -8.3      2.084      2.427
REMARK  Name = 
REMARK  6 active torsions:
REMARK  status: ('A' for Active; 'I' for Inactive)
REMARK    1  A    between atoms: C_1  and  C_2
REMARK    2  A    between atoms: C_2  and  C_3
REMARK    3  A    between atoms: C_2  and  C_4
REMARK    4  A    between atoms: C_6  and  C_7
REMARK    5  A    between atoms: N_9  and  C_10
REMARK    6  A    between atoms: N_13  and  C_14
REMARK                            x       y       z     vdW  Elec       q    Type
REMARK                         _______ _______ _______ _____ _____    ______ ____
ROOT
ATOM      1  C   UNL     1       1.854   9.088  18.086  0.00  0.00    +0.000 C 
ATOM      2  O   UNL     1       2.290   9.996  17.383  0.00  0.00    +0.000 OA
ATOM      3  N   UNL     1       0.688   9.138  18.821  0.00  0.00    +0.000 N 
ATOM      4  H   UNL     1       0.460   8.307  19.360  0.00  0.00    +0.000 HD
ENDROOT
BRANCH   1   7
ATOM      5  C   UNL     1       4.061   6.167  17.969  0.00  0.00    +0.000 A 
ATOM      6  C   UNL     1       3.770   7.459  17.580  0.00  0.00    +0.000 A 
ATOM      7  C   UNL     1       2.564   7.806  18.219  0.00  0.00    +0.000 A 
ATOM      8  N   UNL     1       2.113   6.798  18.985  0.00  0.00    +0.000 NA
ATOM      9  N   UNL     1       3.069   5.816  18.885  0.00  0.00    +0.000 N 
ATOM     10  C   UNL     1       2.975   4.634  19.698  0.00  0.00    +0.000 A 
ATOM     11  C   UNL     1       1.857   4.463  20.512  0.00  0.00    +0.000 A 
ATOM     12  C   UNL     1       1.791   3.343  21.339  0.00  0.00    +0.000 A 
ATOM     13  C   UNL     1       2.836   2.427  21.334  0.00  0.00    +0.000 A 
ATOM     14  C   UNL     1       3.906   2.663  20.493  0.00  0.00    +0.000 A 
ATOM     15  N   UNL     1       3.994   3.737  19.682  0.00  0.00    +0.000 NA
BRANCH   5  17
ATOM     16  C   UNL     1       4.823   4.470  16.282  0.00  0.00    +0.000 C 
ATOM     17  C   UNL     1       5.198   5.275  17.532  0.00  0.00    +0.000 C 
ATOM     18  C   UNL     1       6.473   6.083  17.278  0.00  0.00    +0.000 C 
ENDBRANCH   5  17
ENDBRANCH   1   7
BRANCH   3  19
ATOM     19  C   UNL     1      -0.150  10.230  18.874  0.00  0.00    +0.000 A 
ATOM     20  C   UNL     1       0.066  11.568  19.244  0.00  0.00    +0.000 A 
ATOM     21  N   UNL     1      -1.041  12.311  19.155  0.00  0.00    +0.000 NA
ATOM     22  N   UNL     1      -2.008  11.435  18.768  0.00  0.00    +0.000 N 
ATOM     23  C   UNL     1      -1.477  10.185  18.535  0.00  0.00    +0.000 A 
BRANCH  22  24
ATOM     24  C   UNL     1      -3.361  11.853  18.654  0.00  0.00    +0.000 A 
ATOM     25  C   UNL     1      -4.002  12.458  19.749  0.00  0.00    +0.000 A 
ATOM     26  C   UNL     1      -5.332  12.884  19.647  0.00  0.00    +0.000 A 
ATOM     27  C   UNL     1      -6.035  12.700  18.458  0.00  0.00    +0.000 A 
ATOM     28  C   UNL     1      -5.413  12.082  17.376  0.00  0.00    +0.000 A 
ATOM     29  C   UNL     1      -4.087  11.664  17.477  0.00  0.00    +0.000 A 
ATOM     30  F   UNL     1      -3.565  11.062  16.400  0.00  0.00    +0.000 F 
ENDBRANCH  22  24
ENDBRANCH   3  19
TORSDOF 4
ENDMDL
MODEL 4
REMARK VINA RESULT:      -8.3      1.401      1.662
REMARK  Name = 
REMARK  6 active torsions:
REMARK  status: ('A' for Active; 'I' for Inactive)
REMARK    1  A    between atoms: C_1  and  C_2
REMARK    2  A    between atoms: C_2  and  C_3
REMARK    3  A    between atoms: C_2  and  C_4
REMARK    4  A    between atoms: C_6  and  C_7
REMARK    5  A    between atoms: N_9  and  C_10
REMARK    6  A    between atoms: N_13  and  C_14
REMARK                            x       y       z     vdW  Elec       q    Type
REMARK                         _______ _______ _______ _____ _____    ______ ____
ROOT
ATOM      1  C   UNL     1       1.998   8.945  18.367  0.00  0.00    +0.000 C 
ATOM      2  O   UNL     1       1.969   9.671  17.377  0.00  0.00    +0.000 OA
ATOM      3  N   UNL     1       1.407   9.227  19.580  0.00  0.00    +0.000 N 
ATOM      4  H   UNL     1       1.522   8.529  20.310  0.00  0.00    +0.000 HD
ENDROOT
BRANCH   1   7
ATOM      5  C   UNL     1       4.114   6.001  17.842  0.00  0.00    +0.000 A 
ATOM      6  C   UNL     1       3.796   7.311  17.543  0.00  0.00    +0.000 A 
ATOM      7  C   UNL     1       2.696   7.649  18.354  0.00  0.00    +0.000 A 
ATOM      8  N   UNL     1       2.335   6.619  19.138  0.00  0.00    +0.000 NA
ATOM      9  N   UNL     1       3.251   5.629  18.873  0.00  0.00    +0.000 N 
ATOM     10  C   UNL     1       3.247   4.418  19.648  0.00  0.00    +0.000 A 
ATOM     11  C   UNL     1       2.249   4.231  20.602  0.00  0.00    +0.000 A 
ATOM     12  C   UNL     1       2.277   3.081  21.389  0.00  0.00    +0.000 A 
ATOM     13  C   UNL     1       3.295   2.152  21.207  0.00  0.00    +0.000 A 
ATOM     14  C   UNL     1       4.243   2.405  20.235  0.00  0.00    +0.000 A 
ATOM     15  N   UNL     1       4.239   3.508  19.459  0.00  0.00    +0.000 NA
BRANCH   5  17
ATOM     16  C   UNL     1       5.182   5.258  15.694  0.00  0.00    +0.000 C 
ATOM     17  C   UNL     1       5.163   5.111  17.220  0.00  0.00    +0.000 C 
ATOM     18  C   UNL     1       6.551   5.401  17.796  0.00  0.00    +0.000 C 
ENDBRANCH   5  17
ENDBRANCH   1   7
BRANCH   3  19
ATOM     19  C   UNL     1       0.704  10.380  19.852  0.00  0.00    +0.000 A 
ATOM     20  C   UNL     1       1.039  11.740  19.731  0.00  0.00    +0.000 A 
ATOM     21  N   UNL     1       0.049  12.549  20.117  0.00  0.00    +0.000 NA
ATOM     22  N   UNL     1      -0.932  11.708  20.544  0.00  0.00    +0.000 N 
ATOM     23  C   UNL     1      -0.578  10.392  20.336  0.00  0.00    +0.000 A 
BRANCH  22  24
ATOM     24  C   UNL     1      -2.126  12.219  21.119  0.00  0.00    +0.000 A 
ATOM     25  C   UNL     1      -3.118  12.779  20.295  0.00  0.00    +0.000 A 
ATOM     26  C   UNL     1      -4.303  13.277  20.848  0.00  0.00    +0.000 A 
ATOM     27  C   UNL     1      -4.504  13.232  22.226  0.00  0.00    +0.000 A 
ATOM     28  C   UNL     1      -3.516  12.697  23.051  0.00  0.00    +0.000 A 
ATOM     29  C   UNL     1      -2.339  12.195  22.499  0.00  0.00    +0.000 A 
ATOM     30  F   UNL     1      -1.430  11.716  23.358  0.00  0.00    +0.000 F 
ENDBRANCH  22  24
ENDBRANCH   3  19
TORSDOF 4
ENDMDL
MODEL 5
REMARK VINA RESULT:      -8.3      1.737      3.337
REMARK  Name = 
REMARK  6 active torsions:
REMARK  status: ('A' for Active; 'I' for Inactive)
REMARK    1  A    between atoms: C_1  and  C_2
REMARK    2  A    between atoms: C_2  and  C_3
REMARK    3  A    between atoms: C_2  and  C_4
REMARK    4  A    between atoms: C_6  and  C_7
REMARK    5  A    between atoms: N_9  and  C_10
REMARK    6  A    between atoms: N_13  and  C_14
REMARK                            x       y       z     vdW  Elec       q    Type
REMARK                         _______ _______ _______ _____ _____    ______ ____
ROOT
ATOM      1  C   UNL     1       1.466   8.196  20.714  0.00  0.00    +0.000 C 
ATOM      2  O   UNL     1       1.374   8.310  21.933  0.00  0.00    +0.000 OA
ATOM      3  N   UNL     1       1.077   9.144  19.792  0.00  0.00    +0.000 N 
ATOM      4  H   UNL     1       1.211   8.903  18.814  0.00  0.00    +0.000 HD
ENDROOT
BRANCH   1   7
ATOM      5  C   UNL     1       2.465   4.845  19.621  0.00  0.00    +0.000 A 
ATOM      6  C   UNL     1       1.701   5.656  20.436  0.00  0.00    +0.000 A 
ATOM      7  C   UNL     1       2.023   6.983  20.092  0.00  0.00    +0.000 A 
ATOM      8  N   UNL     1       2.932   7.022  19.104  0.00  0.00    +0.000 NA
ATOM      9  N   UNL     1       3.153   5.708  18.767  0.00  0.00    +0.000 N 
ATOM     10  C   UNL     1       3.978   5.383  17.636  0.00  0.00    +0.000 A 
ATOM     11  C   UNL     1       4.619   6.414  16.951  0.00  0.00    +0.000 A 
ATOM     12  C   UNL     1       5.376   6.103  15.823  0.00  0.00    +0.000 A 
ATOM     13  C   UNL     1       5.475   4.780  15.408  0.00  0.00    +0.000 A 
ATOM     14  C   UNL     1       4.817   3.815  16.145  0.00  0.00    +0.000 A 
ATOM     15  N   UNL     1       4.079   4.087  17.240  0.00  0.00    +0.000 NA
BRANCH   5  17
ATOM     16  C   UNL     1       2.830   2.789  21.016  0.00  0.00    +0.000 C 
ATOM     17  C   UNL     1       2.573   3.339  19.608  0.00  0.00    +0.000 C 
ATOM     18  C   UNL     1       1.318   2.697  19.011  0.00  0.00    +0.000 C 
ENDBRANCH   5  17
ENDBRANCH   1   7
BRANCH   3  19
ATOM     19  C   UNL     1       0.517  10.360  20.118  0.00  0.00    +0.000 A 
ATOM     20  C   UNL     1       1.047  11.662  20.159  0.00  0.00    +0.000 A 
ATOM     21  N   UNL     1       0.145  12.570  20.541  0.00  0.00    +0.000 NA
ATOM     22  N   UNL     1      -0.978  11.847  20.803  0.00  0.00    +0.000 N 
ATOM     23  C   UNL     1      -0.790  10.517  20.496  0.00  0.00    +0.000 A 
BRANCH  22  24
ATOM     24  C   UNL     1      -2.138  12.476  21.328  0.00  0.00    +0.000 A 
ATOM     25  C   UNL     1      -2.872  13.371  20.530  0.00  0.00    +0.000 A 
ATOM     26  C   UNL     1      -4.023  13.990  21.033  0.00  0.00    +0.000 A 
ATOM     27  C   UNL     1      -4.445  13.730  22.335  0.00  0.00    +0.000 A 
ATOM     28  C   UNL     1      -3.710  12.860  23.138  0.00  0.00    +0.000 A 
ATOM     29  C   UNL     1      -2.568  12.239  22.635  0.00  0.00    +0.000 A 
ATOM     30  F   UNL     1      -1.906  11.432  23.474  0.00  0.00    +0.000 F 
ENDBRANCH  22  24
ENDBRANCH   3  19
TORSDOF 4
ENDMDL
MODEL 6
REMARK VINA RESULT:      -8.2      1.520      1.908
REMARK  Name = 
REMARK  6 active torsions:
REMARK  status: ('A' for Active; 'I' for Inactive)
REMARK    1  A    between atoms: C_1  and  C_2
REMARK    2  A    between atoms: C_2  and  C_3
REMARK    3  A    between atoms: C_2  and  C_4
REMARK    4  A    between atoms: C_6  and  C_7
REMARK    5  A    between atoms: N_9  and  C_10
REMARK    6  A    between atoms: N_13  and  C_14
REMARK                            x       y       z     vdW  Elec       q    Type
REMARK                         _______ _______ _______ _____ _____    ______ ____
ROOT
ATOM      1  C   UNL     1       1.965   9.051  18.124  0.00  0.00    +0.000 C 
ATOM      2  O   UNL     1       2.187  10.040  17.430  0.00  0.00    +0.000 OA
ATOM      3  N   UNL     1       1.062   8.993  19.164  0.00  0.00    +0.000 N 
ATOM      4  H   UNL     1       0.993   8.104  19.651  0.00  0.00    +0.000 HD
ENDROOT
BRANCH   1   7
ATOM      5  C   UNL     1       4.247   6.282  17.385  0.00  0.00    +0.000 A 
ATOM      6  C   UNL     1       4.007   7.639  17.476  0.00  0.00    +0.000 A 
ATOM      7  C   UNL     1       2.672   7.779  17.904  0.00  0.00    +0.000 A 
ATOM      8  N   UNL     1       2.092   6.581  18.089  0.00  0.00    +0.000 NA
ATOM      9  N   UNL     1       3.082   5.661  17.836  0.00  0.00    +0.000 N 
ATOM     10  C   UNL     1       2.845   4.264  18.076  0.00  0.00    +0.000 A 
ATOM     11  C   UNL     1       1.574   3.855  18.478  0.00  0.00    +0.000 A 
ATOM     12  C   UNL     1       1.359   2.508  18.762  0.00  0.00    +0.000 A 
ATOM     13  C   UNL     1       2.410   1.606  18.639  0.00  0.00    +0.000 A 
ATOM     14  C   UNL     1       3.638   2.088  18.228  0.00  0.00    +0.000 A 
ATOM     15  N   UNL     1       3.873   3.386  17.946  0.00  0.00    +0.000 NA
BRANCH   5  17
ATOM     16  C   UNL     1       5.528   5.486  15.377  0.00  0.00    +0.000 C 
ATOM     17  C   UNL     1       5.487   5.566  16.908  0.00  0.00    +0.000 C 
ATOM     18  C   UNL     1       6.756   6.240  17.436  0.00  0.00    +0.000 C 
ENDBRANCH   5  17
ENDBRANCH   1   7
BRANCH   3  19
ATOM     19  C   UNL     1       0.283  10.053  19.576  0.00  0.00    +0.000 A 
ATOM     20  C   UNL     1      -0.902  10.608  19.064  0.00  0.00    +0.000 A 
ATOM     21  N   UNL     1      -1.330  11.653  19.778  0.00  0.00    +0.000 NA
ATOM     22  N   UNL     1      -0.384  11.816  20.743  0.00  0.00    +0.000 N 
ATOM     23  C   UNL     1       0.568  10.822  20.674  0.00  0.00    +0.000 A 
BRANCH  22  24
ATOM     24  C   UNL     1      -0.457  12.905  21.652  0.00  0.00    +0.000 A 
ATOM     25  C   UNL     1       0.277  14.078  21.401  0.00  0.00    +0.000 A 
ATOM     26  C   UNL     1       0.206  15.162  22.284  0.00  0.00    +0.000 A 
ATOM     27  C   UNL     1      -0.585  15.082  23.427  0.00  0.00    +0.000 A 
ATOM     28  C   UNL     1      -1.299  13.915  23.693  0.00  0.00    +0.000 A 
ATOM     29  C   UNL     1      -1.233  12.838  22.811  0.00  0.00    +0.000 A 
ATOM     30  F   UNL     1      -1.932  11.745  23.145  0.00  0.00    +0.000 F 
ENDBRANCH  22  24
ENDBRANCH   3  19
TORSDOF 4
ENDMDL
MODEL 7
REMARK VINA RESULT:      -8.2      2.040      2.528
REMARK  Name = 
REMARK  6 active torsions:
REMARK  status: ('A' for Active; 'I' for Inactive)
REMARK    1  A    between atoms: C_1  and  C_2
REMARK    2  A    between atoms: C_2  and  C_3
REMARK    3  A    between atoms: C_2  and  C_4
REMARK    4  A    between atoms: C_6  and  C_7
REMARK    5  A    between atoms: N_9  and  C_10
REMARK    6  A    between atoms: N_13  and  C_14
REMARK                            x       y       z     vdW  Elec       q    Type
REMARK                         _______ _______ _______ _____ _____    ______ ____
ROOT
ATOM      1  C   UNL     1       1.812   9.062  18.074  0.00  0.00    +0.000 C 
ATOM      2  O   UNL     1       2.231   9.956  17.344  0.00  0.00    +0.000 OA
ATOM      3  N   UNL     1       0.661   9.122  18.830  0.00  0.00    +0.000 N 
ATOM      4  H   UNL     1       0.447   8.302  19.390  0.00  0.00    +0.000 HD
ENDROOT
BRANCH   1   7
ATOM      5  C   UNL     1       4.045   6.158  17.996  0.00  0.00    +0.000 A 
ATOM      6  C   UNL     1       3.749   7.447  17.600  0.00  0.00    +0.000 A 
ATOM      7  C   UNL     1       2.531   7.785  18.220  0.00  0.00    +0.000 A 
ATOM      8  N   UNL     1       2.076   6.776  18.980  0.00  0.00    +0.000 NA
ATOM      9  N   UNL     1       3.041   5.801  18.897  0.00  0.00    +0.000 N 
ATOM     10  C   UNL     1       2.944   4.619  19.711  0.00  0.00    +0.000 A 
ATOM     11  C   UNL     1       1.815   4.441  20.508  0.00  0.00    +0.000 A 
ATOM     12  C   UNL     1       1.746   3.322  21.336  0.00  0.00    +0.000 A 
ATOM     13  C   UNL     1       2.798   2.414  21.349  0.00  0.00    +0.000 A 
ATOM     14  C   UNL     1       3.879   2.657  20.523  0.00  0.00    +0.000 A 
ATOM     15  N   UNL     1       3.971   3.730  19.712  0.00  0.00    +0.000 NA
BRANCH   5  17
ATOM     16  C   UNL     1       4.866   4.506  16.292  0.00  0.00    +0.000 C 
ATOM     17  C   UNL     1       5.195   5.274  17.578  0.00  0.00    +0.000 C 
ATOM     18  C   UNL     1       6.481   6.084  17.396  0.00  0.00    +0.000 C 
ENDBRANCH   5  17
ENDBRANCH   1   7
BRANCH   3  19
ATOM     19  C   UNL     1      -0.181  10.211  18.876  0.00  0.00    +0.000 A 
ATOM     20  C   UNL     1       0.021  11.544  19.274  0.00  0.00    +0.000 A 
ATOM     21  N   UNL     1      -1.085  12.286  19.165  0.00  0.00    +0.000 NA
ATOM     22  N   UNL     1      -2.038  11.415  18.736  0.00  0.00    +0.000 N 
ATOM     23  C   UNL     1      -1.498  10.169  18.498  0.00  0.00    +0.000 A 
BRANCH  22  24
ATOM     24  C   UNL     1      -3.388  11.832  18.589  0.00  0.00    +0.000 A 
ATOM     25  C   UNL     1      -4.044  11.664  17.357  0.00  0.00    +0.000 A 
ATOM     26  C   UNL     1      -5.377  12.063  17.203  0.00  0.00    +0.000 A 
ATOM     27  C   UNL     1      -6.062  12.641  18.269  0.00  0.00    +0.000 A 
ATOM     28  C   UNL     1      -5.411  12.830  19.487  0.00  0.00    +0.000 A 
ATOM     29  C   UNL     1      -4.086  12.427  19.642  0.00  0.00    +0.000 A 
ATOM     30  F   UNL     1      -3.524  12.660  20.836  0.00  0.00    +0.000 F 
ENDBRANCH  22  24
ENDBRANCH   3  19
TORSDOF 4
ENDMDL
MODEL 8
REMARK VINA RESULT:      -8.2      2.063      3.513
REMARK  Name = 
REMARK  6 active torsions:
REMARK  status: ('A' for Active; 'I' for Inactive)
REMARK    1  A    between atoms: C_1  and  C_2
REMARK    2  A    between atoms: C_2  and  C_3
REMARK    3  A    between atoms: C_2  and  C_4
REMARK    4  A    between atoms: C_6  and  C_7
REMARK    5  A    between atoms: N_9  and  C_10
REMARK    6  A    between atoms: N_13  and  C_14
REMARK                            x       y       z     vdW  Elec       q    Type
REMARK                         _______ _______ _______ _____ _____    ______ ____
ROOT
ATOM      1  C   UNL     1       1.262   8.536  21.044  0.00  0.00    +0.000 C 
ATOM      2  O   UNL     1       1.498   8.844  22.210  0.00  0.00    +0.000 OA
ATOM      3  N   UNL     1       0.510   9.279  20.160  0.00  0.00    +0.000 N 
ATOM      4  H   UNL     1       0.397   8.891  19.228  0.00  0.00    +0.000 HD
ENDROOT
BRANCH   1   7
ATOM      5  C   UNL     1       2.150   5.128  20.036  0.00  0.00    +0.000 A 
ATOM      6  C   UNL     1       1.410   5.984  20.827  0.00  0.00    +0.000 A 
ATOM      7  C   UNL     1       1.780   7.291  20.455  0.00  0.00    +0.000 A 
ATOM      8  N   UNL     1       2.696   7.275  19.471  0.00  0.00    +0.000 NA
ATOM      9  N   UNL     1       2.872   5.947  19.167  0.00  0.00    +0.000 N 
ATOM     10  C   UNL     1       3.692   5.567  18.048  0.00  0.00    +0.000 A 
ATOM     11  C   UNL     1       4.372   6.558  17.344  0.00  0.00    +0.000 A 
ATOM     12  C   UNL     1       5.125   6.195  16.228  0.00  0.00    +0.000 A 
ATOM     13  C   UNL     1       5.179   4.861  15.844  0.00  0.00    +0.000 A 
ATOM     14  C   UNL     1       4.484   3.936  16.599  0.00  0.00    +0.000 A 
ATOM     15  N   UNL     1       3.750   4.260  17.683  0.00  0.00    +0.000 NA
BRANCH   5  17
ATOM     16  C   UNL     1       2.393   3.093  21.487  0.00  0.00    +0.000 C 
ATOM     17  C   UNL     1       2.206   3.619  20.059  0.00  0.00    +0.000 C 
ATOM     18  C   UNL     1       0.952   3.007  19.430  0.00  0.00    +0.000 C 
ENDBRANCH   5  17
ENDBRANCH   1   7
BRANCH   3  19
ATOM     19  C   UNL     1      -0.094  10.478  20.471  0.00  0.00    +0.000 A 
ATOM     20  C   UNL     1      -0.206  11.688  19.764  0.00  0.00    +0.000 A 
ATOM     21  N   UNL     1      -0.881  12.619  20.445  0.00  0.00    +0.000 NA
ATOM     22  N   UNL     1      -1.172  12.026  21.635  0.00  0.00    +0.000 N 
ATOM     23  C   UNL     1      -0.756  10.712  21.647  0.00  0.00    +0.000 A 
BRANCH  22  24
ATOM     24  C   UNL     1      -1.818  12.755  22.669  0.00  0.00    +0.000 A 
ATOM     25  C   UNL     1      -3.091  12.360  23.116  0.00  0.00    +0.000 A 
ATOM     26  C   UNL     1      -3.734  13.065  24.141  0.00  0.00    +0.000 A 
ATOM     27  C   UNL     1      -3.119  14.173  24.720  0.00  0.00    +0.000 A 
ATOM     28  C   UNL     1      -1.866  14.583  24.267  0.00  0.00    +0.000 A 
ATOM     29  C   UNL     1      -1.224  13.877  23.251  0.00  0.00    +0.000 A 
ATOM     30  F   UNL     1      -0.032  14.344  22.858  0.00  0.00    +0.000 F 
ENDBRANCH  22  24
ENDBRANCH   3  19
TORSDOF 4
ENDMDL
MODEL 9
REMARK VINA RESULT:      -8.2      1.333      1.415
REMARK  Name = 
REMARK  6 active torsions:
REMARK  status: ('A' for Active; 'I' for Inactive)
REMARK    1  A    between atoms: C_1  and  C_2
REMARK    2  A    between atoms: C_2  and  C_3
REMARK    3  A    between atoms: C_2  and  C_4
REMARK    4  A    between atoms: C_6  and  C_7
REMARK    5  A    between atoms: N_9  and  C_10
REMARK    6  A    between atoms: N_13  and  C_14
REMARK                            x       y       z     vdW  Elec       q    Type
REMARK                         _______ _______ _______ _____ _____    ______ ____
ROOT
ATOM      1  C   UNL     1       2.013   8.958  18.290  0.00  0.00    +0.000 C 
ATOM      2  O   UNL     1       2.150   9.698  17.319  0.00  0.00    +0.000 OA
ATOM      3  N   UNL     1       1.263   9.244  19.410  0.00  0.00    +0.000 N 
ATOM      4  H   UNL     1       1.250   8.532  20.136  0.00  0.00    +0.000 HD
ENDROOT
BRANCH   1   7
ATOM      5  C   UNL     1       4.046   5.928  17.961  0.00  0.00    +0.000 A 
ATOM      6  C   UNL     1       3.785   7.235  17.601  0.00  0.00    +0.000 A 
ATOM      7  C   UNL     1       2.666   7.641  18.354  0.00  0.00    +0.000 A 
ATOM      8  N   UNL     1       2.240   6.654  19.161  0.00  0.00    +0.000 NA
ATOM      9  N   UNL     1       3.130   5.625  18.970  0.00  0.00    +0.000 N 
ATOM     10  C   UNL     1       3.055   4.446  19.789  0.00  0.00    +0.000 A 
ATOM     11  C   UNL     1       2.014   4.329  20.708  0.00  0.00    +0.000 A 
ATOM     12  C   UNL     1       1.971   3.210  21.538  0.00  0.00    +0.000 A 
ATOM     13  C   UNL     1       2.962   2.242  21.432  0.00  0.00    +0.000 A 
ATOM     14  C   UNL     1       3.956   2.426  20.491  0.00  0.00    +0.000 A 
ATOM     15  N   UNL     1       4.020   3.497  19.675  0.00  0.00    +0.000 NA
BRANCH   5  17
ATOM     16  C   UNL     1       5.051   4.937  15.884  0.00  0.00    +0.000 C 
ATOM     17  C   UNL     1       5.087   4.981  17.416  0.00  0.00    +0.000 C 
ATOM     18  C   UNL     1       6.489   5.357  17.901  0.00  0.00    +0.000 C 
ENDBRANCH   5  17
ENDBRANCH   1   7
BRANCH   3  19
ATOM     19  C   UNL     1       0.564  10.416  19.599  0.00  0.00    +0.000 A 
ATOM     20  C   UNL     1       0.951  11.765  19.536  0.00  0.00    +0.000 A 
ATOM     21  N   UNL     1      -0.058  12.601  19.798  0.00  0.00    +0.000 NA
ATOM     22  N   UNL     1      -1.110  11.786  20.084  0.00  0.00    +0.000 N 
ATOM     23  C   UNL     1      -0.770  10.462  19.912  0.00  0.00    +0.000 A 
BRANCH  22  24
ATOM     24  C   UNL     1      -2.354  12.329  20.504  0.00  0.00    +0.000 A 
ATOM     25  C   UNL     1      -2.504  12.804  21.818  0.00  0.00    +0.000 A 
ATOM     26  C   UNL     1      -3.722  13.350  22.241  0.00  0.00    +0.000 A 
ATOM     27  C   UNL     1      -4.801  13.417  21.363  0.00  0.00    +0.000 A 
ATOM     28  C   UNL     1      -4.666  12.929  20.065  0.00  0.00    +0.000 A 
ATOM     29  C   UNL     1      -3.451  12.391  19.642  0.00  0.00    +0.000 A 
ATOM     30  F   UNL     1      -3.406  11.925  18.387  0.00  0.00    +0.000 F 
ENDBRANCH  22  24
ENDBRANCH   3  19
TORSDOF 4
ENDMDL
