MODEL 1
REMARK VINA RESULT:      -9.1      0.000      0.000
REMARK  Name = 
REMARK  5 active torsions:
REMARK  status: ('A' for Active; 'I' for Inactive)
REMARK    1  A    between atoms: C_4  and  C_5
REMARK    2  A    between atoms: C_5  and  N_6
REMARK    3  A    between atoms: N_6  and  C_7
REMARK    4  A    between atoms: N_6  and  C_14
REMARK    5  A    between atoms: C_7  and  C_8
REMARK                            x       y       z     vdW  Elec       q    Type
REMARK                         _______ _______ _______ _____ _____    ______ ____
ROOT
ATOM      1  N   UNL     1       3.623   6.513  18.287  0.00  0.00    +0.000 NA
ENDROOT
BRANCH   1   2
ATOM      2  C   UNL     1       5.037   6.250  17.879  0.00  0.00    +0.000 C 
ATOM      3  C   UNL     1       5.124   5.582  16.485  0.00  0.00    +0.000 C 
ATOM      4  C   UNL     1       6.569   5.396  16.027  0.00  0.00    +0.000 C 
ATOM      5  C   UNL     1       7.378   4.607  17.051  0.00  0.00    +0.000 C 
ATOM      6  C   UNL     1       7.327   5.270  18.421  0.00  0.00    +0.000 C 
ATOM      7  C   UNL     1       5.888   5.457  18.901  0.00  0.00    +0.000 C 
ENDBRANCH   1   2
BRANCH   1   8
ATOM      8  C   UNL     1       3.130   7.811  17.762  0.00  0.00    +0.000 C 
BRANCH   8  12
ATOM      9  O   UNL     1      -0.611  10.856  18.146  0.00  0.00    +0.000 OA
ATOM     10  C   UNL     1       0.171  10.088  18.704  0.00  0.00    +0.000 A 
ATOM     11  C   UNL     1       1.126   9.326  17.884  0.00  0.00    +0.000 A 
ATOM     12  C   UNL     1       1.973   8.485  18.490  0.00  0.00    +0.000 A 
ATOM     13  N   UNL     1       1.912   8.198  19.833  0.00  0.00    +0.000 NA
ATOM     14  C   UNL     1       1.101   8.897  20.563  0.00  0.00    +0.000 A 
ATOM     15  C   UNL     1       1.053   8.634  22.029  0.00  0.00    +0.000 A 
ATOM     16  C   UNL     1       0.339   9.440  22.823  0.00  0.00    +0.000 A 
ATOM     17  C   UNL     1      -0.404  10.539  22.265  0.00  0.00    +0.000 A 
ATOM     18  C   UNL     1      -0.450  10.708  20.937  0.00  0.00    +0.000 A 
ATOM     19  N   UNL     1       0.270   9.894  20.074  0.00  0.00    +0.000 N 
ENDBRANCH   8  12
ENDBRANCH   1   8
BRANCH   1  20
ATOM     20  C   UNL     1       2.710   5.417  17.874  0.00  0.00    +0.000 C 
BRANCH  20  21
ATOM     21  C   UNL     1       2.154   4.560  18.998  0.00  0.00    +0.000 A 
ATOM     22  C   UNL     1       1.310   3.471  18.735  0.00  0.00    +0.000 A 
ATOM     23  C   UNL     1       0.864   2.649  19.774  0.00  0.00    +0.000 A 
ATOM     24  C   UNL     1       1.260   2.904  21.086  0.00  0.00    +0.000 A 
ATOM     25  C   UNL     1       2.093   3.985  21.363  0.00  0.00    +0.000 A 
ATOM     26  C   UNL     1       2.540   4.805  20.325  0.00  0.00    +0.000 A 
ENDBRANCH  20  21
ENDBRANCH   1  20
TORSDOF 5
ENDMDL
MODEL 2
REMARK VINA RESULT:      -8.5      0.463      1.081
REMARK  Name = 
REMARK  5 active torsions:
REMARK  status: ('A' for Active; 'I' for Inactive)
REMARK    1  A    between atoms: C_4  and  C_5
REMARK    2  A    between atoms: C_5  and  N_6
REMARK    3  A    between atoms: N_6  and  C_7
REMARK    4  A    between atoms: N_6  and  C_14
REMARK    5  A    between atoms: C_7  and  C_8
REMARK                            x       y       z     vdW  Elec       q    Type
REMARK                         _______ _______ _______ _____ _____    ______ ____
ROOT
ATOM      1  N   UNL     1       3.341   6.297  18.305  0.00  0.00    +0.000 NA
ENDROOT
BRANCH   1   2
ATOM      2  C   UNL     1       4.501   5.705  17.572  0.00  0.00    +0.000 C 
ATOM      3  C   UNL     1       5.742   5.544  18.483  0.00  0.00    +0.000 C 
ATOM      4  C   UNL     1       6.899   4.855  17.762  0.00  0.00    +0.000 C 
ATOM      5  C   UNL     1       7.268   5.590  16.478  0.00  0.00    +0.000 C 
ATOM      6  C   UNL     1       6.062   5.728  15.557  0.00  0.00    +0.000 C 
ATOM      7  C   UNL     1       4.897   6.423  16.258  0.00  0.00    +0.000 C 
ENDBRANCH   1   2
BRANCH   1   8
ATOM      8  C   UNL     1       3.075   7.695  17.881  0.00  0.00    +0.000 C 
BRANCH   8  12
ATOM      9  O   UNL     1      -0.478  10.970  18.122  0.00  0.00    +0.000 OA
ATOM     10  C   UNL     1       0.239  10.163  18.711  0.00  0.00    +0.000 A 
ATOM     11  C   UNL     1       1.168   9.332  17.928  0.00  0.00    +0.000 A 
ATOM     12  C   UNL     1       1.943   8.448  18.568  0.00  0.00    +0.000 A 
ATOM     13  N   UNL     1       1.827   8.184  19.912  0.00  0.00    +0.000 NA
ATOM     14  C   UNL     1       1.040   8.941  20.610  0.00  0.00    +0.000 A 
ATOM     15  C   UNL     1       0.935   8.702  22.076  0.00  0.00    +0.000 A 
ATOM     16  C   UNL     1       0.251   9.561  22.840  0.00  0.00    +0.000 A 
ATOM     17  C   UNL     1      -0.407  10.696  22.249  0.00  0.00    +0.000 A 
ATOM     18  C   UNL     1      -0.405  10.850  20.918  0.00  0.00    +0.000 A 
ATOM     19  N   UNL     1       0.287   9.981  20.085  0.00  0.00    +0.000 N 
ENDBRANCH   8  12
ENDBRANCH   1   8
BRANCH   1  20
ATOM     20  C   UNL     1       2.111   5.478  18.158  0.00  0.00    +0.000 C 
BRANCH  20  21
ATOM     21  C   UNL     1       1.848   4.474  19.268  0.00  0.00    +0.000 A 
ATOM     22  C   UNL     1       1.203   3.256  19.010  0.00  0.00    +0.000 A 
ATOM     23  C   UNL     1       1.031   2.312  20.026  0.00  0.00    +0.000 A 
ATOM     24  C   UNL     1       1.507   2.574  21.311  0.00  0.00    +0.000 A 
ATOM     25  C   UNL     1       2.143   3.783  21.583  0.00  0.00    +0.000 A 
ATOM     26  C   UNL     1       2.316   4.725  20.566  0.00  0.00    +0.000 A 
ENDBRANCH  20  21
ENDBRANCH   1  20
TORSDOF 5
ENDMDL
MODEL 3
REMARK VINA RESULT:      -8.5      0.935      1.437
REMARK  Name = 
REMARK  5 active torsions:
REMARK  status: ('A' for Active; 'I' for Inactive)
REMARK    1  A    between atoms: C_4  and  C_5
REMARK    2  A    between atoms: C_5  and  N_6
REMARK    3  A    between atoms: N_6  and  C_7
REMARK    4  A    between atoms: N_6  and  C_14
REMARK    5  A    between atoms: C_7  and  C_8
REMARK                            x       y       z     vdW  Elec       q    Type
REMARK                         _______ _______ _______ _____ _____    ______ ____
ROOT
ATOM      1  N   UNL     1       3.433   6.312  18.177  0.00  0.00    +0.000 NA
ENDROOT
BRANCH   1   2
ATOM      2  C   UNL     1       4.534   5.734  17.348  0.00  0.00    +0.000 C 
ATOM      3  C   UNL     1       4.890   6.638  16.143  0.00  0.00    +0.000 C 
ATOM      4  C   UNL     1       6.075   6.095  15.348  0.00  0.00    +0.000 C 
ATOM      5  C   UNL     1       5.824   4.663  14.888  0.00  0.00    +0.000 C 
ATOM      6  C   UNL     1       5.503   3.755  16.068  0.00  0.00    +0.000 C 
ATOM      7  C   UNL     1       4.314   4.277  16.872  0.00  0.00    +0.000 C 
ENDBRANCH   1   2
BRANCH   1   8
ATOM      8  C   UNL     1       3.160   7.728  17.822  0.00  0.00    +0.000 C 
BRANCH   8  12
ATOM      9  O   UNL     1      -0.554  10.820  18.080  0.00  0.00    +0.000 OA
ATOM     10  C   UNL     1       0.212  10.056  18.667  0.00  0.00    +0.000 A 
ATOM     11  C   UNL     1       1.171   9.266  17.879  0.00  0.00    +0.000 A 
ATOM     12  C   UNL     1       2.000   8.429  18.517  0.00  0.00    +0.000 A 
ATOM     13  N   UNL     1       1.914   8.173  19.865  0.00  0.00    +0.000 NA
ATOM     14  C   UNL     1       1.099   8.896  20.566  0.00  0.00    +0.000 A 
ATOM     15  C   UNL     1       1.025   8.667  22.036  0.00  0.00    +0.000 A 
ATOM     16  C   UNL     1       0.308   9.498  22.800  0.00  0.00    +0.000 A 
ATOM     17  C   UNL     1      -0.414  10.592  22.207  0.00  0.00    +0.000 A 
ATOM     18  C   UNL     1      -0.438  10.732  20.876  0.00  0.00    +0.000 A 
ATOM     19  N   UNL     1       0.287   9.891  20.041  0.00  0.00    +0.000 N 
ENDBRANCH   8  12
ENDBRANCH   1   8
BRANCH   1  20
ATOM     20  C   UNL     1       2.184   5.514  18.083  0.00  0.00    +0.000 C 
BRANCH  20  21
ATOM     21  C   UNL     1       1.955   4.509  19.199  0.00  0.00    +0.000 A 
ATOM     22  C   UNL     1       2.403   4.756  20.505  0.00  0.00    +0.000 A 
ATOM     23  C   UNL     1       2.122   3.855  21.536  0.00  0.00    +0.000 A 
ATOM     24  C   UNL     1       1.387   2.700  21.274  0.00  0.00    +0.000 A 
ATOM     25  C   UNL     1       0.942   2.438  19.980  0.00  0.00    +0.000 A 
ATOM     26  C   UNL     1       1.221   3.339  18.950  0.00  0.00    +0.000 A 
ENDBRANCH  20  21
ENDBRANCH   1  20
TORSDOF 5
ENDMDL
MODEL 4
REMARK VINA RESULT:      -8.4      0.989      4.132
REMARK  Name = 
REMARK  5 active torsions:
REMARK  status: ('A' for Active; 'I' for Inactive)
REMARK    1  A    between atoms: C_4  and  C_5
REMARK    2  A    between atoms: C_5  and  N_6
REMARK    3  A    between atoms: N_6  and  C_7
REMARK    4  A    between atoms: N_6  and  C_14
REMARK    5  A    between atoms: C_7  and  C_8
REMARK                            x       y       z     vdW  Elec       q    Type
REMARK                         _______ _______ _______ _____ _____    ______ ____
ROOT
ATOM      1  N   UNL     1       2.640   5.859  18.074  0.00  0.00    +0.000 NA
ENDROOT
BRANCH   1   2
ATOM      2  C   UNL     1       1.895   4.843  18.877  0.00  0.00    +0.000 C 
ATOM      3  C   UNL     1       2.546   4.607  20.262  0.00  0.00    +0.000 C 
ATOM      4  C   UNL     1       1.736   3.638  21.121  0.00  0.00    +0.000 C 
ATOM      5  C   UNL     1       1.513   2.313  20.400  0.00  0.00    +0.000 C 
ATOM      6  C   UNL     1       0.844   2.527  19.049  0.00  0.00    +0.000 C 
ATOM      7  C   UNL     1       1.645   3.488  18.171  0.00  0.00    +0.000 C 
ENDBRANCH   1   2
BRANCH   1   8
ATOM      8  C   UNL     1       3.079   7.007  18.906  0.00  0.00    +0.000 C 
BRANCH   8  12
ATOM      9  O   UNL     1       0.490  11.032  18.188  0.00  0.00    +0.000 OA
ATOM     10  C   UNL     1       0.831  10.133  18.955  0.00  0.00    +0.000 A 
ATOM     11  C   UNL     1       1.678   9.043  18.443  0.00  0.00    +0.000 A 
ATOM     12  C   UNL     1       2.043   8.061  19.276  0.00  0.00    +0.000 A 
ATOM     13  N   UNL     1       1.560   7.947  20.558  0.00  0.00    +0.000 NA
ATOM     14  C   UNL     1       0.847   8.924  21.024  0.00  0.00    +0.000 A 
ATOM     15  C   UNL     1       0.353   8.843  22.427  0.00  0.00    +0.000 A 
ATOM     16  C   UNL     1      -0.253   9.900  22.977  0.00  0.00    +0.000 A 
ATOM     17  C   UNL     1      -0.455  11.103  22.214  0.00  0.00    +0.000 A 
ATOM     18  C   UNL     1      -0.110  11.138  20.920  0.00  0.00    +0.000 A 
ATOM     19  N   UNL     1       0.517  10.063  20.304  0.00  0.00    +0.000 N 
ENDBRANCH   8  12
ENDBRANCH   1   8
BRANCH   1  20
ATOM     20  C   UNL     1       3.805   5.267  17.367  0.00  0.00    +0.000 C 
BRANCH  20  21
ATOM     21  C   UNL     1       5.170   5.765  17.809  0.00  0.00    +0.000 A 
ATOM     22  C   UNL     1       5.825   5.208  18.917  0.00  0.00    +0.000 A 
ATOM     23  C   UNL     1       7.112   5.627  19.268  0.00  0.00    +0.000 A 
ATOM     24  C   UNL     1       7.759   6.605  18.513  0.00  0.00    +0.000 A 
ATOM     25  C   UNL     1       7.118   7.171  17.414  0.00  0.00    +0.000 A 
ATOM     26  C   UNL     1       5.833   6.751  17.062  0.00  0.00    +0.000 A 
ENDBRANCH  20  21
ENDBRANCH   1  20
TORSDOF 5
ENDMDL
MODEL 5
REMARK VINA RESULT:      -8.2      0.876      1.279
REMARK  Name = 
REMARK  5 active torsions:
REMARK  status: ('A' for Active; 'I' for Inactive)
REMARK    1  A    between atoms: C_4  and  C_5
REMARK    2  A    between atoms: C_5  and  N_6
REMARK    3  A    between atoms: N_6  and  C_7
REMARK    4  A    between atoms: N_6  and  C_14
REMARK    5  A    between atoms: C_7  and  C_8
REMARK                            x       y       z     vdW  Elec       q    Type
REMARK                         _______ _______ _______ _____ _____    ______ ____
ROOT
ATOM      1  N   UNL     1       3.741   6.347  18.219  0.00  0.00    +0.000 NA
ENDROOT
BRANCH   1   2
ATOM      2  C   UNL     1       5.214   6.187  18.020  0.00  0.00    +0.000 C 
ATOM      3  C   UNL     1       5.914   5.632  19.284  0.00  0.00    +0.000 C 
ATOM      4  C   UNL     1       7.402   5.382  19.054  0.00  0.00    +0.000 C 
ATOM      5  C   UNL     1       8.106   6.642  18.561  0.00  0.00    +0.000 C 
ATOM      6  C   UNL     1       7.447   7.182  17.299  0.00  0.00    +0.000 C 
ATOM      7  C   UNL     1       5.958   7.446  17.511  0.00  0.00    +0.000 C 
ENDBRANCH   1   2
BRANCH   1   8
ATOM      8  C   UNL     1       3.219   7.557  17.536  0.00  0.00    +0.000 C 
BRANCH   8  12
ATOM      9  O   UNL     1       0.648  11.587  18.282  0.00  0.00    +0.000 OA
ATOM     10  C   UNL     1       1.045  10.507  18.717  0.00  0.00    +0.000 A 
ATOM     11  C   UNL     1       1.817   9.624  17.828  0.00  0.00    +0.000 A 
ATOM     12  C   UNL     1       2.244   8.445  18.299  0.00  0.00    +0.000 A 
ATOM     13  N   UNL     1       1.888   7.957  19.533  0.00  0.00    +0.000 NA
ATOM     14  C   UNL     1       1.243   8.748  20.332  0.00  0.00    +0.000 A 
ATOM     15  C   UNL     1       0.888   8.256  21.692  0.00  0.00    +0.000 A 
ATOM     16  C   UNL     1       0.359   9.101  22.584  0.00  0.00    +0.000 A 
ATOM     17  C   UNL     1       0.105  10.471  22.228  0.00  0.00    +0.000 A 
ATOM     18  C   UNL     1       0.321  10.885  20.973  0.00  0.00    +0.000 A 
ATOM     19  N   UNL     1       0.864  10.044  20.011  0.00  0.00    +0.000 N 
ENDBRANCH   8  12
ENDBRANCH   1   8
BRANCH   1  20
ATOM     20  C   UNL     1       2.985   5.147  17.778  0.00  0.00    +0.000 C 
BRANCH  20  21
ATOM     21  C   UNL     1       2.271   4.374  18.874  0.00  0.00    +0.000 A 
ATOM     22  C   UNL     1       1.347   3.364  18.569  0.00  0.00    +0.000 A 
ATOM     23  C   UNL     1       0.752   2.614  19.587  0.00  0.00    +0.000 A 
ATOM     24  C   UNL     1       1.076   2.862  20.920  0.00  0.00    +0.000 A 
ATOM     25  C   UNL     1       1.986   3.868  21.238  0.00  0.00    +0.000 A 
ATOM     26  C   UNL     1       2.583   4.616  20.220  0.00  0.00    +0.000 A 
ENDBRANCH  20  21
ENDBRANCH   1  20
TORSDOF 5
ENDMDL
MODEL 6
REMARK VINA RESULT:      -8.1      1.250      1.941
REMARK  Name = 
REMARK  5 active torsions:
REMARK  status: ('A' for Active; 'I' for Inactive)
REMARK    1  A    between atoms: C_4  and  C_5
REMARK    2  A    between atoms: C_5  and  N_6
REMARK    3  A    between atoms: N_6  and  C_7
REMARK    4  A    between atoms: N_6  and  C_14
REMARK    5  A    between atoms: C_7  and  C_8
REMARK                            x       y       z     vdW  Elec       q    Type
REMARK                         _______ _______ _______ _____ _____    ______ ____
ROOT
ATOM      1  N   UNL     1       3.467   6.367  18.262  0.00  0.00    +0.000 NA
ENDROOT
BRANCH   1   2
ATOM      2  C   UNL     1       4.861   6.174  17.760  0.00  0.00    +0.000 C 
ATOM      3  C   UNL     1       4.891   5.419  16.409  0.00  0.00    +0.000 C 
ATOM      4  C   UNL     1       6.306   5.301  15.847  0.00  0.00    +0.000 C 
ATOM      5  C   UNL     1       7.247   4.643  16.851  0.00  0.00    +0.000 C 
ATOM      6  C   UNL     1       7.251   5.394  18.176  0.00  0.00    +0.000 C 
ATOM      7  C   UNL     1       5.844   5.515  18.758  0.00  0.00    +0.000 C 
ENDBRANCH   1   2
BRANCH   1   8
ATOM      8  C   UNL     1       2.878   7.642  17.783  0.00  0.00    +0.000 C 
BRANCH   8  12
ATOM      9  O   UNL     1       0.750   8.551  22.033  0.00  0.00    +0.000 OA
ATOM     10  C   UNL     1       0.968   8.910  20.877  0.00  0.00    +0.000 A 
ATOM     11  C   UNL     1       1.879   8.110  20.043  0.00  0.00    +0.000 A 
ATOM     12  C   UNL     1       2.123   8.504  18.787  0.00  0.00    +0.000 A 
ATOM     13  N   UNL     1       1.665   9.694  18.274  0.00  0.00    +0.000 NA
ATOM     14  C   UNL     1       0.831  10.380  18.990  0.00  0.00    +0.000 A 
ATOM     15  C   UNL     1       0.287  11.650  18.433  0.00  0.00    +0.000 A 
ATOM     16  C   UNL     1      -0.686  12.296  19.086  0.00  0.00    +0.000 A 
ATOM     17  C   UNL     1      -1.187  11.786  20.334  0.00  0.00    +0.000 A 
ATOM     18  C   UNL     1      -0.622  10.707  20.890  0.00  0.00    +0.000 A 
ATOM     19  N   UNL     1       0.394  10.007  20.252  0.00  0.00    +0.000 N 
ENDBRANCH   8  12
ENDBRANCH   1   8
BRANCH   1  20
ATOM     20  C   UNL     1       2.581   5.230  17.902  0.00  0.00    +0.000 C 
BRANCH  20  21
ATOM     21  C   UNL     1       2.092   4.378  19.061  0.00  0.00    +0.000 A 
ATOM     22  C   UNL     1       1.271   3.261  18.849  0.00  0.00    +0.000 A 
ATOM     23  C   UNL     1       0.888   2.445  19.917  0.00  0.00    +0.000 A 
ATOM     24  C   UNL     1       1.325   2.735  21.209  0.00  0.00    +0.000 A 
ATOM     25  C   UNL     1       2.135   3.846  21.436  0.00  0.00    +0.000 A 
ATOM     26  C   UNL     1       2.519   4.659  20.368  0.00  0.00    +0.000 A 
ENDBRANCH  20  21
ENDBRANCH   1  20
TORSDOF 5
ENDMDL
MODEL 7
REMARK VINA RESULT:      -8.1      1.076      3.709
REMARK  Name = 
REMARK  5 active torsions:
REMARK  status: ('A' for Active; 'I' for Inactive)
REMARK    1  A    between atoms: C_4  and  C_5
REMARK    2  A    between atoms: C_5  and  N_6
REMARK    3  A    between atoms: N_6  and  C_7
REMARK    4  A    between atoms: N_6  and  C_14
REMARK    5  A    between atoms: C_7  and  C_8
REMARK                            x       y       z     vdW  Elec       q    Type
REMARK                         _______ _______ _______ _____ _____    ______ ____
ROOT
ATOM      1  N   UNL     1       2.736   6.301  18.367  0.00  0.00    +0.000 NA
ENDROOT
BRANCH   1   2
ATOM      2  C   UNL     1       2.877   4.825  18.557  0.00  0.00    +0.000 C 
ATOM      3  C   UNL     1       1.847   4.031  17.716  0.00  0.00    +0.000 C 
ATOM      4  C   UNL     1       2.048   2.522  17.837  0.00  0.00    +0.000 C 
ATOM      5  C   UNL     1       2.011   2.073  19.294  0.00  0.00    +0.000 C 
ATOM      6  C   UNL     1       3.041   2.824  20.127  0.00  0.00    +0.000 C 
ATOM      7  C   UNL     1       2.851   4.337  20.026  0.00  0.00    +0.000 C 
ENDBRANCH   1   2
BRANCH   1   8
ATOM      8  C   UNL     1       2.733   7.027  19.663  0.00  0.00    +0.000 C 
BRANCH   8  12
ATOM      9  O   UNL     1       0.372  11.067  18.431  0.00  0.00    +0.000 OA
ATOM     10  C   UNL     1       0.606  10.214  19.286  0.00  0.00    +0.000 A 
ATOM     11  C   UNL     1       1.457   9.066  18.932  0.00  0.00    +0.000 A 
ATOM     12  C   UNL     1       1.706   8.134  19.861  0.00  0.00    +0.000 A 
ATOM     13  N   UNL     1       1.102   8.126  21.095  0.00  0.00    +0.000 NA
ATOM     14  C   UNL     1       0.385   9.154  21.424  0.00  0.00    +0.000 A 
ATOM     15  C   UNL     1      -0.241   9.186  22.775  0.00  0.00    +0.000 A 
ATOM     16  C   UNL     1      -0.857  10.298  23.193  0.00  0.00    +0.000 A 
ATOM     17  C   UNL     1      -0.942  11.449  22.334  0.00  0.00    +0.000 A 
ATOM     18  C   UNL     1      -0.477  11.382  21.080  0.00  0.00    +0.000 A 
ATOM     19  N   UNL     1       0.165  10.249  20.600  0.00  0.00    +0.000 N 
ENDBRANCH   8  12
ENDBRANCH   1   8
BRANCH   1  20
ATOM     20  C   UNL     1       3.789   6.852  17.477  0.00  0.00    +0.000 C 
BRANCH  20  21
ATOM     21  C   UNL     1       5.023   5.984  17.294  0.00  0.00    +0.000 A 
ATOM     22  C   UNL     1       5.235   5.260  16.112  0.00  0.00    +0.000 A 
ATOM     23  C   UNL     1       6.408   4.523  15.930  0.00  0.00    +0.000 A 
ATOM     24  C   UNL     1       7.385   4.505  16.925  0.00  0.00    +0.000 A 
ATOM     25  C   UNL     1       7.184   5.215  18.107  0.00  0.00    +0.000 A 
ATOM     26  C   UNL     1       6.012   5.953  18.288  0.00  0.00    +0.000 A 
ENDBRANCH  20  21
ENDBRANCH   1  20
TORSDOF 5
ENDMDL
MODEL 8
REMARK VINA RESULT:      -8.1      0.898      1.189
REMARK  Name = 
REMARK  5 active torsions:
REMARK  status: ('A' for Active; 'I' for Inactive)
REMARK    1  A    between atoms: C_4  and  C_5
REMARK    2  A    between atoms: C_5  and  N_6
REMARK    3  A    between atoms: N_6  and  C_7
REMARK    4  A    between atoms: N_6  and  C_14
REMARK    5  A    between atoms: C_7  and  C_8
REMARK                            x       y       z     vdW  Elec       q    Type
REMARK                         _______ _______ _______ _____ _____    ______ ____
ROOT
ATOM      1  N   UNL     1       3.666   6.118  18.299  0.00  0.00    +0.000 NA
ENDROOT
BRANCH   1   2
ATOM      2  C   UNL     1       4.902   5.579  17.656  0.00  0.00    +0.000 C 
ATOM      3  C   UNL     1       5.836   6.708  17.156  0.00  0.00    +0.000 C 
ATOM      4  C   UNL     1       7.142   6.162  16.582  0.00  0.00    +0.000 C 
ATOM      5  C   UNL     1       6.878   5.153  15.469  0.00  0.00    +0.000 C 
ATOM      6  C   UNL     1       5.985   4.019  15.956  0.00  0.00    +0.000 C 
ATOM      7  C   UNL     1       4.670   4.545  16.527  0.00  0.00    +0.000 C 
ENDBRANCH   1   2
BRANCH   1   8
ATOM      8  C   UNL     1       3.283   7.438  17.739  0.00  0.00    +0.000 C 
BRANCH   8  12
ATOM      9  O   UNL     1      -0.251  10.738  17.948  0.00  0.00    +0.000 OA
ATOM     10  C   UNL     1       0.460   9.930  18.544  0.00  0.00    +0.000 A 
ATOM     11  C   UNL     1       1.385   9.088  17.769  0.00  0.00    +0.000 A 
ATOM     12  C   UNL     1       2.153   8.204  18.418  0.00  0.00    +0.000 A 
ATOM     13  N   UNL     1       2.031   7.949  19.763  0.00  0.00    +0.000 NA
ATOM     14  C   UNL     1       1.248   8.716  20.454  0.00  0.00    +0.000 A 
ATOM     15  C   UNL     1       1.137   8.487  21.921  0.00  0.00    +0.000 A 
ATOM     16  C   UNL     1       0.456   9.356  22.677  0.00  0.00    +0.000 A 
ATOM     17  C   UNL     1      -0.192  10.491  22.076  0.00  0.00    +0.000 A 
ATOM     18  C   UNL     1      -0.186  10.636  20.745  0.00  0.00    +0.000 A 
ATOM     19  N   UNL     1       0.503   9.757  19.920  0.00  0.00    +0.000 N 
ENDBRANCH   8  12
ENDBRANCH   1   8
BRANCH   1  20
ATOM     20  C   UNL     1       2.526   5.172  18.199  0.00  0.00    +0.000 C 
BRANCH  20  21
ATOM     21  C   UNL     1       2.328   4.246  19.386  0.00  0.00    +0.000 A 
ATOM     22  C   UNL     1       1.058   4.042  19.947  0.00  0.00    +0.000 A 
ATOM     23  C   UNL     1       0.880   3.133  20.993  0.00  0.00    +0.000 A 
ATOM     24  C   UNL     1       1.967   2.414  21.488  0.00  0.00    +0.000 A 
ATOM     25  C   UNL     1       3.235   2.611  20.945  0.00  0.00    +0.000 A 
ATOM     26  C   UNL     1       3.413   3.518  19.898  0.00  0.00    +0.000 A 
ENDBRANCH  20  21
ENDBRANCH   1  20
TORSDOF 5
ENDMDL
MODEL 9
REMARK VINA RESULT:      -8.1      1.052      4.047
REMARK  Name = 
REMARK  5 active torsions:
REMARK  status: ('A' for Active; 'I' for Inactive)
REMARK    1  A    between atoms: C_4  and  C_5
REMARK    2  A    between atoms: C_5  and  N_6
REMARK    3  A    between atoms: N_6  and  C_7
REMARK    4  A    between atoms: N_6  and  C_14
REMARK    5  A    between atoms: C_7  and  C_8
REMARK                            x       y       z     vdW  Elec       q    Type
REMARK                         _______ _______ _______ _____ _____    ______ ____
ROOT
ATOM      1  N   UNL     1       2.610   6.000  18.403  0.00  0.00    +0.000 NA
ENDROOT
BRANCH   1   2
ATOM      2  C   UNL     1       2.440   4.684  19.089  0.00  0.00    +0.000 C 
ATOM      3  C   UNL     1       1.455   3.759  18.332  0.00  0.00    +0.000 C 
ATOM      4  C   UNL     1       1.350   2.380  18.979  0.00  0.00    +0.000 C 
ATOM      5  C   UNL     1       0.962   2.486  20.450  0.00  0.00    +0.000 C 
ATOM      6  C   UNL     1       1.941   3.368  21.214  0.00  0.00    +0.000 C 
ATOM      7  C   UNL     1       2.054   4.757  20.586  0.00  0.00    +0.000 C 
ENDBRANCH   1   2
BRANCH   1   8
ATOM      8  C   UNL     1       2.914   7.089  19.366  0.00  0.00    +0.000 C 
BRANCH   8  12
ATOM      9  O   UNL     1       0.288  11.010  18.294  0.00  0.00    +0.000 OA
ATOM     10  C   UNL     1       0.605  10.161  19.127  0.00  0.00    +0.000 A 
ATOM     11  C   UNL     1       1.499   9.065  18.720  0.00  0.00    +0.000 A 
ATOM     12  C   UNL     1       1.839   8.137  19.624  0.00  0.00    +0.000 A 
ATOM     13  N   UNL     1       1.291   8.082  20.883  0.00  0.00    +0.000 NA
ATOM     14  C   UNL     1       0.535   9.067  21.257  0.00  0.00    +0.000 A 
ATOM     15  C   UNL     1      -0.031   9.049  22.634  0.00  0.00    +0.000 A 
ATOM     16  C   UNL     1      -0.686  10.122  23.094  0.00  0.00    +0.000 A 
ATOM     17  C   UNL     1      -0.871  11.276  22.256  0.00  0.00    +0.000 A 
ATOM     18  C   UNL     1      -0.459  11.249  20.982  0.00  0.00    +0.000 A 
ATOM     19  N   UNL     1       0.221  10.157  20.459  0.00  0.00    +0.000 N 
ENDBRANCH   8  12
ENDBRANCH   1   8
BRANCH   1  20
ATOM     20  C   UNL     1       3.653   5.949  17.347  0.00  0.00    +0.000 C 
BRANCH  20  21
ATOM     21  C   UNL     1       5.086   6.115  17.822  0.00  0.00    +0.000 A 
ATOM     22  C   UNL     1       5.605   5.328  18.860  0.00  0.00    +0.000 A 
ATOM     23  C   UNL     1       6.945   5.442  19.239  0.00  0.00    +0.000 A 
ATOM     24  C   UNL     1       7.783   6.342  18.581  0.00  0.00    +0.000 A 
ATOM     25  C   UNL     1       7.279   7.136  17.552  0.00  0.00    +0.000 A 
ATOM     26  C   UNL     1       5.940   7.020  17.173  0.00  0.00    +0.000 A 
ENDBRANCH  20  21
ENDBRANCH   1  20
TORSDOF 5
ENDMDL
