MODEL 1
REMARK VINA RESULT:      -9.1      0.000      0.000
REMARK  Name = 
REMARK  8 active torsions:
REMARK  status: ('A' for Active; 'I' for Inactive)
REMARK    1  A    between atoms: C_1  and  C_2
REMARK    2  A    between atoms: C_2  and  N_3
REMARK    3  A    between atoms: C_7  and  C_8
REMARK    4  A    between atoms: C_8  and  C_9
REMARK    5  A    between atoms: C_9  and  C_10
REMARK    6  A    between atoms: C_14  and  N_15
REMARK    7  A    between atoms: C_20  and  C_21
REMARK    8  A    between atoms: C_23  and  C_24
REMARK                            x       y       z     vdW  Elec       q    Type
REMARK                         _______ _______ _______ _____ _____    ______ ____
ROOT
ATOM      1  C   UNL     1       1.818   7.214  20.000  0.00  0.00    +0.000 A 
ATOM      2  C   UNL     1       2.340   8.140  19.094  0.00  0.00    +0.000 A 
ATOM      3  C   UNL     1       3.007   7.718  17.938  0.00  0.00    +0.000 A 
ATOM      4  C   UNL     1       3.281   6.366  17.768  0.00  0.00    +0.000 A 
ATOM      5  C   UNL     1       3.026   5.475  18.825  0.00  0.00    +0.000 A 
ATOM      6  C   UNL     1       2.136   5.857  19.830  0.00  0.00    +0.000 A 
ENDROOT
BRANCH   5   7
ATOM      7  N   UNL     1       4.048   4.487  19.179  0.00  0.00    +0.000 N 
ATOM      8  C   UNL     1       5.376   5.139  19.264  0.00  0.00    +0.000 C 
ATOM      9  C   UNL     1       5.904   4.977  17.874  0.00  0.00    +0.000 A 
ATOM     10  C   UNL     1       5.295   3.839  17.332  0.00  0.00    +0.000 A 
ATOM     11  C   UNL     1       5.426   3.467  16.010  0.00  0.00    +0.000 A 
ATOM     12  C   UNL     1       6.191   4.289  15.183  0.00  0.00    +0.000 A 
ATOM     13  C   UNL     1       6.299   4.004  13.709  0.00  0.00    +0.000 C 
ATOM     14  C   UNL     1       6.801   5.452  15.711  0.00  0.00    +0.000 A 
ATOM     15  C   UNL     1       6.664   5.815  17.071  0.00  0.00    +0.000 A 
ATOM     16  C   UNL     1       4.213   3.431  18.257  0.00  0.00    +0.000 C 
ATOM     17  O   UNL     1       3.489   2.464  18.075  0.00  0.00    +0.000 OA
BRANCH  15  18
ATOM     18  C   UNL     1       7.253   7.120  17.548  0.00  0.00    +0.000 C 
ATOM     19  F   UNL     1       8.131   7.687  16.680  0.00  0.00    +0.000 F 
ATOM     20  F   UNL     1       6.297   8.066  17.770  0.00  0.00    +0.000 F 
ATOM     21  F   UNL     1       7.925   6.988  18.725  0.00  0.00    +0.000 F 
ENDBRANCH  15  18
ENDBRANCH   5   7
BRANCH   1  22
ATOM     22  C   UNL     1       1.039   7.656  21.210  0.00  0.00    +0.000 C 
BRANCH  22  23
ATOM     23  C   UNL     1       1.590   8.952  21.805  0.00  0.00    +0.000 C 
BRANCH  23  28
ATOM     24  N   UNL     1      -0.103  10.800  21.318  0.00  0.00    +0.000 N 
ATOM     25  C   UNL     1      -1.008  11.478  22.086  0.00  0.00    +0.000 A 
ATOM     26  N   UNL     1      -0.990  11.006  23.308  0.00  0.00    +0.000 NA
ATOM     27  N   UNL     1      -0.045  10.015  23.355  0.00  0.00    +0.000 NA
ATOM     28  C   UNL     1       0.493   9.891  22.156  0.00  0.00    +0.000 A 
BRANCH  24  30
ATOM     29  C   UNL     1      -0.848  10.285  19.023  0.00  0.00    +0.000 C 
ATOM     30  C   UNL     1       0.119  11.041  19.911  0.00  0.00    +0.000 C 
ENDBRANCH  24  30
ENDBRANCH  23  28
ENDBRANCH  22  23
ENDBRANCH   1  22
TORSDOF 6
ENDMDL
MODEL 2
REMARK VINA RESULT:      -8.7      0.897      1.240
REMARK  Name = 
REMARK  8 active torsions:
REMARK  status: ('A' for Active; 'I' for Inactive)
REMARK    1  A    between atoms: C_1  and  C_2
REMARK    2  A    between atoms: C_2  and  N_3
REMARK    3  A    between atoms: C_7  and  C_8
REMARK    4  A    between atoms: C_8  and  C_9
REMARK    5  A    between atoms: C_9  and  C_10
REMARK    6  A    between atoms: C_14  and  N_15
REMARK    7  A    between atoms: C_20  and  C_21
REMARK    8  A    between atoms: C_23  and  C_24
REMARK                            x       y       z     vdW  Elec       q    Type
REMARK                         _______ _______ _______ _____ _____    ______ ____
ROOT
ATOM      1  C   UNL     1       1.993   7.477  20.040  0.00  0.00    +0.000 A 
ATOM      2  C   UNL     1       2.426   8.246  18.958  0.00  0.00    +0.000 A 
ATOM      3  C   UNL     1       2.892   7.641  17.785  0.00  0.00    +0.000 A 
ATOM      4  C   UNL     1       3.063   6.261  17.755  0.00  0.00    +0.000 A 
ATOM      5  C   UNL     1       2.918   5.526  18.945  0.00  0.00    +0.000 A 
ATOM      6  C   UNL     1       2.209   6.090  20.006  0.00  0.00    +0.000 A 
ENDROOT
BRANCH   5   7
ATOM      7  N   UNL     1       3.926   4.515  19.279  0.00  0.00    +0.000 N 
ATOM      8  C   UNL     1       5.269   5.139  19.338  0.00  0.00    +0.000 C 
ATOM      9  C   UNL     1       5.766   4.967  17.938  0.00  0.00    +0.000 A 
ATOM     10  C   UNL     1       5.123   3.843  17.407  0.00  0.00    +0.000 A 
ATOM     11  C   UNL     1       5.220   3.470  16.082  0.00  0.00    +0.000 A 
ATOM     12  C   UNL     1       5.987   4.277  15.242  0.00  0.00    +0.000 A 
ATOM     13  C   UNL     1       6.060   3.991  13.766  0.00  0.00    +0.000 C 
ATOM     14  C   UNL     1       6.631   5.426  15.759  0.00  0.00    +0.000 A 
ATOM     15  C   UNL     1       6.528   5.790  17.122  0.00  0.00    +0.000 A 
ATOM     16  C   UNL     1       4.051   3.457  18.352  0.00  0.00    +0.000 C 
ATOM     17  O   UNL     1       3.303   2.507  18.184  0.00  0.00    +0.000 OA
BRANCH  15  18
ATOM     18  C   UNL     1       7.155   7.082  17.588  0.00  0.00    +0.000 C 
ATOM     19  F   UNL     1       6.266   8.084  17.812  0.00  0.00    +0.000 F 
ATOM     20  F   UNL     1       7.838   6.929  18.758  0.00  0.00    +0.000 F 
ATOM     21  F   UNL     1       8.056   7.575  16.693  0.00  0.00    +0.000 F 
ENDBRANCH  15  18
ENDBRANCH   5   7
BRANCH   1  22
ATOM     22  C   UNL     1       1.427   8.118  21.279  0.00  0.00    +0.000 C 
BRANCH  22  23
ATOM     23  C   UNL     1       0.083   8.796  21.011  0.00  0.00    +0.000 C 
BRANCH  23  28
ATOM     24  N   UNL     1      -0.426  11.112  20.064  0.00  0.00    +0.000 N 
ATOM     25  C   UNL     1       0.072  12.361  20.304  0.00  0.00    +0.000 A 
ATOM     26  N   UNL     1       0.963  12.303  21.264  0.00  0.00    +0.000 NA
ATOM     27  N   UNL     1       1.069  10.993  21.650  0.00  0.00    +0.000 NA
ATOM     28  C   UNL     1       0.234  10.273  20.925  0.00  0.00    +0.000 A 
BRANCH  24  30
ATOM     29  C   UNL     1      -0.903  10.134  17.849  0.00  0.00    +0.000 C 
ATOM     30  C   UNL     1      -1.450  10.814  19.088  0.00  0.00    +0.000 C 
ENDBRANCH  24  30
ENDBRANCH  23  28
ENDBRANCH  22  23
ENDBRANCH   1  22
TORSDOF 6
ENDMDL
MODEL 3
REMARK VINA RESULT:      -8.6      4.383      6.740
REMARK  Name = 
REMARK  8 active torsions:
REMARK  status: ('A' for Active; 'I' for Inactive)
REMARK    1  A    between atoms: C_1  and  C_2
REMARK    2  A    between atoms: C_2  and  N_3
REMARK    3  A    between atoms: C_7  and  C_8
REMARK    4  A    between atoms: C_8  and  C_9
REMARK    5  A    between atoms: C_9  and  C_10
REMARK    6  A    between atoms: C_14  and  N_15
REMARK    7  A    between atoms: C_20  and  C_21
REMARK    8  A    between atoms: C_23  and  C_24
REMARK                            x       y       z     vdW  Elec       q    Type
REMARK                         _______ _______ _______ _____ _____    ______ ____
ROOT
ATOM      1  C   UNL     1       7.798   7.580  17.794  0.00  0.00    +0.000 A 
ATOM      2  C   UNL     1       7.756   6.754  18.920  0.00  0.00    +0.000 A 
ATOM      3  C   UNL     1       7.654   5.364  18.790  0.00  0.00    +0.000 A 
ATOM      4  C   UNL     1       7.443   4.814  17.531  0.00  0.00    +0.000 A 
ATOM      5  C   UNL     1       7.178   5.667  16.445  0.00  0.00    +0.000 A 
ATOM      6  C   UNL     1       7.546   7.011  16.536  0.00  0.00    +0.000 A 
ENDROOT
BRANCH   5   7
ATOM      7  N   UNL     1       6.076   5.337  15.538  0.00  0.00    +0.000 N 
ATOM      8  C   UNL     1       4.927   6.239  15.788  0.00  0.00    +0.000 C 
ATOM      9  C   UNL     1       4.133   5.477  16.802  0.00  0.00    +0.000 A 
ATOM     10  C   UNL     1       4.416   4.119  16.610  0.00  0.00    +0.000 A 
ATOM     11  C   UNL     1       3.980   3.128  17.464  0.00  0.00    +0.000 A 
ATOM     12  C   UNL     1       3.240   3.519  18.579  0.00  0.00    +0.000 A 
ATOM     13  C   UNL     1       2.814   2.506  19.609  0.00  0.00    +0.000 C 
ATOM     14  C   UNL     1       2.958   4.888  18.797  0.00  0.00    +0.000 A 
ATOM     15  C   UNL     1       3.405   5.893  17.906  0.00  0.00    +0.000 A 
ATOM     16  C   UNL     1       5.555   4.031  15.669  0.00  0.00    +0.000 C 
ATOM     17  O   UNL     1       6.046   2.979  15.289  0.00  0.00    +0.000 OA
BRANCH  15  18
ATOM     18  C   UNL     1       3.160   7.342  18.249  0.00  0.00    +0.000 C 
ATOM     19  F   UNL     1       2.199   7.939  17.497  0.00  0.00    +0.000 F 
ATOM     20  F   UNL     1       2.764   7.504  19.544  0.00  0.00    +0.000 F 
ATOM     21  F   UNL     1       4.278   8.107  18.103  0.00  0.00    +0.000 F 
ENDBRANCH  15  18
ENDBRANCH   5   7
BRANCH   1  22
ATOM     22  C   UNL     1       7.976   9.069  17.922  0.00  0.00    +0.000 C 
BRANCH  22  23
ATOM     23  C   UNL     1       8.979   9.435  19.018  0.00  0.00    +0.000 C 
BRANCH  23  28
ATOM     24  N   UNL     1       9.422  11.794  19.888  0.00  0.00    +0.000 N 
ATOM     25  C   UNL     1       9.848  12.952  19.302  0.00  0.00    +0.000 A 
ATOM     26  N   UNL     1      10.114  12.734  18.037  0.00  0.00    +0.000 NA
ATOM     27  N   UNL     1       9.839  11.417  17.778  0.00  0.00    +0.000 NA
ATOM     28  C   UNL     1       9.419  10.849  18.893  0.00  0.00    +0.000 A 
BRANCH  24  30
ATOM     29  C   UNL     1       9.325  12.932  22.076  0.00  0.00    +0.000 C 
ATOM     30  C   UNL     1       9.070  11.665  21.283  0.00  0.00    +0.000 C 
ENDBRANCH  24  30
ENDBRANCH  23  28
ENDBRANCH  22  23
ENDBRANCH   1  22
TORSDOF 6
ENDMDL
MODEL 4
REMARK VINA RESULT:      -8.5      4.356      7.052
REMARK  Name = 
REMARK  8 active torsions:
REMARK  status: ('A' for Active; 'I' for Inactive)
REMARK    1  A    between atoms: C_1  and  C_2
REMARK    2  A    between atoms: C_2  and  N_3
REMARK    3  A    between atoms: C_7  and  C_8
REMARK    4  A    between atoms: C_8  and  C_9
REMARK    5  A    between atoms: C_9  and  C_10
REMARK    6  A    between atoms: C_14  and  N_15
REMARK    7  A    between atoms: C_20  and  C_21
REMARK    8  A    between atoms: C_23  and  C_24
REMARK                            x       y       z     vdW  Elec       q    Type
REMARK                         _______ _______ _______ _____ _____    ______ ____
ROOT
ATOM      1  C   UNL     1       7.683   7.730  17.770  0.00  0.00    +0.000 A 
ATOM      2  C   UNL     1       7.755   6.915  18.902  0.00  0.00    +0.000 A 
ATOM      3  C   UNL     1       7.769   5.520  18.784  0.00  0.00    +0.000 A 
ATOM      4  C   UNL     1       7.558   4.942  17.538  0.00  0.00    +0.000 A 
ATOM      5  C   UNL     1       7.180   5.759  16.457  0.00  0.00    +0.000 A 
ATOM      6  C   UNL     1       7.433   7.129  16.525  0.00  0.00    +0.000 A 
ENDROOT
BRANCH   5   7
ATOM      7  N   UNL     1       6.077   5.326  15.596  0.00  0.00    +0.000 N 
ATOM      8  C   UNL     1       4.900   6.203  15.802  0.00  0.00    +0.000 C 
ATOM      9  C   UNL     1       4.150   5.487  16.881  0.00  0.00    +0.000 A 
ATOM     10  C   UNL     1       4.479   4.131  16.781  0.00  0.00    +0.000 A 
ATOM     11  C   UNL     1       4.092   3.188  17.711  0.00  0.00    +0.000 A 
ATOM     12  C   UNL     1       3.355   3.631  18.808  0.00  0.00    +0.000 A 
ATOM     13  C   UNL     1       2.983   2.680  19.914  0.00  0.00    +0.000 C 
ATOM     14  C   UNL     1       3.028   5.003  18.934  0.00  0.00    +0.000 A 
ATOM     15  C   UNL     1       3.424   5.956  17.966  0.00  0.00    +0.000 A 
ATOM     16  C   UNL     1       5.606   4.016  15.829  0.00  0.00    +0.000 C 
ATOM     17  O   UNL     1       6.129   2.957  15.515  0.00  0.00    +0.000 OA
BRANCH  15  18
ATOM     18  C   UNL     1       3.132   7.416  18.210  0.00  0.00    +0.000 C 
ATOM     19  F   UNL     1       2.182   7.940  17.392  0.00  0.00    +0.000 F 
ATOM     20  F   UNL     1       2.690   7.648  19.479  0.00  0.00    +0.000 F 
ATOM     21  F   UNL     1       4.235   8.200  18.052  0.00  0.00    +0.000 F 
ENDBRANCH  15  18
ENDBRANCH   5   7
BRANCH   1  22
ATOM     22  C   UNL     1       7.738   9.231  17.881  0.00  0.00    +0.000 C 
BRANCH  22  23
ATOM     23  C   UNL     1       9.049   9.713  18.501  0.00  0.00    +0.000 C 
BRANCH  23  28
ATOM     24  N   UNL     1      10.520  11.786  18.260  0.00  0.00    +0.000 N 
ATOM     25  C   UNL     1      10.276  13.079  17.893  0.00  0.00    +0.000 A 
ATOM     26  N   UNL     1       9.015  13.213  17.563  0.00  0.00    +0.000 NA
ATOM     27  N   UNL     1       8.412  11.995  17.734  0.00  0.00    +0.000 NA
ATOM     28  C   UNL     1       9.317  11.134  18.157  0.00  0.00    +0.000 A 
BRANCH  24  30
ATOM     29  C   UNL     1      12.333  11.917  19.928  0.00  0.00    +0.000 C 
ATOM     30  C   UNL     1      11.813  11.279  18.656  0.00  0.00    +0.000 C 
ENDBRANCH  24  30
ENDBRANCH  23  28
ENDBRANCH  22  23
ENDBRANCH   1  22
TORSDOF 6
ENDMDL
MODEL 5
REMARK VINA RESULT:      -8.4      4.260      6.574
REMARK  Name = 
REMARK  8 active torsions:
REMARK  status: ('A' for Active; 'I' for Inactive)
REMARK    1  A    between atoms: C_1  and  C_2
REMARK    2  A    between atoms: C_2  and  N_3
REMARK    3  A    between atoms: C_7  and  C_8
REMARK    4  A    between atoms: C_8  and  C_9
REMARK    5  A    between atoms: C_9  and  C_10
REMARK    6  A    between atoms: C_14  and  N_15
REMARK    7  A    between atoms: C_20  and  C_21
REMARK    8  A    between atoms: C_23  and  C_24
REMARK                            x       y       z     vdW  Elec       q    Type
REMARK                         _______ _______ _______ _____ _____    ______ ____
ROOT
ATOM      1  C   UNL     1       7.747   7.665  17.895  0.00  0.00    +0.000 A 
ATOM      2  C   UNL     1       7.723   6.804  18.995  0.00  0.00    +0.000 A 
ATOM      3  C   UNL     1       7.665   5.416  18.823  0.00  0.00    +0.000 A 
ATOM      4  C   UNL     1       7.478   4.899  17.546  0.00  0.00    +0.000 A 
ATOM      5  C   UNL     1       7.195   5.776  16.484  0.00  0.00    +0.000 A 
ATOM      6  C   UNL     1       7.521   7.127  16.618  0.00  0.00    +0.000 A 
ENDROOT
BRANCH   5   7
ATOM      7  N   UNL     1       6.109   5.440  15.560  0.00  0.00    +0.000 N 
ATOM      8  C   UNL     1       4.936   6.309  15.819  0.00  0.00    +0.000 C 
ATOM      9  C   UNL     1       4.153   5.504  16.808  0.00  0.00    +0.000 A 
ATOM     10  C   UNL     1       4.470   4.159  16.588  0.00  0.00    +0.000 A 
ATOM     11  C   UNL     1       4.051   3.138  17.416  0.00  0.00    +0.000 A 
ATOM     12  C   UNL     1       3.291   3.485  18.532  0.00  0.00    +0.000 A 
ATOM     13  C   UNL     1       2.882   2.439  19.534  0.00  0.00    +0.000 C 
ATOM     14  C   UNL     1       2.975   4.842  18.778  0.00  0.00    +0.000 A 
ATOM     15  C   UNL     1       3.405   5.877  17.915  0.00  0.00    +0.000 A 
ATOM     16  C   UNL     1       5.620   4.120  15.656  0.00  0.00    +0.000 C 
ATOM     17  O   UNL     1       6.139   3.089  15.257  0.00  0.00    +0.000 OA
BRANCH  15  18
ATOM     18  C   UNL     1       3.121   7.312  18.288  0.00  0.00    +0.000 C 
ATOM     19  F   UNL     1       2.745   7.489  19.581  0.00  0.00    +0.000 F 
ATOM     20  F   UNL     1       4.209   8.114  18.110  0.00  0.00    +0.000 F 
ATOM     21  F   UNL     1       2.129   7.859  17.532  0.00  0.00    +0.000 F 
ENDBRANCH  15  18
ENDBRANCH   5   7
BRANCH   1  22
ATOM     22  C   UNL     1       7.880   9.155  18.068  0.00  0.00    +0.000 C 
BRANCH  22  23
ATOM     23  C   UNL     1       9.273   9.553  18.557  0.00  0.00    +0.000 C 
BRANCH  23  28
ATOM     24  N   UNL     1       9.223  12.055  19.066  0.00  0.00    +0.000 N 
ATOM     25  C   UNL     1       9.207  12.784  20.221  0.00  0.00    +0.000 A 
ATOM     26  N   UNL     1       9.164  11.975  21.251  0.00  0.00    +0.000 NA
ATOM     27  N   UNL     1       9.171  10.692  20.771  0.00  0.00    +0.000 NA
ATOM     28  C   UNL     1       9.209  10.738  19.453  0.00  0.00    +0.000 A 
BRANCH  24  30
ATOM     29  C   UNL     1      10.638  12.951  17.254  0.00  0.00    +0.000 C 
ATOM     30  C   UNL     1       9.239  12.626  17.739  0.00  0.00    +0.000 C 
ENDBRANCH  24  30
ENDBRANCH  23  28
ENDBRANCH  22  23
ENDBRANCH   1  22
TORSDOF 6
ENDMDL
MODEL 6
REMARK VINA RESULT:      -8.3      0.923      1.645
REMARK  Name = 
REMARK  8 active torsions:
REMARK  status: ('A' for Active; 'I' for Inactive)
REMARK    1  A    between atoms: C_1  and  C_2
REMARK    2  A    between atoms: C_2  and  N_3
REMARK    3  A    between atoms: C_7  and  C_8
REMARK    4  A    between atoms: C_8  and  C_9
REMARK    5  A    between atoms: C_9  and  C_10
REMARK    6  A    between atoms: C_14  and  N_15
REMARK    7  A    between atoms: C_20  and  C_21
REMARK    8  A    between atoms: C_23  and  C_24
REMARK                            x       y       z     vdW  Elec       q    Type
REMARK                         _______ _______ _______ _____ _____    ______ ____
ROOT
ATOM      1  C   UNL     1       2.043   7.752  19.794  0.00  0.00    +0.000 A 
ATOM      2  C   UNL     1       2.507   8.432  18.666  0.00  0.00    +0.000 A 
ATOM      3  C   UNL     1       2.950   7.735  17.536  0.00  0.00    +0.000 A 
ATOM      4  C   UNL     1       3.067   6.351  17.596  0.00  0.00    +0.000 A 
ATOM      5  C   UNL     1       2.893   5.700  18.829  0.00  0.00    +0.000 A 
ATOM      6  C   UNL     1       2.205   6.358  19.849  0.00  0.00    +0.000 A 
ENDROOT
BRANCH   5   7
ATOM      7  N   UNL     1       3.860   4.675  19.231  0.00  0.00    +0.000 N 
ATOM      8  C   UNL     1       5.216   5.266  19.322  0.00  0.00    +0.000 C 
ATOM      9  C   UNL     1       5.760   5.038  17.947  0.00  0.00    +0.000 A 
ATOM     10  C   UNL     1       5.107   3.915  17.427  0.00  0.00    +0.000 A 
ATOM     11  C   UNL     1       5.244   3.499  16.118  0.00  0.00    +0.000 A 
ATOM     12  C   UNL     1       6.062   4.260  15.284  0.00  0.00    +0.000 A 
ATOM     13  C   UNL     1       6.182   3.927  13.820  0.00  0.00    +0.000 C 
ATOM     14  C   UNL     1       6.717   5.407  15.790  0.00  0.00    +0.000 A 
ATOM     15  C   UNL     1       6.574   5.816  17.136  0.00  0.00    +0.000 A 
ATOM     16  C   UNL     1       3.991   3.586  18.342  0.00  0.00    +0.000 C 
ATOM     17  O   UNL     1       3.225   2.650  18.174  0.00  0.00    +0.000 OA
BRANCH  15  18
ATOM     18  C   UNL     1       7.217   7.105  17.587  0.00  0.00    +0.000 C 
ATOM     19  F   UNL     1       8.113   7.620  16.706  0.00  0.00    +0.000 F 
ATOM     20  F   UNL     1       6.299   8.092  17.795  0.00  0.00    +0.000 F 
ATOM     21  F   UNL     1       7.888   6.967  18.764  0.00  0.00    +0.000 F 
ENDBRANCH  15  18
ENDBRANCH   5   7
BRANCH   1  22
ATOM     22  C   UNL     1       1.501   8.492  20.988  0.00  0.00    +0.000 C 
BRANCH  22  23
ATOM     23  C   UNL     1      -0.019   8.648  20.923  0.00  0.00    +0.000 C 
BRANCH  23  28
ATOM     24  N   UNL     1      -0.561  11.142  20.844  0.00  0.00    +0.000 N 
ATOM     25  C   UNL     1      -0.968  11.990  19.853  0.00  0.00    +0.000 A 
ATOM     26  N   UNL     1      -1.032  11.339  18.717  0.00  0.00    +0.000 NA
ATOM     27  N   UNL     1      -0.682  10.038  18.965  0.00  0.00    +0.000 NA
ATOM     28  C   UNL     1      -0.400   9.917  20.248  0.00  0.00    +0.000 A 
BRANCH  24  30
ATOM     29  C   UNL     1      -1.572  11.297  23.090  0.00  0.00    +0.000 C 
ATOM     30  C   UNL     1      -0.354  11.533  22.220  0.00  0.00    +0.000 C 
ENDBRANCH  24  30
ENDBRANCH  23  28
ENDBRANCH  22  23
ENDBRANCH   1  22
TORSDOF 6
ENDMDL
MODEL 7
REMARK VINA RESULT:      -8.3      3.652      7.902
REMARK  Name = 
REMARK  8 active torsions:
REMARK  status: ('A' for Active; 'I' for Inactive)
REMARK    1  A    between atoms: C_1  and  C_2
REMARK    2  A    between atoms: C_2  and  N_3
REMARK    3  A    between atoms: C_7  and  C_8
REMARK    4  A    between atoms: C_8  and  C_9
REMARK    5  A    between atoms: C_9  and  C_10
REMARK    6  A    between atoms: C_14  and  N_15
REMARK    7  A    between atoms: C_20  and  C_21
REMARK    8  A    between atoms: C_23  and  C_24
REMARK                            x       y       z     vdW  Elec       q    Type
REMARK                         _______ _______ _______ _____ _____    ______ ____
ROOT
ATOM      1  C   UNL     1       2.045   4.023  18.476  0.00  0.00    +0.000 A 
ATOM      2  C   UNL     1       1.853   3.528  19.768  0.00  0.00    +0.000 A 
ATOM      3  C   UNL     1       1.374   4.354  20.792  0.00  0.00    +0.000 A 
ATOM      4  C   UNL     1       1.230   5.716  20.552  0.00  0.00    +0.000 A 
ATOM      5  C   UNL     1       1.715   6.257  19.349  0.00  0.00    +0.000 A 
ATOM      6  C   UNL     1       1.930   5.406  18.264  0.00  0.00    +0.000 A 
ENDROOT
BRANCH   5   7
ATOM      7  N   UNL     1       2.503   7.491  19.396  0.00  0.00    +0.000 N 
ATOM      8  C   UNL     1       2.175   8.256  20.622  0.00  0.00    +0.000 C 
ATOM      9  C   UNL     1       1.068   9.149  20.157  0.00  0.00    +0.000 A 
ATOM     10  C   UNL     1       1.243   9.341  18.782  0.00  0.00    +0.000 A 
ATOM     11  C   UNL     1       0.321   9.987  17.985  0.00  0.00    +0.000 A 
ATOM     12  C   UNL     1      -0.845  10.447  18.594  0.00  0.00    +0.000 A 
ATOM     13  C   UNL     1      -1.942  11.073  17.774  0.00  0.00    +0.000 C 
ATOM     14  C   UNL     1      -1.046  10.248  19.981  0.00  0.00    +0.000 A 
ATOM     15  C   UNL     1      -0.086   9.591  20.787  0.00  0.00    +0.000 A 
ATOM     16  C   UNL     1       2.283   8.390  18.329  0.00  0.00    +0.000 C 
ATOM     17  O   UNL     1       2.675   8.306  17.176  0.00  0.00    +0.000 OA
BRANCH  15  18
ATOM     18  C   UNL     1      -0.405   9.319  22.237  0.00  0.00    +0.000 C 
ATOM     19  F   UNL     1      -1.270  10.205  22.794  0.00  0.00    +0.000 F 
ATOM     20  F   UNL     1      -0.970   8.092  22.418  0.00  0.00    +0.000 F 
ATOM     21  F   UNL     1       0.706   9.336  23.025  0.00  0.00    +0.000 F 
ENDBRANCH  15  18
ENDBRANCH   5   7
BRANCH   1  22
ATOM     22  C   UNL     1       2.494   3.127  17.352  0.00  0.00    +0.000 C 
BRANCH  22  23
ATOM     23  C   UNL     1       3.867   2.510  17.624  0.00  0.00    +0.000 C 
BRANCH  23  28
ATOM     24  N   UNL     1       5.428   4.491  17.223  0.00  0.00    +0.000 N 
ATOM     25  C   UNL     1       6.301   5.181  18.015  0.00  0.00    +0.000 A 
ATOM     26  N   UNL     1       6.250   4.713  19.238  0.00  0.00    +0.000 NA
ATOM     27  N   UNL     1       5.345   3.685  19.250  0.00  0.00    +0.000 NA
ATOM     28  C   UNL     1       4.850   3.547  18.035  0.00  0.00    +0.000 A 
BRANCH  24  30
ATOM     29  C   UNL     1       6.003   3.853  14.909  0.00  0.00    +0.000 C 
ATOM     30  C   UNL     1       5.205   4.763  15.821  0.00  0.00    +0.000 C 
ENDBRANCH  24  30
ENDBRANCH  23  28
ENDBRANCH  22  23
ENDBRANCH   1  22
TORSDOF 6
ENDMDL
MODEL 8
REMARK VINA RESULT:      -8.1      4.505      6.794
REMARK  Name = 
REMARK  8 active torsions:
REMARK  status: ('A' for Active; 'I' for Inactive)
REMARK    1  A    between atoms: C_1  and  C_2
REMARK    2  A    between atoms: C_2  and  N_3
REMARK    3  A    between atoms: C_7  and  C_8
REMARK    4  A    between atoms: C_8  and  C_9
REMARK    5  A    between atoms: C_9  and  C_10
REMARK    6  A    between atoms: C_14  and  N_15
REMARK    7  A    between atoms: C_20  and  C_21
REMARK    8  A    between atoms: C_23  and  C_24
REMARK                            x       y       z     vdW  Elec       q    Type
REMARK                         _______ _______ _______ _____ _____    ______ ____
ROOT
ATOM      1  C   UNL     1       7.779   7.774  17.697  0.00  0.00    +0.000 A 
ATOM      2  C   UNL     1       7.733   7.026  18.876  0.00  0.00    +0.000 A 
ATOM      3  C   UNL     1       7.636   5.630  18.840  0.00  0.00    +0.000 A 
ATOM      4  C   UNL     1       7.433   4.996  17.619  0.00  0.00    +0.000 A 
ATOM      5  C   UNL     1       7.172   5.773  16.477  0.00  0.00    +0.000 A 
ATOM      6  C   UNL     1       7.535   7.120  16.479  0.00  0.00    +0.000 A 
ENDROOT
BRANCH   5   7
ATOM      7  N   UNL     1       6.075   5.379  15.589  0.00  0.00    +0.000 N 
ATOM      8  C   UNL     1       4.896   6.244  15.826  0.00  0.00    +0.000 C 
ATOM      9  C   UNL     1       4.139   5.480  16.866  0.00  0.00    +0.000 A 
ATOM     10  C   UNL     1       4.470   4.130  16.707  0.00  0.00    +0.000 A 
ATOM     11  C   UNL     1       4.078   3.146  17.591  0.00  0.00    +0.000 A 
ATOM     12  C   UNL     1       3.332   3.539  18.702  0.00  0.00    +0.000 A 
ATOM     13  C   UNL     1       2.953   2.538  19.761  0.00  0.00    +0.000 C 
ATOM     14  C   UNL     1       3.003   4.902  18.886  0.00  0.00    +0.000 A 
ATOM     15  C   UNL     1       3.405   5.898  17.966  0.00  0.00    +0.000 A 
ATOM     16  C   UNL     1       5.604   4.059  15.759  0.00  0.00    +0.000 C 
ATOM     17  O   UNL     1       6.130   3.016  15.402  0.00  0.00    +0.000 OA
BRANCH  15  18
ATOM     18  C   UNL     1       3.109   7.347  18.273  0.00  0.00    +0.000 C 
ATOM     19  F   UNL     1       2.083   7.872  17.555  0.00  0.00    +0.000 F 
ATOM     20  F   UNL     1       2.775   7.537  19.582  0.00  0.00    +0.000 F 
ATOM     21  F   UNL     1       4.180   8.156  18.042  0.00  0.00    +0.000 F 
ENDBRANCH  15  18
ENDBRANCH   5   7
BRANCH   1  22
ATOM     22  C   UNL     1       7.953   9.269  17.724  0.00  0.00    +0.000 C 
BRANCH  22  23
ATOM     23  C   UNL     1       8.852   9.721  18.876  0.00  0.00    +0.000 C 
BRANCH  23  28
ATOM     24  N   UNL     1       9.178  12.027  17.830  0.00  0.00    +0.000 N 
ATOM     25  C   UNL     1      10.262  12.842  17.659  0.00  0.00    +0.000 A 
ATOM     26  N   UNL     1      11.317  12.292  18.207  0.00  0.00    +0.000 NA
ATOM     27  N   UNL     1      10.931  11.087  18.731  0.00  0.00    +0.000 NA
ATOM     28  C   UNL     1       9.641  10.924  18.502  0.00  0.00    +0.000 A 
BRANCH  24  30
ATOM     29  C   UNL     1       7.476  13.795  17.568  0.00  0.00    +0.000 C 
ATOM     30  C   UNL     1       7.842  12.337  17.376  0.00  0.00    +0.000 C 
ENDBRANCH  24  30
ENDBRANCH  23  28
ENDBRANCH  22  23
ENDBRANCH   1  22
TORSDOF 6
ENDMDL
MODEL 9
REMARK VINA RESULT:      -8.1      6.875     10.065
REMARK  Name = 
REMARK  8 active torsions:
REMARK  status: ('A' for Active; 'I' for Inactive)
REMARK    1  A    between atoms: C_1  and  C_2
REMARK    2  A    between atoms: C_2  and  N_3
REMARK    3  A    between atoms: C_7  and  C_8
REMARK    4  A    between atoms: C_8  and  C_9
REMARK    5  A    between atoms: C_9  and  C_10
REMARK    6  A    between atoms: C_14  and  N_15
REMARK    7  A    between atoms: C_20  and  C_21
REMARK    8  A    between atoms: C_23  and  C_24
REMARK                            x       y       z     vdW  Elec       q    Type
REMARK                         _______ _______ _______ _____ _____    ______ ____
ROOT
ATOM      1  C   UNL     1       9.075  10.473  18.314  0.00  0.00    +0.000 A 
ATOM      2  C   UNL     1       8.126  11.379  17.837  0.00  0.00    +0.000 A 
ATOM      3  C   UNL     1       8.501  12.661  17.416  0.00  0.00    +0.000 A 
ATOM      4  C   UNL     1       9.810  13.083  17.616  0.00  0.00    +0.000 A 
ATOM      5  C   UNL     1      10.683  12.283  18.374  0.00  0.00    +0.000 A 
ATOM      6  C   UNL     1      10.383  10.930  18.543  0.00  0.00    +0.000 A 
ENDROOT
BRANCH   5   7
ATOM      7  N   UNL     1      11.509  12.916  19.405  0.00  0.00    +0.000 N 
ATOM      8  C   UNL     1      11.081  12.461  20.749  0.00  0.00    +0.000 C 
ATOM      9  C   UNL     1      10.066  13.493  21.129  0.00  0.00    +0.000 A 
ATOM     10  C   UNL     1      10.396  14.668  20.444  0.00  0.00    +0.000 A 
ATOM     11  C   UNL     1       9.590  15.788  20.432  0.00  0.00    +0.000 A 
ATOM     12  C   UNL     1       8.384  15.720  21.128  0.00  0.00    +0.000 A 
ATOM     13  C   UNL     1       7.408  16.866  21.080  0.00  0.00    +0.000 C 
ATOM     14  C   UNL     1       8.028  14.535  21.813  0.00  0.00    +0.000 A 
ATOM     15  C   UNL     1       8.868  13.397  21.823  0.00  0.00    +0.000 A 
ATOM     16  C   UNL     1      11.440  14.326  19.453  0.00  0.00    +0.000 C 
ATOM     17  O   UNL     1      11.950  15.135  18.693  0.00  0.00    +0.000 OA
BRANCH  15  18
ATOM     18  C   UNL     1       8.385  12.130  22.486  0.00  0.00    +0.000 C 
ATOM     19  F   UNL     1       8.933  11.895  23.707  0.00  0.00    +0.000 F 
ATOM     20  F   UNL     1       7.036  12.137  22.685  0.00  0.00    +0.000 F 
ATOM     21  F   UNL     1       8.646  11.021  21.740  0.00  0.00    +0.000 F 
ENDBRANCH  15  18
ENDBRANCH   5   7
BRANCH   1  22
ATOM     22  C   UNL     1       8.693   9.070  18.703  0.00  0.00    +0.000 C 
BRANCH  22  23
ATOM     23  C   UNL     1       7.895   8.367  17.604  0.00  0.00    +0.000 C 
BRANCH  23  28
ATOM     24  N   UNL     1       6.387   6.306  17.575  0.00  0.00    +0.000 N 
ATOM     25  C   UNL     1       6.369   5.140  18.286  0.00  0.00    +0.000 A 
ATOM     26  N   UNL     1       7.389   5.108  19.107  0.00  0.00    +0.000 NA
ATOM     27  N   UNL     1       8.081   6.280  18.952  0.00  0.00    +0.000 NA
ATOM     28  C   UNL     1       7.477   7.005  18.030  0.00  0.00    +0.000 A 
BRANCH  24  30
ATOM     29  C   UNL     1       5.455   5.724  15.365  0.00  0.00    +0.000 C 
ATOM     30  C   UNL     1       5.424   6.659  16.557  0.00  0.00    +0.000 C 
ENDBRANCH  24  30
ENDBRANCH  23  28
ENDBRANCH  22  23
ENDBRANCH   1  22
TORSDOF 6
ENDMDL
