MODEL 1
REMARK VINA RESULT:      -8.3      0.000      0.000
REMARK  Name = 
REMARK  4 active torsions:
REMARK  status: ('A' for Active; 'I' for Inactive)
REMARK    1  A    between atoms: C_2  and  C_3
REMARK    2  A    between atoms: C_7  and  N_8
REMARK    3  A    between atoms: C_12  and  C_13
REMARK    4  A    between atoms: C_20  and  O_21
REMARK                            x       y       z     vdW  Elec       q    Type
REMARK                         _______ _______ _______ _____ _____    ______ ____
ROOT
ATOM      1  C   UNL     1       1.503   8.849  19.051  0.00  0.00    +0.000 A 
ATOM      2  C   UNL     1       2.338   9.021  17.942  0.00  0.00    +0.000 A 
ATOM      3  C   UNL     1       3.223   8.014  17.561  0.00  0.00    +0.000 A 
ATOM      4  C   UNL     1       3.212   6.789  18.225  0.00  0.00    +0.000 A 
ATOM      5  C   UNL     1       2.276   6.551  19.244  0.00  0.00    +0.000 A 
ATOM      6  C   UNL     1       1.451   7.593  19.680  0.00  0.00    +0.000 A 
ENDROOT
BRANCH   1   8
ATOM      7  O   UNL     1       1.127  10.546  20.614  0.00  0.00    +0.000 OA
ATOM      8  C   UNL     1       0.668   9.939  19.644  0.00  0.00    +0.000 C 
ATOM      9  N   UNL     1      -0.517  10.317  19.044  0.00  0.00    +0.000 N 
ATOM     10  C   UNL     1      -1.234  11.515  19.480  0.00  0.00    +0.000 C 
ATOM     11  C   UNL     1      -1.939  11.996  18.205  0.00  0.00    +0.000 C 
ATOM     12  C   UNL     1      -2.179  10.716  17.444  0.00  0.00    +0.000 C 
ATOM     13  C   UNL     1      -3.577  10.326  17.008  0.00  0.00    +0.000 C 
ATOM     14  C   UNL     1      -2.557  10.711  15.976  0.00  0.00    +0.000 C 
ATOM     15  C   UNL     1      -1.224   9.672  17.950  0.00  0.00    +0.000 C 
BRANCH  11  16
ATOM     16  O   UNL     1      -1.071  12.827  17.438  0.00  0.00    +0.000 OA
ATOM     17  H   UNL     1      -0.217  12.354  17.374  0.00  0.00    +0.000 HD
ENDBRANCH  11  16
ENDBRANCH   1   8
BRANCH   5  18
ATOM     18  N   UNL     1       2.226   5.262  19.838  0.00  0.00    +0.000 N 
ATOM     19  N   UNL     1       2.470   5.158  21.176  0.00  0.00    +0.000 NA
ATOM     20  C   UNL     1       2.137   3.911  21.489  0.00  0.00    +0.000 A 
ATOM     21  C   UNL     1       1.804   3.158  20.363  0.00  0.00    +0.000 A 
ATOM     22  C   UNL     1       1.951   4.027  19.295  0.00  0.00    +0.000 A 
BRANCH  22  23
ATOM     23  C   UNL     1       1.934   3.715  17.856  0.00  0.00    +0.000 C 
ATOM     24  F   UNL     1       3.107   3.924  17.218  0.00  0.00    +0.000 F 
ATOM     25  F   UNL     1       1.634   2.404  17.655  0.00  0.00    +0.000 F 
ATOM     26  F   UNL     1       0.983   4.429  17.208  0.00  0.00    +0.000 F 
ENDBRANCH  22  23
ENDBRANCH   5  18
TORSDOF 4
ENDMDL
MODEL 2
REMARK VINA RESULT:      -8.2      3.124      4.561
REMARK  Name = 
REMARK  4 active torsions:
REMARK  status: ('A' for Active; 'I' for Inactive)
REMARK    1  A    between atoms: C_2  and  C_3
REMARK    2  A    between atoms: C_7  and  N_8
REMARK    3  A    between atoms: C_12  and  C_13
REMARK    4  A    between atoms: C_20  and  O_21
REMARK                            x       y       z     vdW  Elec       q    Type
REMARK                         _______ _______ _______ _____ _____    ______ ____
ROOT
ATOM      1  C   UNL     1       2.527   7.176  18.075  0.00  0.00    +0.000 A 
ATOM      2  C   UNL     1       1.620   6.118  18.196  0.00  0.00    +0.000 A 
ATOM      3  C   UNL     1       2.019   4.810  17.932  0.00  0.00    +0.000 A 
ATOM      4  C   UNL     1       3.353   4.534  17.640  0.00  0.00    +0.000 A 
ATOM      5  C   UNL     1       4.303   5.567  17.661  0.00  0.00    +0.000 A 
ATOM      6  C   UNL     1       3.883   6.889  17.840  0.00  0.00    +0.000 A 
ENDROOT
BRANCH   1   8
ATOM      7  O   UNL     1       2.280   9.300  17.132  0.00  0.00    +0.000 OA
ATOM      8  C   UNL     1       2.143   8.619  18.150  0.00  0.00    +0.000 C 
ATOM      9  N   UNL     1       1.550   9.126  19.290  0.00  0.00    +0.000 N 
ATOM     10  C   UNL     1       0.973  10.470  19.304  0.00  0.00    +0.000 C 
ATOM     11  C   UNL     1      -0.169  10.360  20.323  0.00  0.00    +0.000 C 
ATOM     12  C   UNL     1       0.325   9.301  21.277  0.00  0.00    +0.000 C 
ATOM     13  C   UNL     1       0.434   9.589  22.761  0.00  0.00    +0.000 C 
ATOM     14  C   UNL     1      -0.597   8.617  22.267  0.00  0.00    +0.000 C 
ATOM     15  C   UNL     1       1.378   8.486  20.583  0.00  0.00    +0.000 C 
BRANCH  11  16
ATOM     16  O   UNL     1      -1.357   9.887  19.692  0.00  0.00    +0.000 OA
ATOM     17  H   UNL     1      -1.547  10.506  18.958  0.00  0.00    +0.000 HD
ENDBRANCH  11  16
ENDBRANCH   1   8
BRANCH   5  18
ATOM     18  N   UNL     1       5.671   5.242  17.452  0.00  0.00    +0.000 N 
ATOM     19  N   UNL     1       6.504   5.231  18.531  0.00  0.00    +0.000 NA
ATOM     20  C   UNL     1       7.631   4.687  18.089  0.00  0.00    +0.000 A 
ATOM     21  C   UNL     1       7.600   4.459  16.713  0.00  0.00    +0.000 A 
ATOM     22  C   UNL     1       6.354   4.905  16.304  0.00  0.00    +0.000 A 
BRANCH  22  23
ATOM     23  C   UNL     1       5.860   5.100  14.931  0.00  0.00    +0.000 C 
ATOM     24  F   UNL     1       4.978   4.167  14.510  0.00  0.00    +0.000 F 
ATOM     25  F   UNL     1       5.216   6.293  14.820  0.00  0.00    +0.000 F 
ATOM     26  F   UNL     1       6.879   5.130  14.041  0.00  0.00    +0.000 F 
ENDBRANCH  22  23
ENDBRANCH   5  18
TORSDOF 4
ENDMDL
MODEL 3
REMARK VINA RESULT:      -7.9      1.707      2.185
REMARK  Name = 
REMARK  4 active torsions:
REMARK  status: ('A' for Active; 'I' for Inactive)
REMARK    1  A    between atoms: C_2  and  C_3
REMARK    2  A    between atoms: C_7  and  N_8
REMARK    3  A    between atoms: C_12  and  C_13
REMARK    4  A    between atoms: C_20  and  O_21
REMARK                            x       y       z     vdW  Elec       q    Type
REMARK                         _______ _______ _______ _____ _____    ______ ____
ROOT
ATOM      1  C   UNL     1       1.820   8.028  19.723  0.00  0.00    +0.000 A 
ATOM      2  C   UNL     1       2.144   8.628  18.501  0.00  0.00    +0.000 A 
ATOM      3  C   UNL     1       2.969   7.973  17.589  0.00  0.00    +0.000 A 
ATOM      4  C   UNL     1       3.399   6.673  17.846  0.00  0.00    +0.000 A 
ATOM      5  C   UNL     1       2.961   6.005  19.000  0.00  0.00    +0.000 A 
ATOM      6  C   UNL     1       2.205   6.696  19.953  0.00  0.00    +0.000 A 
ENDROOT
BRANCH   1   8
ATOM      7  O   UNL     1       1.477   8.497  21.988  0.00  0.00    +0.000 OA
ATOM      8  C   UNL     1       1.107   8.729  20.835  0.00  0.00    +0.000 C 
ATOM      9  N   UNL     1       0.150   9.686  20.557  0.00  0.00    +0.000 N 
ATOM     10  C   UNL     1      -0.399  10.532  21.617  0.00  0.00    +0.000 C 
ATOM     11  C   UNL     1      -0.745  11.839  20.891  0.00  0.00    +0.000 C 
ATOM     12  C   UNL     1      -1.070  11.377  19.492  0.00  0.00    +0.000 C 
ATOM     13  C   UNL     1      -2.407  11.709  18.860  0.00  0.00    +0.000 C 
ATOM     14  C   UNL     1      -1.155  12.341  18.325  0.00  0.00    +0.000 C 
ATOM     15  C   UNL     1      -0.442  10.030  19.275  0.00  0.00    +0.000 C 
BRANCH  11  16
ATOM     16  O   UNL     1       0.394  12.695  20.835  0.00  0.00    +0.000 OA
ATOM     17  H   UNL     1       0.133  13.534  21.266  0.00  0.00    +0.000 HD
ENDBRANCH  11  16
ENDBRANCH   1   8
BRANCH   5  18
ATOM     18  N   UNL     1       3.339   4.649  19.190  0.00  0.00    +0.000 N 
ATOM     19  N   UNL     1       4.668   4.357  19.290  0.00  0.00    +0.000 NA
ATOM     20  C   UNL     1       4.711   3.089  19.682  0.00  0.00    +0.000 A 
ATOM     21  C   UNL     1       3.445   2.506  19.715  0.00  0.00    +0.000 A 
ATOM     22  C   UNL     1       2.578   3.507  19.310  0.00  0.00    +0.000 A 
BRANCH  22  23
ATOM     23  C   UNL     1       1.152   3.394  18.961  0.00  0.00    +0.000 C 
ATOM     24  F   UNL     1       0.708   2.128  18.800  0.00  0.00    +0.000 F 
ATOM     25  F   UNL     1       0.377   3.936  19.938  0.00  0.00    +0.000 F 
ATOM     26  F   UNL     1       0.868   4.075  17.825  0.00  0.00    +0.000 F 
ENDBRANCH  22  23
ENDBRANCH   5  18
TORSDOF 4
ENDMDL
MODEL 4
REMARK VINA RESULT:      -7.9      3.315      4.906
REMARK  Name = 
REMARK  4 active torsions:
REMARK  status: ('A' for Active; 'I' for Inactive)
REMARK    1  A    between atoms: C_2  and  C_3
REMARK    2  A    between atoms: C_7  and  N_8
REMARK    3  A    between atoms: C_12  and  C_13
REMARK    4  A    between atoms: C_20  and  O_21
REMARK                            x       y       z     vdW  Elec       q    Type
REMARK                         _______ _______ _______ _____ _____    ______ ____
ROOT
ATOM      1  C   UNL     1       2.613   6.938  18.166  0.00  0.00    +0.000 A 
ATOM      2  C   UNL     1       1.834   5.943  18.767  0.00  0.00    +0.000 A 
ATOM      3  C   UNL     1       2.106   4.596  18.537  0.00  0.00    +0.000 A 
ATOM      4  C   UNL     1       3.220   4.229  17.784  0.00  0.00    +0.000 A 
ATOM      5  C   UNL     1       4.094   5.214  17.299  0.00  0.00    +0.000 A 
ATOM      6  C   UNL     1       3.768   6.565  17.458  0.00  0.00    +0.000 A 
ENDROOT
BRANCH   1   8
ATOM      7  O   UNL     1       2.464   9.047  17.171  0.00  0.00    +0.000 OA
ATOM      8  C   UNL     1       2.278   8.394  18.200  0.00  0.00    +0.000 C 
ATOM      9  N   UNL     1       1.676   8.948  19.313  0.00  0.00    +0.000 N 
ATOM     10  C   UNL     1       1.148  10.311  19.284  0.00  0.00    +0.000 C 
ATOM     11  C   UNL     1      -0.022  10.264  20.276  0.00  0.00    +0.000 C 
ATOM     12  C   UNL     1       0.411   9.210  21.265  0.00  0.00    +0.000 C 
ATOM     13  C   UNL     1       0.494   9.528  22.745  0.00  0.00    +0.000 C 
ATOM     14  C   UNL     1      -0.559   8.581  22.246  0.00  0.00    +0.000 C 
ATOM     15  C   UNL     1       1.450   8.343  20.616  0.00  0.00    +0.000 C 
BRANCH  11  16
ATOM     16  O   UNL     1      -1.211   9.819  19.626  0.00  0.00    +0.000 OA
ATOM     17  H   UNL     1      -1.736  10.620  19.428  0.00  0.00    +0.000 HD
ENDBRANCH  11  16
ENDBRANCH   1   8
BRANCH   5  18
ATOM     18  N   UNL     1       5.270   4.807  16.615  0.00  0.00    +0.000 N 
ATOM     19  N   UNL     1       5.133   4.152  15.426  0.00  0.00    +0.000 NA
ATOM     20  C   UNL     1       6.359   4.101  14.920  0.00  0.00    +0.000 A 
ATOM     21  C   UNL     1       7.315   4.592  15.808  0.00  0.00    +0.000 A 
ATOM     22  C   UNL     1       6.601   4.964  16.934  0.00  0.00    +0.000 A 
BRANCH  22  23
ATOM     23  C   UNL     1       7.119   5.349  18.258  0.00  0.00    +0.000 C 
ATOM     24  F   UNL     1       7.329   6.674  18.419  0.00  0.00    +0.000 F 
ATOM     25  F   UNL     1       6.244   4.992  19.236  0.00  0.00    +0.000 F 
ATOM     26  F   UNL     1       8.283   4.714  18.535  0.00  0.00    +0.000 F 
ENDBRANCH  22  23
ENDBRANCH   5  18
TORSDOF 4
ENDMDL
MODEL 5
REMARK VINA RESULT:      -7.9      3.876      7.721
REMARK  Name = 
REMARK  4 active torsions:
REMARK  status: ('A' for Active; 'I' for Inactive)
REMARK    1  A    between atoms: C_2  and  C_3
REMARK    2  A    between atoms: C_7  and  N_8
REMARK    3  A    between atoms: C_12  and  C_13
REMARK    4  A    between atoms: C_20  and  O_21
REMARK                            x       y       z     vdW  Elec       q    Type
REMARK                         _______ _______ _______ _____ _____    ______ ____
ROOT
ATOM      1  C   UNL     1       2.357   7.703  18.812  0.00  0.00    +0.000 A 
ATOM      2  C   UNL     1       2.122   7.296  20.130  0.00  0.00    +0.000 A 
ATOM      3  C   UNL     1       1.349   8.079  20.985  0.00  0.00    +0.000 A 
ATOM      4  C   UNL     1       0.722   9.225  20.502  0.00  0.00    +0.000 A 
ATOM      5  C   UNL     1       0.829   9.565  19.145  0.00  0.00    +0.000 A 
ATOM      6  C   UNL     1       1.675   8.826  18.313  0.00  0.00    +0.000 A 
ENDROOT
BRANCH   1   8
ATOM      7  O   UNL     1       4.173   7.736  17.340  0.00  0.00    +0.000 OA
ATOM      8  C   UNL     1       3.324   7.031  17.890  0.00  0.00    +0.000 C 
ATOM      9  N   UNL     1       3.326   5.656  17.761  0.00  0.00    +0.000 N 
ATOM     10  C   UNL     1       4.397   4.969  17.038  0.00  0.00    +0.000 C 
ATOM     11  C   UNL     1       4.488   3.607  17.739  0.00  0.00    +0.000 C 
ATOM     12  C   UNL     1       3.076   3.373  18.215  0.00  0.00    +0.000 C 
ATOM     13  C   UNL     1       2.323   2.120  17.813  0.00  0.00    +0.000 C 
ATOM     14  C   UNL     1       2.739   2.310  19.242  0.00  0.00    +0.000 C 
ATOM     15  C   UNL     1       2.367   4.695  18.280  0.00  0.00    +0.000 C 
BRANCH  11  16
ATOM     16  O   UNL     1       5.345   3.688  18.876  0.00  0.00    +0.000 OA
ATOM     17  H   UNL     1       5.266   4.600  19.220  0.00  0.00    +0.000 HD
ENDBRANCH  11  16
ENDBRANCH   1   8
BRANCH   5  18
ATOM     18  N   UNL     1       0.103  10.687  18.662  0.00  0.00    +0.000 N 
ATOM     19  N   UNL     1      -1.122  10.471  18.102  0.00  0.00    +0.000 NA
ATOM     20  C   UNL     1      -1.650  11.680  17.956  0.00  0.00    +0.000 A 
ATOM     21  C   UNL     1      -0.748  12.691  18.288  0.00  0.00    +0.000 A 
ATOM     22  C   UNL     1       0.410  12.029  18.660  0.00  0.00    +0.000 A 
BRANCH  22  23
ATOM     23  C   UNL     1       1.747  12.597  18.905  0.00  0.00    +0.000 C 
ATOM     24  F   UNL     1       2.738  12.045  18.171  0.00  0.00    +0.000 F 
ATOM     25  F   UNL     1       1.764  13.924  18.610  0.00  0.00    +0.000 F 
ATOM     26  F   UNL     1       2.096  12.490  20.209  0.00  0.00    +0.000 F 
ENDBRANCH  22  23
ENDBRANCH   5  18
TORSDOF 4
ENDMDL
MODEL 6
REMARK VINA RESULT:      -7.7      3.256      7.392
REMARK  Name = 
REMARK  4 active torsions:
REMARK  status: ('A' for Active; 'I' for Inactive)
REMARK    1  A    between atoms: C_2  and  C_3
REMARK    2  A    between atoms: C_7  and  N_8
REMARK    3  A    between atoms: C_12  and  C_13
REMARK    4  A    between atoms: C_20  and  O_21
REMARK                            x       y       z     vdW  Elec       q    Type
REMARK                         _______ _______ _______ _____ _____    ______ ____
ROOT
ATOM      1  C   UNL     1       2.286   7.692  18.948  0.00  0.00    +0.000 A 
ATOM      2  C   UNL     1       1.937   7.131  20.181  0.00  0.00    +0.000 A 
ATOM      3  C   UNL     1       1.203   7.865  21.111  0.00  0.00    +0.000 A 
ATOM      4  C   UNL     1       0.726   9.131  20.778  0.00  0.00    +0.000 A 
ATOM      5  C   UNL     1       0.943   9.646  19.490  0.00  0.00    +0.000 A 
ATOM      6  C   UNL     1       1.753   8.943  18.593  0.00  0.00    +0.000 A 
ENDROOT
BRANCH   1   8
ATOM      7  O   UNL     1       4.040   7.786  17.406  0.00  0.00    +0.000 OA
ATOM      8  C   UNL     1       3.227   7.055  17.977  0.00  0.00    +0.000 C 
ATOM      9  N   UNL     1       3.250   5.683  17.823  0.00  0.00    +0.000 N 
ATOM     10  C   UNL     1       4.303   5.029  17.046  0.00  0.00    +0.000 C 
ATOM     11  C   UNL     1       4.447   3.657  17.719  0.00  0.00    +0.000 C 
ATOM     12  C   UNL     1       3.060   3.388  18.246  0.00  0.00    +0.000 C 
ATOM     13  C   UNL     1       2.315   2.128  17.852  0.00  0.00    +0.000 C 
ATOM     14  C   UNL     1       2.784   2.302  19.267  0.00  0.00    +0.000 C 
ATOM     15  C   UNL     1       2.330   4.695  18.363  0.00  0.00    +0.000 C 
BRANCH  11  16
ATOM     16  O   UNL     1       5.347   3.735  18.822  0.00  0.00    +0.000 OA
ATOM     17  H   UNL     1       6.111   4.268  18.522  0.00  0.00    +0.000 HD
ENDBRANCH  11  16
ENDBRANCH   1   8
BRANCH   5  18
ATOM     18  N   UNL     1       0.365  10.899  19.149  0.00  0.00    +0.000 N 
ATOM     19  N   UNL     1       0.895  12.027  19.704  0.00  0.00    +0.000 NA
ATOM     20  C   UNL     1       0.325  13.031  19.048  0.00  0.00    +0.000 A 
ATOM     21  C   UNL     1      -0.661  12.590  18.166  0.00  0.00    +0.000 A 
ATOM     22  C   UNL     1      -0.680  11.212  18.309  0.00  0.00    +0.000 A 
BRANCH  22  23
ATOM     23  C   UNL     1      -1.663  10.253  17.779  0.00  0.00    +0.000 C 
ATOM     24  F   UNL     1      -2.291   9.511  18.718  0.00  0.00    +0.000 F 
ATOM     25  F   UNL     1      -2.648  10.903  17.102  0.00  0.00    +0.000 F 
ATOM     26  F   UNL     1      -1.092   9.398  16.897  0.00  0.00    +0.000 F 
ENDBRANCH  22  23
ENDBRANCH   5  18
TORSDOF 4
ENDMDL
MODEL 7
REMARK VINA RESULT:      -7.7      2.162      3.024
REMARK  Name = 
REMARK  4 active torsions:
REMARK  status: ('A' for Active; 'I' for Inactive)
REMARK    1  A    between atoms: C_2  and  C_3
REMARK    2  A    between atoms: C_7  and  N_8
REMARK    3  A    between atoms: C_12  and  C_13
REMARK    4  A    between atoms: C_20  and  O_21
REMARK                            x       y       z     vdW  Elec       q    Type
REMARK                         _______ _______ _______ _____ _____    ______ ____
ROOT
ATOM      1  C   UNL     1       2.961   7.509  18.159  0.00  0.00    +0.000 A 
ATOM      2  C   UNL     1       4.083   7.181  17.389  0.00  0.00    +0.000 A 
ATOM      3  C   UNL     1       4.746   5.971  17.584  0.00  0.00    +0.000 A 
ATOM      4  C   UNL     1       4.235   5.034  18.480  0.00  0.00    +0.000 A 
ATOM      5  C   UNL     1       3.029   5.289  19.150  0.00  0.00    +0.000 A 
ATOM      6  C   UNL     1       2.416   6.539  19.017  0.00  0.00    +0.000 A 
ENDROOT
BRANCH   1   8
ATOM      7  O   UNL     1       2.359   9.510  17.112  0.00  0.00    +0.000 OA
ATOM      8  C   UNL     1       2.309   8.854  18.154  0.00  0.00    +0.000 C 
ATOM      9  N   UNL     1       1.582   9.282  19.248  0.00  0.00    +0.000 N 
ATOM     10  C   UNL     1       0.762  10.491  19.181  0.00  0.00    +0.000 C 
ATOM     11  C   UNL     1      -0.383  10.205  20.162  0.00  0.00    +0.000 C 
ATOM     12  C   UNL     1       0.260   9.296  21.181  0.00  0.00    +0.000 C 
ATOM     13  C   UNL     1       0.248   9.655  22.653  0.00  0.00    +0.000 C 
ATOM     14  C   UNL     1      -0.559   8.486  22.167  0.00  0.00    +0.000 C 
ATOM     15  C   UNL     1       1.477   8.670  20.562  0.00  0.00    +0.000 C 
BRANCH  11  16
ATOM     16  O   UNL     1      -1.431   9.491  19.511  0.00  0.00    +0.000 OA
ATOM     17  H   UNL     1      -2.188  10.108  19.444  0.00  0.00    +0.000 HD
ENDBRANCH  11  16
ENDBRANCH   1   8
BRANCH   5  18
ATOM     18  N   UNL     1       2.485   4.277  19.986  0.00  0.00    +0.000 N 
ATOM     19  N   UNL     1       2.858   4.252  21.297  0.00  0.00    +0.000 NA
ATOM     20  C   UNL     1       2.043   3.374  21.869  0.00  0.00    +0.000 A 
ATOM     21  C   UNL     1       1.231   2.728  20.938  0.00  0.00    +0.000 A 
ATOM     22  C   UNL     1       1.592   3.264  19.714  0.00  0.00    +0.000 A 
BRANCH  22  23
ATOM     23  C   UNL     1       1.211   2.804  18.368  0.00  0.00    +0.000 C 
ATOM     24  F   UNL     1       2.158   2.084  17.727  0.00  0.00    +0.000 F 
ATOM     25  F   UNL     1       0.115   2.000  18.430  0.00  0.00    +0.000 F 
ATOM     26  F   UNL     1       0.877   3.845  17.568  0.00  0.00    +0.000 F 
ENDBRANCH  22  23
ENDBRANCH   5  18
TORSDOF 4
ENDMDL
MODEL 8
REMARK VINA RESULT:      -7.6      5.752      7.864
REMARK  Name = 
REMARK  4 active torsions:
REMARK  status: ('A' for Active; 'I' for Inactive)
REMARK    1  A    between atoms: C_2  and  C_3
REMARK    2  A    between atoms: C_7  and  N_8
REMARK    3  A    between atoms: C_12  and  C_13
REMARK    4  A    between atoms: C_20  and  O_21
REMARK                            x       y       z     vdW  Elec       q    Type
REMARK                         _______ _______ _______ _____ _____    ______ ____
ROOT
ATOM      1  C   UNL     1       5.794   5.184  15.581  0.00  0.00    +0.000 A 
ATOM      2  C   UNL     1       5.307   6.488  15.720  0.00  0.00    +0.000 A 
ATOM      3  C   UNL     1       4.344   6.785  16.682  0.00  0.00    +0.000 A 
ATOM      4  C   UNL     1       3.930   5.803  17.579  0.00  0.00    +0.000 A 
ATOM      5  C   UNL     1       4.518   4.529  17.546  0.00  0.00    +0.000 A 
ATOM      6  C   UNL     1       5.419   4.212  16.524  0.00  0.00    +0.000 A 
ENDROOT
BRANCH   1   8
ATOM      7  O   UNL     1       7.886   4.654  14.682  0.00  0.00    +0.000 OA
ATOM      8  C   UNL     1       6.676   4.737  14.460  0.00  0.00    +0.000 C 
ATOM      9  N   UNL     1       6.127   4.324  13.261  0.00  0.00    +0.000 N 
ATOM     10  C   UNL     1       6.952   3.683  12.237  0.00  0.00    +0.000 C 
ATOM     11  C   UNL     1       5.971   2.744  11.521  0.00  0.00    +0.000 C 
ATOM     12  C   UNL     1       4.649   3.456  11.666  0.00  0.00    +0.000 C 
ATOM     13  C   UNL     1       3.823   3.807  10.445  0.00  0.00    +0.000 C 
ATOM     14  C   UNL     1       3.328   2.762  11.402  0.00  0.00    +0.000 C 
ATOM     15  C   UNL     1       4.747   4.417  12.816  0.00  0.00    +0.000 C 
BRANCH  11  16
ATOM     16  O   UNL     1       5.892   1.493  12.201  0.00  0.00    +0.000 OA
ATOM     17  H   UNL     1       5.172   1.579  12.858  0.00  0.00    +0.000 HD
ENDBRANCH  11  16
ENDBRANCH   1   8
BRANCH   5  18
ATOM     18  N   UNL     1       4.144   3.577  18.532  0.00  0.00    +0.000 N 
ATOM     19  N   UNL     1       5.108   3.105  19.373  0.00  0.00    +0.000 NA
ATOM     20  C   UNL     1       4.449   2.429  20.306  0.00  0.00    +0.000 A 
ATOM     21  C   UNL     1       3.086   2.339  20.024  0.00  0.00    +0.000 A 
ATOM     22  C   UNL     1       2.922   3.014  18.826  0.00  0.00    +0.000 A 
BRANCH  22  23
ATOM     23  C   UNL     1       1.734   3.056  17.957  0.00  0.00    +0.000 C 
ATOM     24  F   UNL     1       1.123   4.260  17.893  0.00  0.00    +0.000 F 
ATOM     25  F   UNL     1       2.067   2.743  16.676  0.00  0.00    +0.000 F 
ATOM     26  F   UNL     1       0.807   2.148  18.346  0.00  0.00    +0.000 F 
ENDBRANCH  22  23
ENDBRANCH   5  18
TORSDOF 4
ENDMDL
MODEL 9
REMARK VINA RESULT:      -7.5      1.285      1.558
REMARK  Name = 
REMARK  4 active torsions:
REMARK  status: ('A' for Active; 'I' for Inactive)
REMARK    1  A    between atoms: C_2  and  C_3
REMARK    2  A    between atoms: C_7  and  N_8
REMARK    3  A    between atoms: C_12  and  C_13
REMARK    4  A    between atoms: C_20  and  O_21
REMARK                            x       y       z     vdW  Elec       q    Type
REMARK                         _______ _______ _______ _____ _____    ______ ____
ROOT
ATOM      1  C   UNL     1       1.512   8.914  19.043  0.00  0.00    +0.000 A 
ATOM      2  C   UNL     1       2.231   9.059  17.852  0.00  0.00    +0.000 A 
ATOM      3  C   UNL     1       3.111   8.063  17.431  0.00  0.00    +0.000 A 
ATOM      4  C   UNL     1       3.205   6.871  18.145  0.00  0.00    +0.000 A 
ATOM      5  C   UNL     1       2.381   6.653  19.259  0.00  0.00    +0.000 A 
ATOM      6  C   UNL     1       1.565   7.688  19.727  0.00  0.00    +0.000 A 
ENDROOT
BRANCH   1   8
ATOM      7  O   UNL     1       1.185  10.597  20.633  0.00  0.00    +0.000 OA
ATOM      8  C   UNL     1       0.700  10.004  19.666  0.00  0.00    +0.000 C 
ATOM      9  N   UNL     1      -0.495  10.398  19.096  0.00  0.00    +0.000 N 
ATOM     10  C   UNL     1      -1.191  11.598  19.561  0.00  0.00    +0.000 C 
ATOM     11  C   UNL     1      -1.920  12.099  18.307  0.00  0.00    +0.000 C 
ATOM     12  C   UNL     1      -2.188  10.829  17.537  0.00  0.00    +0.000 C 
ATOM     13  C   UNL     1      -3.598  10.456  17.128  0.00  0.00    +0.000 C 
ATOM     14  C   UNL     1      -2.598  10.844  16.078  0.00  0.00    +0.000 C 
ATOM     15  C   UNL     1      -1.231   9.772  18.011  0.00  0.00    +0.000 C 
BRANCH  11  16
ATOM     16  O   UNL     1      -1.063  12.931  17.530  0.00  0.00    +0.000 OA
ATOM     17  H   UNL     1      -0.192  12.928  17.977  0.00  0.00    +0.000 HD
ENDBRANCH  11  16
ENDBRANCH   1   8
BRANCH   5  18
ATOM     18  N   UNL     1       2.432   5.392  19.911  0.00  0.00    +0.000 N 
ATOM     19  N   UNL     1       1.439   5.079  20.792  0.00  0.00    +0.000 NA
ATOM     20  C   UNL     1       1.615   3.792  21.064  0.00  0.00    +0.000 A 
ATOM     21  C   UNL     1       2.778   3.286  20.483  0.00  0.00    +0.000 A 
ATOM     22  C   UNL     1       3.339   4.360  19.812  0.00  0.00    +0.000 A 
BRANCH  22  23
ATOM     23  C   UNL     1       4.674   4.456  19.200  0.00  0.00    +0.000 C 
ATOM     24  F   UNL     1       5.421   5.496  19.632  0.00  0.00    +0.000 F 
ATOM     25  F   UNL     1       5.405   3.340  19.468  0.00  0.00    +0.000 F 
ATOM     26  F   UNL     1       4.592   4.545  17.851  0.00  0.00    +0.000 F 
ENDBRANCH  22  23
ENDBRANCH   5  18
TORSDOF 4
ENDMDL
