MODEL 1
REMARK VINA RESULT:      -8.3      0.000      0.000
REMARK  Name = 
REMARK  5 active torsions:
REMARK  status: ('A' for Active; 'I' for Inactive)
REMARK    1  A    between atoms: C_2  and  C_11
REMARK    2  A    between atoms: N_3  and  C_4
REMARK    3  A    between atoms: C_7  and  O_8
REMARK    4  A    between atoms: C_13  and  C_14
REMARK    5  A    between atoms: N_20  and  C_21
REMARK                            x       y       z     vdW  Elec       q    Type
REMARK                         _______ _______ _______ _____ _____    ______ ____
ROOT
ATOM      1  C   UNL     1       2.494   8.067  17.954  0.00  0.00    +0.000 A 
ATOM      2  N   UNL     1       3.776   7.931  17.452  0.00  0.00    +0.000 NA
ATOM      3  C   UNL     1       4.007   6.628  17.503  0.00  0.00    +0.000 A 
ATOM      4  N   UNL     1       2.920   6.004  18.121  0.00  0.00    +0.000 N 
ATOM      5  N   UNL     1       1.919   6.898  18.289  0.00  0.00    +0.000 NA
ENDROOT
BRANCH   3   6
ATOM      6  C   UNL     1       5.192   5.961  16.944  0.00  0.00    +0.000 A 
ATOM      7  C   UNL     1       6.200   5.506  17.802  0.00  0.00    +0.000 A 
ATOM      8  C   UNL     1       7.270   4.756  17.306  0.00  0.00    +0.000 A 
ATOM      9  C   UNL     1       7.342   4.449  15.948  0.00  0.00    +0.000 A 
ATOM     10  C   UNL     1       6.380   4.945  15.074  0.00  0.00    +0.000 A 
ATOM     11  C   UNL     1       5.337   5.732  15.565  0.00  0.00    +0.000 A 
ENDBRANCH   3   6
BRANCH   4  12
ATOM     12  C   UNL     1       2.753   4.635  18.477  0.00  0.00    +0.000 A 
ATOM     13  C   UNL     1       3.195   4.159  19.722  0.00  0.00    +0.000 A 
ATOM     14  C   UNL     1       3.261   2.786  19.964  0.00  0.00    +0.000 A 
ATOM     15  C   UNL     1       2.847   1.887  18.985  0.00  0.00    +0.000 A 
ATOM     16  C   UNL     1       2.322   2.360  17.781  0.00  0.00    +0.000 A 
ATOM     17  C   UNL     1       2.253   3.735  17.530  0.00  0.00    +0.000 A 
ENDBRANCH   4  12
BRANCH   1  19
ATOM     18  O   UNL     1       2.321  10.417  17.632  0.00  0.00    +0.000 OA
ATOM     19  C   UNL     1       1.805   9.383  18.053  0.00  0.00    +0.000 C 
ATOM     20  N   UNL     1       0.574   9.305  18.698  0.00  0.00    +0.000 N 
ATOM     21  H   UNL     1       0.333   8.384  19.051  0.00  0.00    +0.000 HD
BRANCH  20  22
ATOM     22  C   UNL     1      -0.270  10.388  19.043  0.00  0.00    +0.000 A 
ATOM     23  C   UNL     1      -0.182  11.081  20.252  0.00  0.00    +0.000 A 
ATOM     24  C   UNL     1      -1.082  12.111  20.559  0.00  0.00    +0.000 A 
ATOM     25  C   UNL     1      -2.077  12.449  19.653  0.00  0.00    +0.000 A 
ATOM     26  C   UNL     1      -2.172  11.795  18.436  0.00  0.00    +0.000 A 
ATOM     27  C   UNL     1      -1.260  10.773  18.125  0.00  0.00    +0.000 A 
BRANCH  25  28
ATOM     28  O   UNL     1      -2.985  13.426  19.933  0.00  0.00    +0.000 OA
ATOM     29  H   UNL     1      -2.602  14.026  20.594  0.00  0.00    +0.000 HD
ENDBRANCH  25  28
ENDBRANCH  20  22
ENDBRANCH   1  19
TORSDOF 5
ENDMDL
MODEL 2
REMARK VINA RESULT:      -8.3      0.395      3.498
REMARK  Name = 
REMARK  5 active torsions:
REMARK  status: ('A' for Active; 'I' for Inactive)
REMARK    1  A    between atoms: C_2  and  C_11
REMARK    2  A    between atoms: N_3  and  C_4
REMARK    3  A    between atoms: C_7  and  O_8
REMARK    4  A    between atoms: C_13  and  C_14
REMARK    5  A    between atoms: N_20  and  C_21
REMARK                            x       y       z     vdW  Elec       q    Type
REMARK                         _______ _______ _______ _____ _____    ______ ____
ROOT
ATOM      1  C   UNL     1       2.487   8.115  17.916  0.00  0.00    +0.000 A 
ATOM      2  N   UNL     1       1.892   6.917  18.269  0.00  0.00    +0.000 NA
ATOM      3  C   UNL     1       2.839   6.013  18.064  0.00  0.00    +0.000 A 
ATOM      4  N   UNL     1       3.949   6.648  17.498  0.00  0.00    +0.000 N 
ATOM      5  N   UNL     1       3.767   7.989  17.524  0.00  0.00    +0.000 NA
ENDROOT
BRANCH   3   6
ATOM      6  C   UNL     1       2.740   4.593  18.429  0.00  0.00    +0.000 A 
ATOM      7  C   UNL     1       2.381   3.651  17.457  0.00  0.00    +0.000 A 
ATOM      8  C   UNL     1       2.408   2.285  17.750  0.00  0.00    +0.000 A 
ATOM      9  C   UNL     1       2.798   1.845  19.014  0.00  0.00    +0.000 A 
ATOM     10  C   UNL     1       3.100   2.770  20.007  0.00  0.00    +0.000 A 
ATOM     11  C   UNL     1       3.028   4.135  19.727  0.00  0.00    +0.000 A 
ENDBRANCH   3   6
BRANCH   4  12
ATOM     12  C   UNL     1       5.164   6.078  17.024  0.00  0.00    +0.000 A 
ATOM     13  C   UNL     1       5.325   5.759  15.666  0.00  0.00    +0.000 A 
ATOM     14  C   UNL     1       6.405   4.978  15.252  0.00  0.00    +0.000 A 
ATOM     15  C   UNL     1       7.348   4.548  16.181  0.00  0.00    +0.000 A 
ATOM     16  C   UNL     1       7.240   4.940  17.517  0.00  0.00    +0.000 A 
ATOM     17  C   UNL     1       6.160   5.723  17.940  0.00  0.00    +0.000 A 
ENDBRANCH   4  12
BRANCH   1  19
ATOM     18  O   UNL     1       2.287  10.465  17.610  0.00  0.00    +0.000 OA
ATOM     19  C   UNL     1       1.782   9.423  18.021  0.00  0.00    +0.000 C 
ATOM     20  N   UNL     1       0.548   9.324  18.658  0.00  0.00    +0.000 N 
ATOM     21  H   UNL     1       0.316   8.398  19.003  0.00  0.00    +0.000 HD
BRANCH  20  22
ATOM     22  C   UNL     1      -0.311  10.394  19.006  0.00  0.00    +0.000 A 
ATOM     23  C   UNL     1      -0.190  11.130  20.187  0.00  0.00    +0.000 A 
ATOM     24  C   UNL     1      -1.106  12.144  20.500  0.00  0.00    +0.000 A 
ATOM     25  C   UNL     1      -2.149  12.423  19.629  0.00  0.00    +0.000 A 
ATOM     26  C   UNL     1      -2.279  11.727  18.440  0.00  0.00    +0.000 A 
ATOM     27  C   UNL     1      -1.352  10.721  18.121  0.00  0.00    +0.000 A 
BRANCH  25  28
ATOM     28  O   UNL     1      -3.073  13.384  19.918  0.00  0.00    +0.000 OA
ATOM     29  H   UNL     1      -2.684  14.007  20.554  0.00  0.00    +0.000 HD
ENDBRANCH  25  28
ENDBRANCH  20  22
ENDBRANCH   1  19
TORSDOF 5
ENDMDL
MODEL 3
REMARK VINA RESULT:      -8.2      0.641      1.453
REMARK  Name = 
REMARK  5 active torsions:
REMARK  status: ('A' for Active; 'I' for Inactive)
REMARK    1  A    between atoms: C_2  and  C_11
REMARK    2  A    between atoms: N_3  and  C_4
REMARK    3  A    between atoms: C_7  and  O_8
REMARK    4  A    between atoms: C_13  and  C_14
REMARK    5  A    between atoms: N_20  and  C_21
REMARK                            x       y       z     vdW  Elec       q    Type
REMARK                         _______ _______ _______ _____ _____    ______ ____
ROOT
ATOM      1  C   UNL     1       2.485   8.036  18.065  0.00  0.00    +0.000 A 
ATOM      2  N   UNL     1       3.749   7.770  17.569  0.00  0.00    +0.000 NA
ATOM      3  C   UNL     1       3.882   6.459  17.706  0.00  0.00    +0.000 A 
ATOM      4  N   UNL     1       2.757   5.962  18.370  0.00  0.00    +0.000 N 
ATOM      5  N   UNL     1       1.827   6.939  18.480  0.00  0.00    +0.000 NA
ENDROOT
BRANCH   3   6
ATOM      6  C   UNL     1       5.009   5.669  17.190  0.00  0.00    +0.000 A 
ATOM      7  C   UNL     1       5.023   5.278  15.846  0.00  0.00    +0.000 A 
ATOM      8  C   UNL     1       6.142   4.641  15.304  0.00  0.00    +0.000 A 
ATOM      9  C   UNL     1       7.261   4.390  16.098  0.00  0.00    +0.000 A 
ATOM     10  C   UNL     1       7.238   4.719  17.449  0.00  0.00    +0.000 A 
ATOM     11  C   UNL     1       6.103   5.314  17.999  0.00  0.00    +0.000 A 
ENDBRANCH   3   6
BRANCH   4  12
ATOM     12  C   UNL     1       2.491   4.637  18.818  0.00  0.00    +0.000 A 
ATOM     13  C   UNL     1       1.634   3.793  18.093  0.00  0.00    +0.000 A 
ATOM     14  C   UNL     1       1.180   2.600  18.658  0.00  0.00    +0.000 A 
ATOM     15  C   UNL     1       1.611   2.226  19.928  0.00  0.00    +0.000 A 
ATOM     16  C   UNL     1       2.534   3.018  20.613  0.00  0.00    +0.000 A 
ATOM     17  C   UNL     1       2.994   4.216  20.053  0.00  0.00    +0.000 A 
ENDBRANCH   4  12
BRANCH   1  19
ATOM     18  O   UNL     1       2.429  10.342  17.487  0.00  0.00    +0.000 OA
ATOM     19  C   UNL     1       1.898   9.404  18.078  0.00  0.00    +0.000 C 
ATOM     20  N   UNL     1       0.744   9.492  18.850  0.00  0.00    +0.000 N 
ATOM     21  H   UNL     1       0.484   8.637  19.332  0.00  0.00    +0.000 HD
BRANCH  20  22
ATOM     22  C   UNL     1       0.015  10.668  19.150  0.00  0.00    +0.000 A 
ATOM     23  C   UNL     1       0.404  11.592  20.122  0.00  0.00    +0.000 A 
ATOM     24  C   UNL     1      -0.389  12.711  20.410  0.00  0.00    +0.000 A 
ATOM     25  C   UNL     1      -1.579  12.908  19.723  0.00  0.00    +0.000 A 
ATOM     26  C   UNL     1      -1.977  12.022  18.737  0.00  0.00    +0.000 A 
ATOM     27  C   UNL     1      -1.173  10.909  18.440  0.00  0.00    +0.000 A 
BRANCH  25  28
ATOM     28  O   UNL     1      -2.386  13.971  19.999  0.00  0.00    +0.000 OA
ATOM     29  H   UNL     1      -2.665  14.375  19.161  0.00  0.00    +0.000 HD
ENDBRANCH  25  28
ENDBRANCH  20  22
ENDBRANCH   1  19
TORSDOF 5
ENDMDL
MODEL 4
REMARK VINA RESULT:      -8.2      0.541      3.578
REMARK  Name = 
REMARK  5 active torsions:
REMARK  status: ('A' for Active; 'I' for Inactive)
REMARK    1  A    between atoms: C_2  and  C_11
REMARK    2  A    between atoms: N_3  and  C_4
REMARK    3  A    between atoms: C_7  and  O_8
REMARK    4  A    between atoms: C_13  and  C_14
REMARK    5  A    between atoms: N_20  and  C_21
REMARK                            x       y       z     vdW  Elec       q    Type
REMARK                         _______ _______ _______ _____ _____    ______ ____
ROOT
ATOM      1  C   UNL     1       2.474   8.122  17.934  0.00  0.00    +0.000 A 
ATOM      2  N   UNL     1       1.843   6.935  18.261  0.00  0.00    +0.000 NA
ATOM      3  C   UNL     1       2.780   6.013  18.092  0.00  0.00    +0.000 A 
ATOM      4  N   UNL     1       3.924   6.627  17.573  0.00  0.00    +0.000 N 
ATOM      5  N   UNL     1       3.766   7.971  17.594  0.00  0.00    +0.000 NA
ENDROOT
BRANCH   3   6
ATOM      6  C   UNL     1       2.639   4.594  18.451  0.00  0.00    +0.000 A 
ATOM      7  C   UNL     1       2.491   4.230  19.794  0.00  0.00    +0.000 A 
ATOM      8  C   UNL     1       2.226   2.904  20.144  0.00  0.00    +0.000 A 
ATOM      9  C   UNL     1       2.102   1.928  19.156  0.00  0.00    +0.000 A 
ATOM     10  C   UNL     1       2.305   2.263  17.823  0.00  0.00    +0.000 A 
ATOM     11  C   UNL     1       2.615   3.579  17.478  0.00  0.00    +0.000 A 
ENDBRANCH   3   6
BRANCH   4  12
ATOM     12  C   UNL     1       5.146   6.034  17.148  0.00  0.00    +0.000 A 
ATOM     13  C   UNL     1       5.321   5.628  15.816  0.00  0.00    +0.000 A 
ATOM     14  C   UNL     1       6.409   4.827  15.464  0.00  0.00    +0.000 A 
ATOM     15  C   UNL     1       7.346   4.466  16.428  0.00  0.00    +0.000 A 
ATOM     16  C   UNL     1       7.224   4.944  17.733  0.00  0.00    +0.000 A 
ATOM     17  C   UNL     1       6.136   5.747  18.095  0.00  0.00    +0.000 A 
ENDBRANCH   4  12
BRANCH   1  19
ATOM     18  O   UNL     1       2.312  10.468  17.579  0.00  0.00    +0.000 OA
ATOM     19  C   UNL     1       1.790   9.442  18.012  0.00  0.00    +0.000 C 
ATOM     20  N   UNL     1       0.556   9.378  18.652  0.00  0.00    +0.000 N 
ATOM     21  H   UNL     1       0.309   8.462  19.016  0.00  0.00    +0.000 HD
BRANCH  20  22
ATOM     22  C   UNL     1      -0.285  10.468  18.979  0.00  0.00    +0.000 A 
ATOM     23  C   UNL     1      -1.360  10.879  18.187  0.00  0.00    +0.000 A 
ATOM     24  C   UNL     1      -2.124  12.001  18.537  0.00  0.00    +0.000 A 
ATOM     25  C   UNL     1      -1.812  12.717  19.684  0.00  0.00    +0.000 A 
ATOM     26  C   UNL     1      -0.767  12.318  20.500  0.00  0.00    +0.000 A 
ATOM     27  C   UNL     1      -0.013  11.185  20.155  0.00  0.00    +0.000 A 
BRANCH  25  28
ATOM     28  O   UNL     1      -2.517  13.829  20.036  0.00  0.00    +0.000 OA
ATOM     29  H   UNL     1      -2.529  13.895  21.005  0.00  0.00    +0.000 HD
ENDBRANCH  25  28
ENDBRANCH  20  22
ENDBRANCH   1  19
TORSDOF 5
ENDMDL
MODEL 5
REMARK VINA RESULT:      -8.2      0.436      1.335
REMARK  Name = 
REMARK  5 active torsions:
REMARK  status: ('A' for Active; 'I' for Inactive)
REMARK    1  A    between atoms: C_2  and  C_11
REMARK    2  A    between atoms: N_3  and  C_4
REMARK    3  A    between atoms: C_7  and  O_8
REMARK    4  A    between atoms: C_13  and  C_14
REMARK    5  A    between atoms: N_20  and  C_21
REMARK                            x       y       z     vdW  Elec       q    Type
REMARK                         _______ _______ _______ _____ _____    ______ ____
ROOT
ATOM      1  C   UNL     1       2.448   7.986  17.943  0.00  0.00    +0.000 A 
ATOM      2  N   UNL     1       3.761   7.854  17.527  0.00  0.00    +0.000 NA
ATOM      3  C   UNL     1       3.994   6.552  17.603  0.00  0.00    +0.000 A 
ATOM      4  N   UNL     1       2.872   5.927  18.155  0.00  0.00    +0.000 N 
ATOM      5  N   UNL     1       1.858   6.818  18.249  0.00  0.00    +0.000 NA
ENDROOT
BRANCH   3   6
ATOM      6  C   UNL     1       5.216   5.887  17.129  0.00  0.00    +0.000 A 
ATOM      7  C   UNL     1       6.222   5.551  18.043  0.00  0.00    +0.000 A 
ATOM      8  C   UNL     1       7.331   4.804  17.635  0.00  0.00    +0.000 A 
ATOM      9  C   UNL     1       7.444   4.381  16.312  0.00  0.00    +0.000 A 
ATOM     10  C   UNL     1       6.484   4.758  15.380  0.00  0.00    +0.000 A 
ATOM     11  C   UNL     1       5.401   5.542  15.779  0.00  0.00    +0.000 A 
ENDBRANCH   3   6
BRANCH   4  12
ATOM     12  C   UNL     1       2.689   4.561  18.510  0.00  0.00    +0.000 A 
ATOM     13  C   UNL     1       2.702   3.556  17.529  0.00  0.00    +0.000 A 
ATOM     14  C   UNL     1       2.275   2.265  17.841  0.00  0.00    +0.000 A 
ATOM     15  C   UNL     1       1.875   1.960  19.139  0.00  0.00    +0.000 A 
ATOM     16  C   UNL     1       1.948   2.933  20.137  0.00  0.00    +0.000 A 
ATOM     17  C   UNL     1       2.374   4.231  19.833  0.00  0.00    +0.000 A 
ENDBRANCH   4  12
BRANCH   1  19
ATOM     18  O   UNL     1       2.218  10.302  17.450  0.00  0.00    +0.000 OA
ATOM     19  C   UNL     1       1.748   9.300  17.987  0.00  0.00    +0.000 C 
ATOM     20  N   UNL     1       0.567   9.262  18.721  0.00  0.00    +0.000 N 
ATOM     21  H   UNL     1       0.364   8.369  19.161  0.00  0.00    +0.000 HD
BRANCH  20  22
ATOM     22  C   UNL     1      -0.268  10.360  19.038  0.00  0.00    +0.000 A 
ATOM     23  C   UNL     1      -1.333  10.779  18.238  0.00  0.00    +0.000 A 
ATOM     24  C   UNL     1      -2.090  11.909  18.579  0.00  0.00    +0.000 A 
ATOM     25  C   UNL     1      -1.780  12.625  19.727  0.00  0.00    +0.000 A 
ATOM     26  C   UNL     1      -0.745  12.218  20.552  0.00  0.00    +0.000 A 
ATOM     27  C   UNL     1       0.003  11.077  20.215  0.00  0.00    +0.000 A 
BRANCH  25  28
ATOM     28  O   UNL     1      -2.478  13.743  20.072  0.00  0.00    +0.000 OA
ATOM     29  H   UNL     1      -1.860  14.490  20.128  0.00  0.00    +0.000 HD
ENDBRANCH  25  28
ENDBRANCH  20  22
ENDBRANCH   1  19
TORSDOF 5
ENDMDL
MODEL 6
REMARK VINA RESULT:      -8.1      0.784      3.488
REMARK  Name = 
REMARK  5 active torsions:
REMARK  status: ('A' for Active; 'I' for Inactive)
REMARK    1  A    between atoms: C_2  and  C_11
REMARK    2  A    between atoms: N_3  and  C_4
REMARK    3  A    between atoms: C_7  and  O_8
REMARK    4  A    between atoms: C_13  and  C_14
REMARK    5  A    between atoms: N_20  and  C_21
REMARK                            x       y       z     vdW  Elec       q    Type
REMARK                         _______ _______ _______ _____ _____    ______ ____
ROOT
ATOM      1  C   UNL     1       2.466   8.064  17.988  0.00  0.00    +0.000 A 
ATOM      2  N   UNL     1       1.723   6.950  18.335  0.00  0.00    +0.000 NA
ATOM      3  C   UNL     1       2.570   5.940  18.200  0.00  0.00    +0.000 A 
ATOM      4  N   UNL     1       3.771   6.431  17.680  0.00  0.00    +0.000 N 
ATOM      5  N   UNL     1       3.741   7.784  17.667  0.00  0.00    +0.000 NA
ENDROOT
BRANCH   3   6
ATOM      6  C   UNL     1       2.293   4.550  18.590  0.00  0.00    +0.000 A 
ATOM      7  C   UNL     1       1.796   4.276  19.870  0.00  0.00    +0.000 A 
ATOM      8  C   UNL     1       1.404   2.980  20.216  0.00  0.00    +0.000 A 
ATOM      9  C   UNL     1       1.500   1.946  19.286  0.00  0.00    +0.000 A 
ATOM     10  C   UNL     1       2.046   2.191  18.031  0.00  0.00    +0.000 A 
ATOM     11  C   UNL     1       2.480   3.476  17.703  0.00  0.00    +0.000 A 
ENDBRANCH   3   6
BRANCH   4  12
ATOM     12  C   UNL     1       4.937   5.715  17.283  0.00  0.00    +0.000 A 
ATOM     13  C   UNL     1       5.879   5.295  18.236  0.00  0.00    +0.000 A 
ATOM     14  C   UNL     1       7.128   4.823  17.827  0.00  0.00    +0.000 A 
ATOM     15  C   UNL     1       7.425   4.731  16.470  0.00  0.00    +0.000 A 
ATOM     16  C   UNL     1       6.457   5.062  15.520  0.00  0.00    +0.000 A 
ATOM     17  C   UNL     1       5.203   5.536  15.921  0.00  0.00    +0.000 A 
ENDBRANCH   4  12
BRANCH   1  19
ATOM     18  O   UNL     1       2.471  10.385  17.469  0.00  0.00    +0.000 OA
ATOM     19  C   UNL     1       1.909   9.444  18.026  0.00  0.00    +0.000 C 
ATOM     20  N   UNL     1       0.744   9.538  18.781  0.00  0.00    +0.000 N 
ATOM     21  H   UNL     1       0.456   8.677  19.236  0.00  0.00    +0.000 HD
BRANCH  20  22
ATOM     22  C   UNL     1       0.035  10.722  19.098  0.00  0.00    +0.000 A 
ATOM     23  C   UNL     1       0.447  11.631  20.076  0.00  0.00    +0.000 A 
ATOM     24  C   UNL     1      -0.327  12.759  20.382  0.00  0.00    +0.000 A 
ATOM     25  C   UNL     1      -1.519  12.980  19.708  0.00  0.00    +0.000 A 
ATOM     26  C   UNL     1      -1.940  12.109  18.717  0.00  0.00    +0.000 A 
ATOM     27  C   UNL     1      -1.155  10.988  18.402  0.00  0.00    +0.000 A 
BRANCH  25  28
ATOM     28  O   UNL     1      -2.308  14.052  20.001  0.00  0.00    +0.000 OA
ATOM     29  H   UNL     1      -3.230  13.752  20.064  0.00  0.00    +0.000 HD
ENDBRANCH  25  28
ENDBRANCH  20  22
ENDBRANCH   1  19
TORSDOF 5
ENDMDL
MODEL 7
REMARK VINA RESULT:      -8.1      0.777      3.695
REMARK  Name = 
REMARK  5 active torsions:
REMARK  status: ('A' for Active; 'I' for Inactive)
REMARK    1  A    between atoms: C_2  and  C_11
REMARK    2  A    between atoms: N_3  and  C_4
REMARK    3  A    between atoms: C_7  and  O_8
REMARK    4  A    between atoms: C_13  and  C_14
REMARK    5  A    between atoms: N_20  and  C_21
REMARK                            x       y       z     vdW  Elec       q    Type
REMARK                         _______ _______ _______ _____ _____    ______ ____
ROOT
ATOM      1  C   UNL     1       2.612   7.914  18.028  0.00  0.00    +0.000 A 
ATOM      2  N   UNL     1       2.090   6.686  18.394  0.00  0.00    +0.000 NA
ATOM      3  C   UNL     1       3.035   5.820  18.056  0.00  0.00    +0.000 A 
ATOM      4  N   UNL     1       4.061   6.509  17.403  0.00  0.00    +0.000 N 
ATOM      5  N   UNL     1       3.846   7.841  17.500  0.00  0.00    +0.000 NA
ENDROOT
BRANCH   3   6
ATOM      6  C   UNL     1       3.013   4.385  18.375  0.00  0.00    +0.000 A 
ATOM      7  C   UNL     1       2.397   3.489  17.494  0.00  0.00    +0.000 A 
ATOM      8  C   UNL     1       2.479   2.111  17.712  0.00  0.00    +0.000 A 
ATOM      9  C   UNL     1       3.181   1.614  18.808  0.00  0.00    +0.000 A 
ATOM     10  C   UNL     1       3.747   2.493  19.724  0.00  0.00    +0.000 A 
ATOM     11  C   UNL     1       3.626   3.869  19.530  0.00  0.00    +0.000 A 
ENDBRANCH   3   6
BRANCH   4  12
ATOM     12  C   UNL     1       5.235   5.994  16.784  0.00  0.00    +0.000 A 
ATOM     13  C   UNL     1       5.290   5.809  15.393  0.00  0.00    +0.000 A 
ATOM     14  C   UNL     1       6.333   5.077  14.823  0.00  0.00    +0.000 A 
ATOM     15  C   UNL     1       7.345   4.565  15.631  0.00  0.00    +0.000 A 
ATOM     16  C   UNL     1       7.340   4.826  17.003  0.00  0.00    +0.000 A 
ATOM     17  C   UNL     1       6.298   5.558  17.582  0.00  0.00    +0.000 A 
ENDBRANCH   4  12
BRANCH   1  19
ATOM     18  O   UNL     1       2.124  10.200  17.590  0.00  0.00    +0.000 OA
ATOM     19  C   UNL     1       1.886   9.194  18.255  0.00  0.00    +0.000 C 
ATOM     20  N   UNL     1       0.974   9.122  19.304  0.00  0.00    +0.000 N 
ATOM     21  H   UNL     1       0.957   8.235  19.798  0.00  0.00    +0.000 HD
BRANCH  20  22
ATOM     22  C   UNL     1       0.211  10.189  19.837  0.00  0.00    +0.000 A 
ATOM     23  C   UNL     1      -0.775  10.868  19.118  0.00  0.00    +0.000 A 
ATOM     24  C   UNL     1      -1.460  11.953  19.683  0.00  0.00    +0.000 A 
ATOM     25  C   UNL     1      -1.156  12.363  20.973  0.00  0.00    +0.000 A 
ATOM     26  C   UNL     1      -0.200  11.693  21.718  0.00  0.00    +0.000 A 
ATOM     27  C   UNL     1       0.474  10.597  21.155  0.00  0.00    +0.000 A 
BRANCH  25  28
ATOM     28  O   UNL     1      -1.783  13.432  21.541  0.00  0.00    +0.000 OA
ATOM     29  H   UNL     1      -1.192  14.201  21.491  0.00  0.00    +0.000 HD
ENDBRANCH  25  28
ENDBRANCH  20  22
ENDBRANCH   1  19
TORSDOF 5
ENDMDL
MODEL 8
REMARK VINA RESULT:      -8.1      0.396      1.356
REMARK  Name = 
REMARK  5 active torsions:
REMARK  status: ('A' for Active; 'I' for Inactive)
REMARK    1  A    between atoms: C_2  and  C_11
REMARK    2  A    between atoms: N_3  and  C_4
REMARK    3  A    between atoms: C_7  and  O_8
REMARK    4  A    between atoms: C_13  and  C_14
REMARK    5  A    between atoms: N_20  and  C_21
REMARK                            x       y       z     vdW  Elec       q    Type
REMARK                         _______ _______ _______ _____ _____    ______ ____
ROOT
ATOM      1  C   UNL     1       2.496   8.008  17.968  0.00  0.00    +0.000 A 
ATOM      2  N   UNL     1       3.789   7.795  17.524  0.00  0.00    +0.000 NA
ATOM      3  C   UNL     1       3.948   6.482  17.611  0.00  0.00    +0.000 A 
ATOM      4  N   UNL     1       2.805   5.930  18.194  0.00  0.00    +0.000 N 
ATOM      5  N   UNL     1       1.846   6.879  18.301  0.00  0.00    +0.000 NA
ENDROOT
BRANCH   3   6
ATOM      6  C   UNL     1       5.119   5.742  17.117  0.00  0.00    +0.000 A 
ATOM      7  C   UNL     1       5.265   5.513  15.744  0.00  0.00    +0.000 A 
ATOM      8  C   UNL     1       6.431   4.927  15.243  0.00  0.00    +0.000 A 
ATOM      9  C   UNL     1       7.464   4.569  16.107  0.00  0.00    +0.000 A 
ATOM     10  C   UNL     1       7.309   4.736  17.479  0.00  0.00    +0.000 A 
ATOM     11  C   UNL     1       6.126   5.279  17.982  0.00  0.00    +0.000 A 
ENDBRANCH   3   6
BRANCH   4  12
ATOM     12  C   UNL     1       2.551   4.580  18.570  0.00  0.00    +0.000 A 
ATOM     13  C   UNL     1       2.773   4.148  19.887  0.00  0.00    +0.000 A 
ATOM     14  C   UNL     1       2.767   2.785  20.189  0.00  0.00    +0.000 A 
ATOM     15  C   UNL     1       2.497   1.854  19.189  0.00  0.00    +0.000 A 
ATOM     16  C   UNL     1       2.186   2.286  17.899  0.00  0.00    +0.000 A 
ATOM     17  C   UNL     1       2.190   3.650  17.588  0.00  0.00    +0.000 A 
ENDBRANCH   4  12
BRANCH   1  19
ATOM     18  O   UNL     1       2.424  10.341  17.514  0.00  0.00    +0.000 OA
ATOM     19  C   UNL     1       1.875   9.361  18.011  0.00  0.00    +0.000 C 
ATOM     20  N   UNL     1       0.665   9.381  18.699  0.00  0.00    +0.000 N 
ATOM     21  H   UNL     1       0.393   8.494  19.113  0.00  0.00    +0.000 HD
BRANCH  20  22
ATOM     22  C   UNL     1      -0.114  10.522  19.007  0.00  0.00    +0.000 A 
ATOM     23  C   UNL     1      -1.285  10.865  18.328  0.00  0.00    +0.000 A 
ATOM     24  C   UNL     1      -1.983  12.038  18.644  0.00  0.00    +0.000 A 
ATOM     25  C   UNL     1      -1.509  12.874  19.645  0.00  0.00    +0.000 A 
ATOM     26  C   UNL     1      -0.364  12.546  20.352  0.00  0.00    +0.000 A 
ATOM     27  C   UNL     1       0.326  11.362  20.043  0.00  0.00    +0.000 A 
BRANCH  25  28
ATOM     28  O   UNL     1      -2.149  14.036  19.958  0.00  0.00    +0.000 OA
ATOM     29  H   UNL     1      -1.515  14.768  19.889  0.00  0.00    +0.000 HD
ENDBRANCH  25  28
ENDBRANCH  20  22
ENDBRANCH   1  19
TORSDOF 5
ENDMDL
MODEL 9
REMARK VINA RESULT:      -8.1      1.088      3.697
REMARK  Name = 
REMARK  5 active torsions:
REMARK  status: ('A' for Active; 'I' for Inactive)
REMARK    1  A    between atoms: C_2  and  C_11
REMARK    2  A    between atoms: N_3  and  C_4
REMARK    3  A    between atoms: C_7  and  O_8
REMARK    4  A    between atoms: C_13  and  C_14
REMARK    5  A    between atoms: N_20  and  C_21
REMARK                            x       y       z     vdW  Elec       q    Type
REMARK                         _______ _______ _______ _____ _____    ______ ____
ROOT
ATOM      1  C   UNL     1       2.434   7.976  18.280  0.00  0.00    +0.000 A 
ATOM      2  N   UNL     1       1.773   6.954  18.937  0.00  0.00    +0.000 NA
ATOM      3  C   UNL     1       2.609   5.929  18.865  0.00  0.00    +0.000 A 
ATOM      4  N   UNL     1       3.709   6.301  18.086  0.00  0.00    +0.000 N 
ATOM      5  N   UNL     1       3.652   7.628  17.826  0.00  0.00    +0.000 NA
ENDROOT
BRANCH   3   6
ATOM      6  C   UNL     1       2.421   4.639  19.544  0.00  0.00    +0.000 A 
ATOM      7  C   UNL     1       2.459   4.580  20.942  0.00  0.00    +0.000 A 
ATOM      8  C   UNL     1       2.153   3.391  21.611  0.00  0.00    +0.000 A 
ATOM      9  C   UNL     1       1.802   2.251  20.891  0.00  0.00    +0.000 A 
ATOM     10  C   UNL     1       1.818   2.278  19.501  0.00  0.00    +0.000 A 
ATOM     11  C   UNL     1       2.168   3.452  18.834  0.00  0.00    +0.000 A 
ENDBRANCH   3   6
BRANCH   4  12
ATOM     12  C   UNL     1       4.814   5.513  17.657  0.00  0.00    +0.000 A 
ATOM     13  C   UNL     1       5.974   5.418  18.442  0.00  0.00    +0.000 A 
ATOM     14  C   UNL     1       7.138   4.859  17.909  0.00  0.00    +0.000 A 
ATOM     15  C   UNL     1       7.135   4.357  16.611  0.00  0.00    +0.000 A 
ATOM     16  C   UNL     1       5.958   4.367  15.861  0.00  0.00    +0.000 A 
ATOM     17  C   UNL     1       4.788   4.926  16.387  0.00  0.00    +0.000 A 
ENDBRANCH   4  12
BRANCH   1  19
ATOM     18  O   UNL     1       2.338  10.170  17.366  0.00  0.00    +0.000 OA
ATOM     19  C   UNL     1       1.864   9.345  18.145  0.00  0.00    +0.000 C 
ATOM     20  N   UNL     1       0.798   9.576  19.010  0.00  0.00    +0.000 N 
ATOM     21  H   UNL     1       0.584   8.810  19.640  0.00  0.00    +0.000 HD
BRANCH  20  22
ATOM     22  C   UNL     1       0.115  10.801  19.201  0.00  0.00    +0.000 A 
ATOM     23  C   UNL     1      -1.040  11.159  18.502  0.00  0.00    +0.000 A 
ATOM     24  C   UNL     1      -1.641  12.410  18.697  0.00  0.00    +0.000 A 
ATOM     25  C   UNL     1      -1.084  13.310  19.595  0.00  0.00    +0.000 A 
ATOM     26  C   UNL     1       0.047  12.973  20.319  0.00  0.00    +0.000 A 
ATOM     27  C   UNL     1       0.639  11.712  20.132  0.00  0.00    +0.000 A 
BRANCH  25  28
ATOM     28  O   UNL     1      -1.627  14.545  19.786  0.00  0.00    +0.000 OA
ATOM     29  H   UNL     1      -2.333  14.474  20.450  0.00  0.00    +0.000 HD
ENDBRANCH  25  28
ENDBRANCH  20  22
ENDBRANCH   1  19
TORSDOF 5
ENDMDL
