MODEL 1
REMARK VINA RESULT:      -8.7      0.000      0.000
REMARK  Name = 
REMARK  5 active torsions:
REMARK  status: ('A' for Active; 'I' for Inactive)
REMARK    1  A    between atoms: C_2  and  C_3
REMARK    2  A    between atoms: C_3  and  N_4
REMARK    3  A    between atoms: N_15  and  C_16
REMARK    4  A    between atoms: C_20  and  S_21
REMARK    5  A    between atoms: S_21  and  N_24
REMARK                            x       y       z     vdW  Elec       q    Type
REMARK                         _______ _______ _______ _____ _____    ______ ____
ROOT
ATOM      1  O   UNL     1       1.949   4.758  17.686  0.00  0.00    +0.000 OA
ATOM      2  C   UNL     1       3.013   5.038  18.236  0.00  0.00    +0.000 C 
ATOM      3  N   UNL     1       3.321   6.245  18.855  0.00  0.00    +0.000 N 
ATOM      4  H   UNL     1       4.277   6.371  19.176  0.00  0.00    +0.000 HD
ENDROOT
BRANCH   3   5
ATOM      5  C   UNL     1       2.461   7.368  18.946  0.00  0.00    +0.000 A 
ATOM      6  C   UNL     1       2.224   8.221  17.862  0.00  0.00    +0.000 A 
ATOM      7  C   UNL     1       1.423   9.357  17.998  0.00  0.00    +0.000 A 
ATOM      8  C   UNL     1       0.849   9.660  19.227  0.00  0.00    +0.000 A 
ATOM      9  C   UNL     1       1.042   8.797  20.309  0.00  0.00    +0.000 A 
ATOM     10  C   UNL     1       1.838   7.646  20.173  0.00  0.00    +0.000 A 
BRANCH   9  11
ATOM     11  S   UNL     1       0.429   9.299  21.915  0.00  0.00    +0.000 S 
ATOM     12  O   UNL     1      -0.681   8.425  22.238  0.00  0.00    +0.000 OA
ATOM     13  O   UNL     1       1.574   9.404  22.794  0.00  0.00    +0.000 OA
BRANCH  11  14
ATOM     14  N   UNL     1      -0.192  10.878  21.667  0.00  0.00    +0.000 NA
ATOM     15  C   UNL     1      -1.218  11.321  22.646  0.00  0.00    +0.000 C 
ATOM     16  C   UNL     1      -1.854  12.646  22.236  0.00  0.00    +0.000 C 
ATOM     17  C   UNL     1      -0.791  13.705  21.982  0.00  0.00    +0.000 C 
ATOM     18  C   UNL     1       0.153  13.215  20.894  0.00  0.00    +0.000 C 
ATOM     19  C   UNL     1       0.815  11.900  21.291  0.00  0.00    +0.000 C 
ENDBRANCH  11  14
ENDBRANCH   9  11
ENDBRANCH   3   5
BRANCH   2  20
ATOM     20  C   UNL     1       4.138   4.002  18.283  0.00  0.00    +0.000 C 
BRANCH  20  21
ATOM     21  N   UNL     1       5.401   4.533  17.793  0.00  0.00    +0.000 N 
ATOM     22  C   UNL     1       6.253   5.113  18.718  0.00  0.00    +0.000 A 
ATOM     23  O   UNL     1       6.079   5.122  19.931  0.00  0.00    +0.000 OA
ATOM     24  C   UNL     1       7.479   5.794  18.164  0.00  0.00    +0.000 A 
ATOM     25  N   UNL     1       7.794   5.821  16.911  0.00  0.00    +0.000 NA
ATOM     26  C   UNL     1       6.947   5.153  16.010  0.00  0.00    +0.000 A 
ATOM     27  C   UNL     1       7.315   5.159  14.659  0.00  0.00    +0.000 A 
ATOM     28  C   UNL     1       6.543   4.499  13.706  0.00  0.00    +0.000 A 
ATOM     29  C   UNL     1       5.396   3.819  14.103  0.00  0.00    +0.000 A 
ATOM     30  C   UNL     1       5.008   3.816  15.447  0.00  0.00    +0.000 A 
ATOM     31  C   UNL     1       5.767   4.492  16.414  0.00  0.00    +0.000 A 
ENDBRANCH  20  21
ENDBRANCH   2  20
TORSDOF 5
ENDMDL
MODEL 2
REMARK VINA RESULT:      -8.6      2.801      8.867
REMARK  Name = 
REMARK  5 active torsions:
REMARK  status: ('A' for Active; 'I' for Inactive)
REMARK    1  A    between atoms: C_2  and  C_3
REMARK    2  A    between atoms: C_3  and  N_4
REMARK    3  A    between atoms: N_15  and  C_16
REMARK    4  A    between atoms: C_20  and  S_21
REMARK    5  A    between atoms: S_21  and  N_24
REMARK                            x       y       z     vdW  Elec       q    Type
REMARK                         _______ _______ _______ _____ _____    ______ ____
ROOT
ATOM      1  O   UNL     1       1.192   9.130  20.470  0.00  0.00    +0.000 OA
ATOM      2  C   UNL     1       1.551   9.044  19.296  0.00  0.00    +0.000 C 
ATOM      3  N   UNL     1       2.050   7.903  18.675  0.00  0.00    +0.000 N 
ATOM      4  H   UNL     1       2.404   8.009  17.728  0.00  0.00    +0.000 HD
ENDROOT
BRANCH   3   5
ATOM      5  C   UNL     1       2.242   6.644  19.296  0.00  0.00    +0.000 A 
ATOM      6  C   UNL     1       1.626   6.302  20.505  0.00  0.00    +0.000 A 
ATOM      7  C   UNL     1       1.885   5.079  21.128  0.00  0.00    +0.000 A 
ATOM      8  C   UNL     1       2.771   4.178  20.549  0.00  0.00    +0.000 A 
ATOM      9  C   UNL     1       3.364   4.486  19.321  0.00  0.00    +0.000 A 
ATOM     10  C   UNL     1       3.097   5.712  18.686  0.00  0.00    +0.000 A 
BRANCH   9  11
ATOM     11  S   UNL     1       4.623   3.383  18.686  0.00  0.00    +0.000 S 
ATOM     12  O   UNL     1       5.055   2.551  19.792  0.00  0.00    +0.000 OA
ATOM     13  O   UNL     1       4.100   2.794  17.472  0.00  0.00    +0.000 OA
BRANCH  11  14
ATOM     14  N   UNL     1       5.924   4.414  18.256  0.00  0.00    +0.000 NA
ATOM     15  C   UNL     1       5.845   5.006  16.895  0.00  0.00    +0.000 C 
ATOM     16  C   UNL     1       7.129   5.742  16.525  0.00  0.00    +0.000 C 
ATOM     17  C   UNL     1       7.496   6.767  17.589  0.00  0.00    +0.000 C 
ATOM     18  C   UNL     1       7.660   6.061  18.927  0.00  0.00    +0.000 C 
ATOM     19  C   UNL     1       6.381   5.334  19.326  0.00  0.00    +0.000 C 
ENDBRANCH  11  14
ENDBRANCH   9  11
ENDBRANCH   3   5
BRANCH   2  20
ATOM     20  C   UNL     1       1.456  10.268  18.383  0.00  0.00    +0.000 C 
BRANCH  20  21
ATOM     21  N   UNL     1       0.392  11.176  18.784  0.00  0.00    +0.000 N 
ATOM     22  C   UNL     1       0.735  12.245  19.597  0.00  0.00    +0.000 A 
ATOM     23  O   UNL     1       1.878  12.548  19.919  0.00  0.00    +0.000 OA
ATOM     24  C   UNL     1      -0.405  13.078  20.125  0.00  0.00    +0.000 A 
ATOM     25  N   UNL     1      -1.648  12.883  19.829  0.00  0.00    +0.000 NA
ATOM     26  C   UNL     1      -1.951  11.839  18.938  0.00  0.00    +0.000 A 
ATOM     27  C   UNL     1      -3.297  11.658  18.597  0.00  0.00    +0.000 A 
ATOM     28  C   UNL     1      -3.678  10.662  17.701  0.00  0.00    +0.000 A 
ATOM     29  C   UNL     1      -2.709   9.842  17.134  0.00  0.00    +0.000 A 
ATOM     30  C   UNL     1      -1.362  10.001  17.476  0.00  0.00    +0.000 A 
ATOM     31  C   UNL     1      -0.967  10.988  18.390  0.00  0.00    +0.000 A 
ENDBRANCH  20  21
ENDBRANCH   2  20
TORSDOF 5
ENDMDL
MODEL 3
REMARK VINA RESULT:      -8.6      2.745      9.227
REMARK  Name = 
REMARK  5 active torsions:
REMARK  status: ('A' for Active; 'I' for Inactive)
REMARK    1  A    between atoms: C_2  and  C_3
REMARK    2  A    between atoms: C_3  and  N_4
REMARK    3  A    between atoms: N_15  and  C_16
REMARK    4  A    between atoms: C_20  and  S_21
REMARK    5  A    between atoms: S_21  and  N_24
REMARK                            x       y       z     vdW  Elec       q    Type
REMARK                         _______ _______ _______ _____ _____    ______ ____
ROOT
ATOM      1  O   UNL     1       1.099   9.373  20.606  0.00  0.00    +0.000 OA
ATOM      2  C   UNL     1       1.413   9.362  19.417  0.00  0.00    +0.000 C 
ATOM      3  N   UNL     1       1.955   8.284  18.724  0.00  0.00    +0.000 N 
ATOM      4  H   UNL     1       2.262   8.454  17.770  0.00  0.00    +0.000 HD
ENDROOT
BRANCH   3   5
ATOM      5  C   UNL     1       2.250   7.014  19.276  0.00  0.00    +0.000 A 
ATOM      6  C   UNL     1       1.431   6.403  20.233  0.00  0.00    +0.000 A 
ATOM      7  C   UNL     1       1.780   5.179  20.808  0.00  0.00    +0.000 A 
ATOM      8  C   UNL     1       2.961   4.548  20.437  0.00  0.00    +0.000 A 
ATOM      9  C   UNL     1       3.771   5.124  19.454  0.00  0.00    +0.000 A 
ATOM     10  C   UNL     1       3.417   6.350  18.864  0.00  0.00    +0.000 A 
BRANCH   9  11
ATOM     11  S   UNL     1       5.362   4.374  19.119  0.00  0.00    +0.000 S 
ATOM     12  O   UNL     1       6.352   5.131  19.860  0.00  0.00    +0.000 OA
ATOM     13  O   UNL     1       5.212   2.949  19.319  0.00  0.00    +0.000 OA
BRANCH  11  14
ATOM     14  N   UNL     1       5.626   4.647  17.446  0.00  0.00    +0.000 NA
ATOM     15  C   UNL     1       7.050   4.685  17.023  0.00  0.00    +0.000 C 
ATOM     16  C   UNL     1       7.194   5.128  15.570  0.00  0.00    +0.000 C 
ATOM     17  C   UNL     1       6.333   4.273  14.652  0.00  0.00    +0.000 C 
ATOM     18  C   UNL     1       4.880   4.374  15.091  0.00  0.00    +0.000 C 
ATOM     19  C   UNL     1       4.709   3.918  16.536  0.00  0.00    +0.000 C 
ENDBRANCH  11  14
ENDBRANCH   9  11
ENDBRANCH   3   5
BRANCH   2  20
ATOM     20  C   UNL     1       1.205  10.617  18.567  0.00  0.00    +0.000 C 
BRANCH  20  21
ATOM     21  N   UNL     1       0.030  11.373  18.974  0.00  0.00    +0.000 N 
ATOM     22  C   UNL     1       0.211  12.385  19.903  0.00  0.00    +0.000 A 
ATOM     23  O   UNL     1       1.294  12.766  20.331  0.00  0.00    +0.000 OA
ATOM     24  C   UNL     1      -1.040  13.046  20.425  0.00  0.00    +0.000 A 
ATOM     25  N   UNL     1      -2.236  12.760  20.027  0.00  0.00    +0.000 NA
ATOM     26  C   UNL     1      -2.375  11.783  19.025  0.00  0.00    +0.000 A 
ATOM     27  C   UNL     1      -3.671  11.505  18.576  0.00  0.00    +0.000 A 
ATOM     28  C   UNL     1      -3.892  10.569  17.569  0.00  0.00    +0.000 A 
ATOM     29  C   UNL     1      -2.810   9.908  16.998  0.00  0.00    +0.000 A 
ATOM     30  C   UNL     1      -1.511  10.164  17.445  0.00  0.00    +0.000 A 
ATOM     31  C   UNL     1      -1.276  11.091  18.471  0.00  0.00    +0.000 A 
ENDBRANCH  20  21
ENDBRANCH   2  20
TORSDOF 5
ENDMDL
MODEL 4
REMARK VINA RESULT:      -8.4      2.509      9.277
REMARK  Name = 
REMARK  5 active torsions:
REMARK  status: ('A' for Active; 'I' for Inactive)
REMARK    1  A    between atoms: C_2  and  C_3
REMARK    2  A    between atoms: C_3  and  N_4
REMARK    3  A    between atoms: N_15  and  C_16
REMARK    4  A    between atoms: C_20  and  S_21
REMARK    5  A    between atoms: S_21  and  N_24
REMARK                            x       y       z     vdW  Elec       q    Type
REMARK                         _______ _______ _______ _____ _____    ______ ____
ROOT
ATOM      1  O   UNL     1      -0.323   7.935  21.399  0.00  0.00    +0.000 OA
ATOM      2  C   UNL     1       0.795   8.425  21.248  0.00  0.00    +0.000 C 
ATOM      3  N   UNL     1       1.922   7.762  20.771  0.00  0.00    +0.000 N 
ATOM      4  H   UNL     1       2.803   8.268  20.798  0.00  0.00    +0.000 HD
ENDROOT
BRANCH   3   5
ATOM      5  C   UNL     1       1.975   6.399  20.389  0.00  0.00    +0.000 A 
ATOM      6  C   UNL     1       0.996   5.474  20.770  0.00  0.00    +0.000 A 
ATOM      7  C   UNL     1       1.108   4.123  20.434  0.00  0.00    +0.000 A 
ATOM      8  C   UNL     1       2.207   3.675  19.712  0.00  0.00    +0.000 A 
ATOM      9  C   UNL     1       3.174   4.591  19.288  0.00  0.00    +0.000 A 
ATOM     10  C   UNL     1       3.059   5.954  19.615  0.00  0.00    +0.000 A 
BRANCH   9  11
ATOM     11  S   UNL     1       4.657   3.961  18.507  0.00  0.00    +0.000 S 
ATOM     12  O   UNL     1       5.282   3.057  19.452  0.00  0.00    +0.000 OA
ATOM     13  O   UNL     1       4.282   3.512  17.183  0.00  0.00    +0.000 OA
BRANCH  11  14
ATOM     14  N   UNL     1       5.671   5.333  18.332  0.00  0.00    +0.000 NA
ATOM     15  C   UNL     1       7.079   5.144  18.768  0.00  0.00    +0.000 C 
ATOM     16  C   UNL     1       7.850   6.460  18.764  0.00  0.00    +0.000 C 
ATOM     17  C   UNL     1       7.744   7.152  17.412  0.00  0.00    +0.000 C 
ATOM     18  C   UNL     1       6.277   7.400  17.093  0.00  0.00    +0.000 C 
ATOM     19  C   UNL     1       5.489   6.094  17.072  0.00  0.00    +0.000 C 
ENDBRANCH  11  14
ENDBRANCH   9  11
ENDBRANCH   3   5
BRANCH   2  20
ATOM     20  C   UNL     1       1.030   9.898  21.590  0.00  0.00    +0.000 C 
BRANCH  20  21
ATOM     21  N   UNL     1       0.178  10.788  20.817  0.00  0.00    +0.000 N 
ATOM     22  C   UNL     1       0.487  10.966  19.478  0.00  0.00    +0.000 A 
ATOM     23  O   UNL     1       1.354  10.354  18.866  0.00  0.00    +0.000 OA
ATOM     24  C   UNL     1      -0.311  12.010  18.739  0.00  0.00    +0.000 A 
ATOM     25  N   UNL     1      -1.275  12.695  19.261  0.00  0.00    +0.000 NA
ATOM     26  C   UNL     1      -1.613  12.431  20.600  0.00  0.00    +0.000 A 
ATOM     27  C   UNL     1      -2.681  13.153  21.146  0.00  0.00    +0.000 A 
ATOM     28  C   UNL     1      -3.095  12.933  22.457  0.00  0.00    +0.000 A 
ATOM     29  C   UNL     1      -2.444  11.978  23.231  0.00  0.00    +0.000 A 
ATOM     30  C   UNL     1      -1.367  11.259  22.704  0.00  0.00    +0.000 A 
ATOM     31  C   UNL     1      -0.928  11.484  21.392  0.00  0.00    +0.000 A 
ENDBRANCH  20  21
ENDBRANCH   2  20
TORSDOF 5
ENDMDL
MODEL 5
REMARK VINA RESULT:      -8.4      2.839      4.385
REMARK  Name = 
REMARK  5 active torsions:
REMARK  status: ('A' for Active; 'I' for Inactive)
REMARK    1  A    between atoms: C_2  and  C_3
REMARK    2  A    between atoms: C_3  and  N_4
REMARK    3  A    between atoms: N_15  and  C_16
REMARK    4  A    between atoms: C_20  and  S_21
REMARK    5  A    between atoms: S_21  and  N_24
REMARK                            x       y       z     vdW  Elec       q    Type
REMARK                         _______ _______ _______ _____ _____    ______ ____
ROOT
ATOM      1  O   UNL     1       1.746   7.738  19.152  0.00  0.00    +0.000 OA
ATOM      2  C   UNL     1       2.031   7.301  20.266  0.00  0.00    +0.000 C 
ATOM      3  N   UNL     1       1.649   7.855  21.484  0.00  0.00    +0.000 N 
ATOM      4  H   UNL     1       2.047   7.444  22.325  0.00  0.00    +0.000 HD
ENDROOT
BRANCH   3   5
ATOM      5  C   UNL     1       0.875   9.030  21.649  0.00  0.00    +0.000 A 
ATOM      6  C   UNL     1       0.067   9.245  22.772  0.00  0.00    +0.000 A 
ATOM      7  C   UNL     1      -0.736  10.381  22.878  0.00  0.00    +0.000 A 
ATOM      8  C   UNL     1      -0.748  11.323  21.855  0.00  0.00    +0.000 A 
ATOM      9  C   UNL     1       0.083  11.144  20.745  0.00  0.00    +0.000 A 
ATOM     10  C   UNL     1       0.902  10.006  20.640  0.00  0.00    +0.000 A 
BRANCH   9  11
ATOM     11  S   UNL     1      -0.077  12.285  19.373  0.00  0.00    +0.000 S 
ATOM     12  O   UNL     1      -0.536  13.545  19.922  0.00  0.00    +0.000 OA
ATOM     13  O   UNL     1       1.150  12.207  18.610  0.00  0.00    +0.000 OA
BRANCH  11  14
ATOM     14  N   UNL     1      -1.338  11.631  18.413  0.00  0.00    +0.000 NA
ATOM     15  C   UNL     1      -1.086  10.272  17.867  0.00  0.00    +0.000 C 
ATOM     16  C   UNL     1      -2.163   9.856  16.871  0.00  0.00    +0.000 C 
ATOM     17  C   UNL     1      -3.551   9.993  17.480  0.00  0.00    +0.000 C 
ATOM     18  C   UNL     1      -3.766  11.434  17.915  0.00  0.00    +0.000 C 
ATOM     19  C   UNL     1      -2.710  11.867  18.927  0.00  0.00    +0.000 C 
ENDBRANCH  11  14
ENDBRANCH   9  11
ENDBRANCH   3   5
BRANCH   2  20
ATOM     20  C   UNL     1       2.873   6.030  20.389  0.00  0.00    +0.000 C 
BRANCH  20  21
ATOM     21  N   UNL     1       2.718   5.150  19.240  0.00  0.00    +0.000 N 
ATOM     22  C   UNL     1       1.657   4.258  19.257  0.00  0.00    +0.000 A 
ATOM     23  O   UNL     1       0.779   4.221  20.111  0.00  0.00    +0.000 OA
ATOM     24  C   UNL     1       1.610   3.254  18.134  0.00  0.00    +0.000 A 
ATOM     25  N   UNL     1       2.454   3.213  17.156  0.00  0.00    +0.000 NA
ATOM     26  C   UNL     1       3.470   4.184  17.130  0.00  0.00    +0.000 A 
ATOM     27  C   UNL     1       4.359   4.153  16.049  0.00  0.00    +0.000 A 
ATOM     28  C   UNL     1       5.378   5.095  15.936  0.00  0.00    +0.000 A 
ATOM     29  C   UNL     1       5.509   6.083  16.905  0.00  0.00    +0.000 A 
ATOM     30  C   UNL     1       4.638   6.120  17.998  0.00  0.00    +0.000 A 
ATOM     31  C   UNL     1       3.619   5.166  18.134  0.00  0.00    +0.000 A 
ENDBRANCH  20  21
ENDBRANCH   2  20
TORSDOF 5
ENDMDL
MODEL 6
REMARK VINA RESULT:      -8.4      0.492      1.002
REMARK  Name = 
REMARK  5 active torsions:
REMARK  status: ('A' for Active; 'I' for Inactive)
REMARK    1  A    between atoms: C_2  and  C_3
REMARK    2  A    between atoms: C_3  and  N_4
REMARK    3  A    between atoms: N_15  and  C_16
REMARK    4  A    between atoms: C_20  and  S_21
REMARK    5  A    between atoms: S_21  and  N_24
REMARK                            x       y       z     vdW  Elec       q    Type
REMARK                         _______ _______ _______ _____ _____    ______ ____
ROOT
ATOM      1  O   UNL     1       1.857   4.770  17.703  0.00  0.00    +0.000 OA
ATOM      2  C   UNL     1       2.939   5.044  18.220  0.00  0.00    +0.000 C 
ATOM      3  N   UNL     1       3.282   6.259  18.806  0.00  0.00    +0.000 N 
ATOM      4  H   UNL     1       4.248   6.374  19.100  0.00  0.00    +0.000 HD
ENDROOT
BRANCH   3   5
ATOM      5  C   UNL     1       2.443   7.397  18.895  0.00  0.00    +0.000 A 
ATOM      6  C   UNL     1       2.138   8.192  17.785  0.00  0.00    +0.000 A 
ATOM      7  C   UNL     1       1.361   9.345  17.913  0.00  0.00    +0.000 A 
ATOM      8  C   UNL     1       0.880   9.725  19.160  0.00  0.00    +0.000 A 
ATOM      9  C   UNL     1       1.142   8.920  20.274  0.00  0.00    +0.000 A 
ATOM     10  C   UNL     1       1.914   7.752  20.146  0.00  0.00    +0.000 A 
BRANCH   9  11
ATOM     11  S   UNL     1       0.652   9.521  21.888  0.00  0.00    +0.000 S 
ATOM     12  O   UNL     1      -0.565   8.822  22.248  0.00  0.00    +0.000 OA
ATOM     13  O   UNL     1       1.823   9.462  22.737  0.00  0.00    +0.000 OA
BRANCH  11  14
ATOM     14  N   UNL     1       0.265  11.172  21.637  0.00  0.00    +0.000 NA
ATOM     15  C   UNL     1       1.325  11.983  20.985  0.00  0.00    +0.000 C 
ATOM     16  C   UNL     1       0.977  13.468  20.982  0.00  0.00    +0.000 C 
ATOM     17  C   UNL     1      -0.398  13.705  20.373  0.00  0.00    +0.000 C 
ATOM     18  C   UNL     1      -1.436  12.922  21.163  0.00  0.00    +0.000 C 
ATOM     19  C   UNL     1      -1.117  11.430  21.164  0.00  0.00    +0.000 C 
ENDBRANCH  11  14
ENDBRANCH   9  11
ENDBRANCH   3   5
BRANCH   2  20
ATOM     20  C   UNL     1       4.047   3.990  18.262  0.00  0.00    +0.000 C 
BRANCH  20  21
ATOM     21  N   UNL     1       5.327   4.515  17.809  0.00  0.00    +0.000 N 
ATOM     22  C   UNL     1       6.161   5.076  18.763  0.00  0.00    +0.000 A 
ATOM     23  O   UNL     1       5.956   5.072  19.971  0.00  0.00    +0.000 OA
ATOM     24  C   UNL     1       7.407   5.752  18.248  0.00  0.00    +0.000 A 
ATOM     25  N   UNL     1       7.754   5.791  17.003  0.00  0.00    +0.000 NA
ATOM     26  C   UNL     1       6.923   5.142  16.073  0.00  0.00    +0.000 A 
ATOM     27  C   UNL     1       7.325   5.160  14.732  0.00  0.00    +0.000 A 
ATOM     28  C   UNL     1       6.572   4.519  13.753  0.00  0.00    +0.000 A 
ATOM     29  C   UNL     1       5.409   3.845  14.112  0.00  0.00    +0.000 A 
ATOM     30  C   UNL     1       4.987   3.830  15.446  0.00  0.00    +0.000 A 
ATOM     31  C   UNL     1       5.727   4.487  16.439  0.00  0.00    +0.000 A 
ENDBRANCH  20  21
ENDBRANCH   2  20
TORSDOF 5
ENDMDL
MODEL 7
REMARK VINA RESULT:      -8.2      2.354      9.179
REMARK  Name = 
REMARK  5 active torsions:
REMARK  status: ('A' for Active; 'I' for Inactive)
REMARK    1  A    between atoms: C_2  and  C_3
REMARK    2  A    between atoms: C_3  and  N_4
REMARK    3  A    between atoms: N_15  and  C_16
REMARK    4  A    between atoms: C_20  and  S_21
REMARK    5  A    between atoms: S_21  and  N_24
REMARK                            x       y       z     vdW  Elec       q    Type
REMARK                         _______ _______ _______ _____ _____    ______ ____
ROOT
ATOM      1  O   UNL     1      -0.131   7.793  21.157  0.00  0.00    +0.000 OA
ATOM      2  C   UNL     1       1.066   8.078  21.160  0.00  0.00    +0.000 C 
ATOM      3  N   UNL     1       2.109   7.231  20.797  0.00  0.00    +0.000 N 
ATOM      4  H   UNL     1       3.055   7.570  20.949  0.00  0.00    +0.000 HD
ENDROOT
BRANCH   3   5
ATOM      5  C   UNL     1       1.969   5.887  20.373  0.00  0.00    +0.000 A 
ATOM      6  C   UNL     1       0.819   5.133  20.634  0.00  0.00    +0.000 A 
ATOM      7  C   UNL     1       0.734   3.790  20.261  0.00  0.00    +0.000 A 
ATOM      8  C   UNL     1       1.805   3.177  19.622  0.00  0.00    +0.000 A 
ATOM      9  C   UNL     1       2.946   3.925  19.317  0.00  0.00    +0.000 A 
ATOM     10  C   UNL     1       3.030   5.281  19.681  0.00  0.00    +0.000 A 
BRANCH   9  11
ATOM     11  S   UNL     1       4.369   3.069  18.646  0.00  0.00    +0.000 S 
ATOM     12  O   UNL     1       5.244   2.765  19.760  0.00  0.00    +0.000 OA
ATOM     13  O   UNL     1       3.867   2.019  17.786  0.00  0.00    +0.000 OA
BRANCH  11  14
ATOM     14  N   UNL     1       5.148   4.233  17.658  0.00  0.00    +0.000 NA
ATOM     15  C   UNL     1       6.488   4.673  18.127  0.00  0.00    +0.000 C 
ATOM     16  C   UNL     1       7.016   5.844  17.305  0.00  0.00    +0.000 C 
ATOM     17  C   UNL     1       6.993   5.522  15.818  0.00  0.00    +0.000 C 
ATOM     18  C   UNL     1       5.569   5.186  15.401  0.00  0.00    +0.000 C 
ATOM     19  C   UNL     1       5.026   4.003  16.198  0.00  0.00    +0.000 C 
ENDBRANCH  11  14
ENDBRANCH   9  11
ENDBRANCH   3   5
BRANCH   2  20
ATOM     20  C   UNL     1       1.511   9.479  21.584  0.00  0.00    +0.000 C 
BRANCH  20  21
ATOM     21  N   UNL     1       0.387  10.384  21.768  0.00  0.00    +0.000 N 
ATOM     22  C   UNL     1      -0.270  10.349  22.988  0.00  0.00    +0.000 A 
ATOM     23  O   UNL     1       0.084   9.694  23.962  0.00  0.00    +0.000 OA
ATOM     24  C   UNL     1      -1.523  11.180  23.098  0.00  0.00    +0.000 A 
ATOM     25  N   UNL     1      -1.978  11.940  22.157  0.00  0.00    +0.000 NA
ATOM     26  C   UNL     1      -1.242  12.012  20.962  0.00  0.00    +0.000 A 
ATOM     27  C   UNL     1      -1.725  12.865  19.963  0.00  0.00    +0.000 A 
ATOM     28  C   UNL     1      -1.040  13.013  18.759  0.00  0.00    +0.000 A 
ATOM     29  C   UNL     1       0.141  12.309  18.550  0.00  0.00    +0.000 A 
ATOM     30  C   UNL     1       0.628  11.442  19.534  0.00  0.00    +0.000 A 
ATOM     31  C   UNL     1      -0.061  11.271  20.743  0.00  0.00    +0.000 A 
ENDBRANCH  20  21
ENDBRANCH   2  20
TORSDOF 5
ENDMDL
MODEL 8
REMARK VINA RESULT:      -8.1      2.480      9.330
REMARK  Name = 
REMARK  5 active torsions:
REMARK  status: ('A' for Active; 'I' for Inactive)
REMARK    1  A    between atoms: C_2  and  C_3
REMARK    2  A    between atoms: C_3  and  N_4
REMARK    3  A    between atoms: N_15  and  C_16
REMARK    4  A    between atoms: C_20  and  S_21
REMARK    5  A    between atoms: S_21  and  N_24
REMARK                            x       y       z     vdW  Elec       q    Type
REMARK                         _______ _______ _______ _____ _____    ______ ____
ROOT
ATOM      1  O   UNL     1       0.502   7.932  21.620  0.00  0.00    +0.000 OA
ATOM      2  C   UNL     1       1.301   8.327  20.773  0.00  0.00    +0.000 C 
ATOM      3  N   UNL     1       2.128   7.527  19.991  0.00  0.00    +0.000 N 
ATOM      4  H   UNL     1       2.812   8.000  19.406  0.00  0.00    +0.000 HD
ENDROOT
BRANCH   3   5
ATOM      5  C   UNL     1       2.201   6.113  20.049  0.00  0.00    +0.000 A 
ATOM      6  C   UNL     1       1.968   5.397  21.229  0.00  0.00    +0.000 A 
ATOM      7  C   UNL     1       2.109   4.009  21.272  0.00  0.00    +0.000 A 
ATOM      8  C   UNL     1       2.493   3.313  20.132  0.00  0.00    +0.000 A 
ATOM      9  C   UNL     1       2.690   4.007  18.935  0.00  0.00    +0.000 A 
ATOM     10  C   UNL     1       2.537   5.404  18.885  0.00  0.00    +0.000 A 
BRANCH   9  11
ATOM     11  S   UNL     1       3.343   3.108  17.530  0.00  0.00    +0.000 S 
ATOM     12  O   UNL     1       3.622   1.760  17.983  0.00  0.00    +0.000 OA
ATOM     13  O   UNL     1       2.449   3.349  16.418  0.00  0.00    +0.000 OA
BRANCH  11  14
ATOM     14  N   UNL     1       4.837   3.874  17.182  0.00  0.00    +0.000 NA
ATOM     15  C   UNL     1       4.801   4.871  16.081  0.00  0.00    +0.000 C 
ATOM     16  C   UNL     1       6.201   5.351  15.710  0.00  0.00    +0.000 C 
ATOM     17  C   UNL     1       6.945   5.861  16.936  0.00  0.00    +0.000 C 
ATOM     18  C   UNL     1       7.027   4.748  17.969  0.00  0.00    +0.000 C 
ATOM     19  C   UNL     1       5.637   4.264  18.370  0.00  0.00    +0.000 C 
ENDBRANCH  11  14
ENDBRANCH   9  11
ENDBRANCH   3   5
BRANCH   2  20
ATOM     20  C   UNL     1       1.437   9.827  20.501  0.00  0.00    +0.000 C 
BRANCH  20  21
ATOM     21  N   UNL     1       0.211  10.406  19.972  0.00  0.00    +0.000 N 
ATOM     22  C   UNL     1      -0.053  10.224  18.624  0.00  0.00    +0.000 A 
ATOM     23  O   UNL     1       0.606   9.526  17.863  0.00  0.00    +0.000 OA
ATOM     24  C   UNL     1      -1.244  10.965  18.070  0.00  0.00    +0.000 A 
ATOM     25  N   UNL     1      -2.038  11.701  18.775  0.00  0.00    +0.000 NA
ATOM     26  C   UNL     1      -1.785  11.798  20.155  0.00  0.00    +0.000 A 
ATOM     27  C   UNL     1      -2.671  12.570  20.916  0.00  0.00    +0.000 A 
ATOM     28  C   UNL     1      -2.505  12.696  22.293  0.00  0.00    +0.000 A 
ATOM     29  C   UNL     1      -1.450  12.042  22.920  0.00  0.00    +0.000 A 
ATOM     30  C   UNL     1      -0.549  11.279  22.171  0.00  0.00    +0.000 A 
ATOM     31  C   UNL     1      -0.694  11.158  20.781  0.00  0.00    +0.000 A 
ENDBRANCH  20  21
ENDBRANCH   2  20
TORSDOF 5
ENDMDL
MODEL 9
REMARK VINA RESULT:      -8.1      2.637      4.106
REMARK  Name = 
REMARK  5 active torsions:
REMARK  status: ('A' for Active; 'I' for Inactive)
REMARK    1  A    between atoms: C_2  and  C_3
REMARK    2  A    between atoms: C_3  and  N_4
REMARK    3  A    between atoms: N_15  and  C_16
REMARK    4  A    between atoms: C_20  and  S_21
REMARK    5  A    between atoms: S_21  and  N_24
REMARK                            x       y       z     vdW  Elec       q    Type
REMARK                         _______ _______ _______ _____ _____    ______ ____
ROOT
ATOM      1  O   UNL     1       2.607   7.457  19.048  0.00  0.00    +0.000 OA
ATOM      2  C   UNL     1       2.344   6.748  20.019  0.00  0.00    +0.000 C 
ATOM      3  N   UNL     1       1.587   7.123  21.124  0.00  0.00    +0.000 N 
ATOM      4  H   UNL     1       1.540   6.466  21.898  0.00  0.00    +0.000 HD
ENDROOT
BRANCH   3   5
ATOM      5  C   UNL     1       0.998   8.396  21.326  0.00  0.00    +0.000 A 
ATOM      6  C   UNL     1       0.289   8.718  22.489  0.00  0.00    +0.000 A 
ATOM      7  C   UNL     1      -0.337   9.958  22.635  0.00  0.00    +0.000 A 
ATOM      8  C   UNL     1      -0.267  10.896  21.612  0.00  0.00    +0.000 A 
ATOM      9  C   UNL     1       0.470  10.607  20.460  0.00  0.00    +0.000 A 
ATOM     10  C   UNL     1       1.112   9.363  20.315  0.00  0.00    +0.000 A 
BRANCH   9  11
ATOM     11  S   UNL     1       0.404  11.765  19.096  0.00  0.00    +0.000 S 
ATOM     12  O   UNL     1       0.238  13.086  19.669  0.00  0.00    +0.000 OA
ATOM     13  O   UNL     1       1.523  11.466  18.228  0.00  0.00    +0.000 OA
BRANCH  11  14
ATOM     14  N   UNL     1      -1.037  11.363  18.257  0.00  0.00    +0.000 NA
ATOM     15  C   UNL     1      -1.054  10.017  17.630  0.00  0.00    +0.000 C 
ATOM     16  C   UNL     1      -2.282   9.823  16.745  0.00  0.00    +0.000 C 
ATOM     17  C   UNL     1      -3.560  10.128  17.512  0.00  0.00    +0.000 C 
ATOM     18  C   UNL     1      -3.504  11.557  18.029  0.00  0.00    +0.000 C 
ATOM     19  C   UNL     1      -2.293  11.769  18.933  0.00  0.00    +0.000 C 
ENDBRANCH  11  14
ENDBRANCH   9  11
ENDBRANCH   3   5
BRANCH   2  20
ATOM     20  C   UNL     1       2.862   5.310  20.069  0.00  0.00    +0.000 C 
BRANCH  20  21
ATOM     21  N   UNL     1       3.430   4.882  18.799  0.00  0.00    +0.000 N 
ATOM     22  C   UNL     1       2.562   4.359  17.854  0.00  0.00    +0.000 A 
ATOM     23  O   UNL     1       1.342   4.325  17.958  0.00  0.00    +0.000 OA
ATOM     24  C   UNL     1       3.194   3.779  16.614  0.00  0.00    +0.000 A 
ATOM     25  N   UNL     1       4.463   3.787  16.370  0.00  0.00    +0.000 NA
ATOM     26  C   UNL     1       5.306   4.398  17.315  0.00  0.00    +0.000 A 
ATOM     27  C   UNL     1       6.675   4.433  17.025  0.00  0.00    +0.000 A 
ATOM     28  C   UNL     1       7.573   5.042  17.898  0.00  0.00    +0.000 A 
ATOM     29  C   UNL     1       7.103   5.628  19.068  0.00  0.00    +0.000 A 
ATOM     30  C   UNL     1       5.740   5.589  19.378  0.00  0.00    +0.000 A 
ATOM     31  C   UNL     1       4.827   4.964  18.517  0.00  0.00    +0.000 A 
ENDBRANCH  20  21
ENDBRANCH   2  20
TORSDOF 5
ENDMDL
