MODEL 1
REMARK VINA RESULT:      -8.5      0.000      0.000
REMARK  Name = 
REMARK  4 active torsions:
REMARK  status: ('A' for Active; 'I' for Inactive)
REMARK    1  A    between atoms: C_1  and  C_2
REMARK    2  A    between atoms: C_2  and  C_3
REMARK    3  A    between atoms: C_2  and  C_4
REMARK    4  A    between atoms: C_10  and  C_11
REMARK                            x       y       z     vdW  Elec       q    Type
REMARK                         _______ _______ _______ _____ _____    ______ ____
ROOT
ATOM      1  C   UNL     1       6.112   4.578  17.622  0.00  0.00    +0.000 C 
ATOM      2  O   UNL     1       6.702   5.372  18.356  0.00  0.00    +0.000 OA
ATOM      3  N   UNL     1       5.183   3.666  18.108  0.00  0.00    +0.000 N 
ATOM      4  C   UNL     1       4.418   2.665  17.341  0.00  0.00    +0.000 C 
ATOM      5  C   UNL     1       3.721   1.612  18.238  0.00  0.00    +0.000 C 
ATOM      6  C   UNL     1       2.828   2.398  19.174  0.00  0.00    +0.000 A 
ATOM      7  C   UNL     1       1.460   2.171  19.275  0.00  0.00    +0.000 A 
ATOM      8  C   UNL     1       0.657   3.182  19.795  0.00  0.00    +0.000 A 
ATOM      9  F   UNL     1      -0.672   3.037  19.774  0.00  0.00    +0.000 F 
ATOM     10  C   UNL     1       1.204   4.383  20.251  0.00  0.00    +0.000 A 
ATOM     11  C   UNL     1       2.585   4.560  20.259  0.00  0.00    +0.000 A 
ATOM     12  C   UNL     1       3.402   3.557  19.738  0.00  0.00    +0.000 A 
ATOM     13  C   UNL     1       4.885   3.742  19.544  0.00  0.00    +0.000 C 
ENDROOT
BRANCH   1  20
ATOM     14  C   UNL     1       6.158   3.568  12.534  0.00  0.00    +0.000 A 
ATOM     15  N   UNL     1       6.975   4.157  11.646  0.00  0.00    +0.000 NA
ATOM     16  O   UNL     1       7.749   5.045  12.365  0.00  0.00    +0.000 OA
ATOM     17  C   UNL     1       7.410   4.995  13.678  0.00  0.00    +0.000 A 
ATOM     18  N   UNL     1       7.999   5.750  14.623  0.00  0.00    +0.000 NA
ATOM     19  C   UNL     1       7.502   5.525  15.861  0.00  0.00    +0.000 A 
ATOM     20  C   UNL     1       6.500   4.610  16.191  0.00  0.00    +0.000 A 
ATOM     21  C   UNL     1       5.894   3.874  15.160  0.00  0.00    +0.000 A 
ATOM     22  C   UNL     1       6.389   4.060  13.856  0.00  0.00    +0.000 A 
BRANCH  14  24
ATOM     23  C   UNL     1       4.058   3.146  11.210  0.00  0.00    +0.000 C 
ATOM     24  C   UNL     1       5.200   2.532  12.022  0.00  0.00    +0.000 C 
ATOM     25  C   UNL     1       5.898   1.420  11.242  0.00  0.00    +0.000 C 
ENDBRANCH  14  24
ENDBRANCH   1  20
TORSDOF 2
ENDMDL
MODEL 2
REMARK VINA RESULT:      -8.4      5.003      8.745
REMARK  Name = 
REMARK  4 active torsions:
REMARK  status: ('A' for Active; 'I' for Inactive)
REMARK    1  A    between atoms: C_1  and  C_2
REMARK    2  A    between atoms: C_2  and  C_3
REMARK    3  A    between atoms: C_2  and  C_4
REMARK    4  A    between atoms: C_10  and  C_11
REMARK                            x       y       z     vdW  Elec       q    Type
REMARK                         _______ _______ _______ _____ _____    ______ ____
ROOT
ATOM      1  C   UNL     1       2.920   6.170  18.388  0.00  0.00    +0.000 C 
ATOM      2  O   UNL     1       2.212   5.203  18.672  0.00  0.00    +0.000 OA
ATOM      3  N   UNL     1       4.227   6.026  17.937  0.00  0.00    +0.000 N 
ATOM      4  C   UNL     1       5.176   7.095  17.572  0.00  0.00    +0.000 C 
ATOM      5  C   UNL     1       6.633   6.591  17.421  0.00  0.00    +0.000 C 
ATOM      6  C   UNL     1       6.584   5.506  16.367  0.00  0.00    +0.000 A 
ATOM      7  C   UNL     1       7.358   5.544  15.212  0.00  0.00    +0.000 A 
ATOM      8  C   UNL     1       6.955   4.782  14.120  0.00  0.00    +0.000 A 
ATOM      9  F   UNL     1       7.607   4.910  12.959  0.00  0.00    +0.000 F 
ATOM     10  C   UNL     1       5.829   3.960  14.181  0.00  0.00    +0.000 A 
ATOM     11  C   UNL     1       5.125   3.833  15.376  0.00  0.00    +0.000 A 
ATOM     12  C   UNL     1       5.515   4.592  16.479  0.00  0.00    +0.000 A 
ATOM     13  C   UNL     1       4.703   4.651  17.748  0.00  0.00    +0.000 C 
ENDROOT
BRANCH   1  20
ATOM     14  C   UNL     1       0.611  10.158  20.769  0.00  0.00    +0.000 A 
ATOM     15  N   UNL     1       0.371  11.352  20.202  0.00  0.00    +0.000 NA
ATOM     16  O   UNL     1       0.860  11.270  18.914  0.00  0.00    +0.000 OA
ATOM     17  C   UNL     1       1.389  10.039  18.697  0.00  0.00    +0.000 A 
ATOM     18  N   UNL     1       1.940   9.667  17.528  0.00  0.00    +0.000 NA
ATOM     19  C   UNL     1       2.396   8.393  17.544  0.00  0.00    +0.000 A 
ATOM     20  C   UNL     1       2.316   7.504  18.618  0.00  0.00    +0.000 A 
ATOM     21  C   UNL     1       1.763   7.958  19.827  0.00  0.00    +0.000 A 
ATOM     22  C   UNL     1       1.260   9.271  19.855  0.00  0.00    +0.000 A 
BRANCH  14  24
ATOM     23  C   UNL     1      -0.689  11.118  22.701  0.00  0.00    +0.000 C 
ATOM     24  C   UNL     1       0.167   9.958  22.189  0.00  0.00    +0.000 C 
ATOM     25  C   UNL     1      -0.534   8.617  22.403  0.00  0.00    +0.000 C 
ENDBRANCH  14  24
ENDBRANCH   1  20
TORSDOF 2
ENDMDL
MODEL 3
REMARK VINA RESULT:      -8.0      1.367      1.592
REMARK  Name = 
REMARK  4 active torsions:
REMARK  status: ('A' for Active; 'I' for Inactive)
REMARK    1  A    between atoms: C_1  and  C_2
REMARK    2  A    between atoms: C_2  and  C_3
REMARK    3  A    between atoms: C_2  and  C_4
REMARK    4  A    between atoms: C_10  and  C_11
REMARK                            x       y       z     vdW  Elec       q    Type
REMARK                         _______ _______ _______ _____ _____    ______ ____
ROOT
ATOM      1  C   UNL     1       4.827   6.030  16.778  0.00  0.00    +0.000 C 
ATOM      2  O   UNL     1       4.373   7.163  16.616  0.00  0.00    +0.000 OA
ATOM      3  N   UNL     1       4.676   5.334  17.971  0.00  0.00    +0.000 N 
ATOM      4  C   UNL     1       5.173   3.983  18.294  0.00  0.00    +0.000 C 
ATOM      5  C   UNL     1       5.104   3.653  19.806  0.00  0.00    +0.000 C 
ATOM      6  C   UNL     1       3.651   3.819  20.196  0.00  0.00    +0.000 A 
ATOM      7  C   UNL     1       2.911   2.803  20.789  0.00  0.00    +0.000 A 
ATOM      8  C   UNL     1       1.523   2.864  20.714  0.00  0.00    +0.000 A 
ATOM      9  F   UNL     1       0.798   1.831  21.157  0.00  0.00    +0.000 F 
ATOM     10  C   UNL     1       0.874   3.938  20.101  0.00  0.00    +0.000 A 
ATOM     11  C   UNL     1       1.614   5.011  19.614  0.00  0.00    +0.000 A 
ATOM     12  C   UNL     1       3.007   4.963  19.679  0.00  0.00    +0.000 A 
ATOM     13  C   UNL     1       3.883   5.994  19.016  0.00  0.00    +0.000 C 
ENDROOT
BRANCH   1  20
ATOM     14  C   UNL     1       5.981   3.419  12.447  0.00  0.00    +0.000 A 
ATOM     15  N   UNL     1       7.185   3.425  11.850  0.00  0.00    +0.000 NA
ATOM     16  O   UNL     1       7.989   4.245  12.613  0.00  0.00    +0.000 OA
ATOM     17  C   UNL     1       7.286   4.731  13.668  0.00  0.00    +0.000 A 
ATOM     18  N   UNL     1       7.812   5.559  14.589  0.00  0.00    +0.000 NA
ATOM     19  C   UNL     1       6.925   5.907  15.549  0.00  0.00    +0.000 A 
ATOM     20  C   UNL     1       5.601   5.474  15.642  0.00  0.00    +0.000 A 
ATOM     21  C   UNL     1       5.093   4.640  14.633  0.00  0.00    +0.000 A 
ATOM     22  C   UNL     1       5.982   4.236  13.621  0.00  0.00    +0.000 A 
BRANCH  14  24
ATOM     23  C   UNL     1       3.964   3.413  10.940  0.00  0.00    +0.000 C 
ATOM     24  C   UNL     1       4.897   2.587  11.827  0.00  0.00    +0.000 C 
ATOM     25  C   UNL     1       5.444   1.374  11.076  0.00  0.00    +0.000 C 
ENDBRANCH  14  24
ENDBRANCH   1  20
TORSDOF 2
ENDMDL
MODEL 4
REMARK VINA RESULT:      -7.9      4.714      8.248
REMARK  Name = 
REMARK  4 active torsions:
REMARK  status: ('A' for Active; 'I' for Inactive)
REMARK    1  A    between atoms: C_1  and  C_2
REMARK    2  A    between atoms: C_2  and  C_3
REMARK    3  A    between atoms: C_2  and  C_4
REMARK    4  A    between atoms: C_10  and  C_11
REMARK                            x       y       z     vdW  Elec       q    Type
REMARK                         _______ _______ _______ _____ _____    ______ ____
ROOT
ATOM      1  C   UNL     1       2.735   5.011  18.009  0.00  0.00    +0.000 C 
ATOM      2  O   UNL     1       1.841   4.241  17.655  0.00  0.00    +0.000 OA
ATOM      3  N   UNL     1       4.070   4.792  17.694  0.00  0.00    +0.000 N 
ATOM      4  C   UNL     1       5.230   5.627  18.060  0.00  0.00    +0.000 C 
ATOM      5  C   UNL     1       6.589   4.923  17.820  0.00  0.00    +0.000 C 
ATOM      6  C   UNL     1       6.607   4.556  16.351  0.00  0.00    +0.000 A 
ATOM      7  C   UNL     1       7.614   4.970  15.486  0.00  0.00    +0.000 A 
ATOM      8  C   UNL     1       7.350   4.980  14.120  0.00  0.00    +0.000 A 
ATOM      9  F   UNL     1       8.254   5.502  13.285  0.00  0.00    +0.000 F 
ATOM     10  C   UNL     1       6.125   4.545  13.612  0.00  0.00    +0.000 A 
ATOM     11  C   UNL     1       5.163   4.019  14.471  0.00  0.00    +0.000 A 
ATOM     12  C   UNL     1       5.412   4.005  15.844  0.00  0.00    +0.000 A 
ATOM     13  C   UNL     1       4.359   3.624  16.852  0.00  0.00    +0.000 C 
ENDROOT
BRANCH   1  20
ATOM     14  C   UNL     1       1.178   9.762  19.389  0.00  0.00    +0.000 A 
ATOM     15  N   UNL     1       0.873  10.132  20.644  0.00  0.00    +0.000 NA
ATOM     16  O   UNL     1       1.056   9.012  21.429  0.00  0.00    +0.000 OA
ATOM     17  C   UNL     1       1.473   7.972  20.663  0.00  0.00    +0.000 A 
ATOM     18  N   UNL     1       1.735   6.749  21.156  0.00  0.00    +0.000 NA
ATOM     19  C   UNL     1       2.141   5.876  20.206  0.00  0.00    +0.000 A 
ATOM     20  C   UNL     1       2.308   6.156  18.849  0.00  0.00    +0.000 A 
ATOM     21  C   UNL     1       1.984   7.440  18.382  0.00  0.00    +0.000 A 
ATOM     22  C   UNL     1       1.573   8.389  19.335  0.00  0.00    +0.000 A 
BRANCH  14  24
ATOM     23  C   UNL     1      -0.142  11.709  18.489  0.00  0.00    +0.000 C 
ATOM     24  C   UNL     1       1.077  10.802  18.311  0.00  0.00    +0.000 C 
ATOM     25  C   UNL     1       2.358  11.620  18.160  0.00  0.00    +0.000 C 
ENDBRANCH  14  24
ENDBRANCH   1  20
TORSDOF 2
ENDMDL
MODEL 5
REMARK VINA RESULT:      -7.9      4.026      5.424
REMARK  Name = 
REMARK  4 active torsions:
REMARK  status: ('A' for Active; 'I' for Inactive)
REMARK    1  A    between atoms: C_1  and  C_2
REMARK    2  A    between atoms: C_2  and  C_3
REMARK    3  A    between atoms: C_2  and  C_4
REMARK    4  A    between atoms: C_10  and  C_11
REMARK                            x       y       z     vdW  Elec       q    Type
REMARK                         _______ _______ _______ _____ _____    ______ ____
ROOT
ATOM      1  C   UNL     1       3.138   5.702  19.443  0.00  0.00    +0.000 C 
ATOM      2  O   UNL     1       2.734   4.893  20.280  0.00  0.00    +0.000 OA
ATOM      3  N   UNL     1       2.419   6.843  19.107  0.00  0.00    +0.000 N 
ATOM      4  C   UNL     1       2.786   7.881  18.125  0.00  0.00    +0.000 C 
ATOM      5  C   UNL     1       1.614   8.832  17.776  0.00  0.00    +0.000 C 
ATOM      6  C   UNL     1       1.175   9.440  19.091  0.00  0.00    +0.000 A 
ATOM      7  C   UNL     1       1.129  10.813  19.306  0.00  0.00    +0.000 A 
ATOM      8  C   UNL     1       1.150  11.279  20.617  0.00  0.00    +0.000 A 
ATOM      9  F   UNL     1       1.245  12.594  20.842  0.00  0.00    +0.000 F 
ATOM     10  C   UNL     1       1.169  10.400  21.702  0.00  0.00    +0.000 A 
ATOM     11  C   UNL     1       1.093   9.027  21.485  0.00  0.00    +0.000 A 
ATOM     12  C   UNL     1       1.076   8.544  20.176  0.00  0.00    +0.000 A 
ATOM     13  C   UNL     1       1.177   7.075  19.854  0.00  0.00    +0.000 C 
ENDROOT
BRANCH   1  20
ATOM     14  C   UNL     1       6.612   4.827  15.693  0.00  0.00    +0.000 A 
ATOM     15  N   UNL     1       7.899   4.503  15.904  0.00  0.00    +0.000 NA
ATOM     16  O   UNL     1       8.067   4.467  17.273  0.00  0.00    +0.000 OA
ATOM     17  C   UNL     1       6.894   4.760  17.891  0.00  0.00    +0.000 A 
ATOM     18  N   UNL     1       6.752   4.799  19.227  0.00  0.00    +0.000 NA
ATOM     19  C   UNL     1       5.493   5.108  19.613  0.00  0.00    +0.000 A 
ATOM     20  C   UNL     1       4.410   5.353  18.767  0.00  0.00    +0.000 A 
ATOM     21  C   UNL     1       4.624   5.336  17.378  0.00  0.00    +0.000 A 
ATOM     22  C   UNL     1       5.913   5.003  16.928  0.00  0.00    +0.000 A 
BRANCH  14  24
ATOM     23  C   UNL     1       7.300   5.083  13.284  0.00  0.00    +0.000 C 
ATOM     24  C   UNL     1       6.142   4.928  14.271  0.00  0.00    +0.000 C 
ATOM     25  C   UNL     1       5.225   3.773  13.872  0.00  0.00    +0.000 C 
ENDBRANCH  14  24
ENDBRANCH   1  20
TORSDOF 2
ENDMDL
MODEL 6
REMARK VINA RESULT:      -7.8      6.178      8.733
REMARK  Name = 
REMARK  4 active torsions:
REMARK  status: ('A' for Active; 'I' for Inactive)
REMARK    1  A    between atoms: C_1  and  C_2
REMARK    2  A    between atoms: C_2  and  C_3
REMARK    3  A    between atoms: C_2  and  C_4
REMARK    4  A    between atoms: C_10  and  C_11
REMARK                            x       y       z     vdW  Elec       q    Type
REMARK                         _______ _______ _______ _____ _____    ______ ____
ROOT
ATOM      1  C   UNL     1       0.815   8.193  20.936  0.00  0.00    +0.000 C 
ATOM      2  O   UNL     1       0.251   8.010  22.016  0.00  0.00    +0.000 OA
ATOM      3  N   UNL     1       1.702   7.270  20.397  0.00  0.00    +0.000 N 
ATOM      4  C   UNL     1       2.443   7.370  19.125  0.00  0.00    +0.000 C 
ATOM      5  C   UNL     1       3.574   6.320  18.993  0.00  0.00    +0.000 C 
ATOM      6  C   UNL     1       2.901   4.972  19.141  0.00  0.00    +0.000 A 
ATOM      7  C   UNL     1       2.997   3.974  18.177  0.00  0.00    +0.000 A 
ATOM      8  C   UNL     1       2.031   2.973  18.163  0.00  0.00    +0.000 A 
ATOM      9  F   UNL     1       2.028   2.084  17.164  0.00  0.00    +0.000 F 
ATOM     10  C   UNL     1       1.011   2.931  19.114  0.00  0.00    +0.000 A 
ATOM     11  C   UNL     1       0.987   3.863  20.149  0.00  0.00    +0.000 A 
ATOM     12  C   UNL     1       1.946   4.875  20.175  0.00  0.00    +0.000 A 
ATOM     13  C   UNL     1       1.884   6.023  21.150  0.00  0.00    +0.000 C 
ENDROOT
BRANCH   1  20
ATOM     14  C   UNL     1      -1.462  11.799  17.984  0.00  0.00    +0.000 A 
ATOM     15  N   UNL     1      -1.068  13.081  17.903  0.00  0.00    +0.000 NA
ATOM     16  O   UNL     1       0.018  13.203  18.746  0.00  0.00    +0.000 OA
ATOM     17  C   UNL     1       0.286  12.008  19.331  0.00  0.00    +0.000 A 
ATOM     18  N   UNL     1       1.293  11.820  20.202  0.00  0.00    +0.000 NA
ATOM     19  C   UNL     1       1.370  10.547  20.650  0.00  0.00    +0.000 A 
ATOM     20  C   UNL     1       0.538   9.490  20.274  0.00  0.00    +0.000 A 
ATOM     21  C   UNL     1      -0.521   9.751  19.388  0.00  0.00    +0.000 A 
ATOM     22  C   UNL     1      -0.632  11.058  18.881  0.00  0.00    +0.000 A 
BRANCH  14  24
ATOM     23  C   UNL     1      -2.355  10.098  16.356  0.00  0.00    +0.000 C 
ATOM     24  C   UNL     1      -2.635  11.376  17.149  0.00  0.00    +0.000 C 
ATOM     25  C   UNL     1      -3.922  11.251  17.964  0.00  0.00    +0.000 C 
ENDBRANCH  14  24
ENDBRANCH   1  20
TORSDOF 2
ENDMDL
MODEL 7
REMARK VINA RESULT:      -7.7      6.784      9.218
REMARK  Name = 
REMARK  4 active torsions:
REMARK  status: ('A' for Active; 'I' for Inactive)
REMARK    1  A    between atoms: C_1  and  C_2
REMARK    2  A    between atoms: C_2  and  C_3
REMARK    3  A    between atoms: C_2  and  C_4
REMARK    4  A    between atoms: C_10  and  C_11
REMARK                            x       y       z     vdW  Elec       q    Type
REMARK                         _______ _______ _______ _____ _____    ______ ____
ROOT
ATOM      1  C   UNL     1       0.975   8.736  20.834  0.00  0.00    +0.000 C 
ATOM      2  O   UNL     1       0.683   8.669  22.028  0.00  0.00    +0.000 OA
ATOM      3  N   UNL     1       1.757   7.773  20.206  0.00  0.00    +0.000 N 
ATOM      4  C   UNL     1       2.181   7.739  18.793  0.00  0.00    +0.000 C 
ATOM      5  C   UNL     1       3.299   6.703  18.517  0.00  0.00    +0.000 C 
ATOM      6  C   UNL     1       2.740   5.369  18.964  0.00  0.00    +0.000 A 
ATOM      7  C   UNL     1       2.659   4.267  18.119  0.00  0.00    +0.000 A 
ATOM      8  C   UNL     1       1.763   3.252  18.439  0.00  0.00    +0.000 A 
ATOM      9  F   UNL     1       1.572   2.252  17.572  0.00  0.00    +0.000 F 
ATOM     10  C   UNL     1       0.991   3.302  19.601  0.00  0.00    +0.000 A 
ATOM     11  C   UNL     1       1.162   4.347  20.505  0.00  0.00    +0.000 A 
ATOM     12  C   UNL     1       2.054   5.375  20.196  0.00  0.00    +0.000 A 
ATOM     13  C   UNL     1       2.164   6.627  21.028  0.00  0.00    +0.000 C 
ENDROOT
BRANCH   1  20
ATOM     14  C   UNL     1       0.846  13.521  18.835  0.00  0.00    +0.000 A 
ATOM     15  N   UNL     1      -0.156  14.008  18.084  0.00  0.00    +0.000 NA
ATOM     16  O   UNL     1      -1.083  12.992  17.974  0.00  0.00    +0.000 OA
ATOM     17  C   UNL     1      -0.654  11.898  18.654  0.00  0.00    +0.000 A 
ATOM     18  N   UNL     1      -1.353  10.751  18.726  0.00  0.00    +0.000 NA
ATOM     19  C   UNL     1      -0.730   9.802  19.462  0.00  0.00    +0.000 A 
ATOM     20  C   UNL     1       0.495   9.941  20.116  0.00  0.00    +0.000 A 
ATOM     21  C   UNL     1       1.200  11.148  19.977  0.00  0.00    +0.000 A 
ATOM     22  C   UNL     1       0.585  12.172  19.234  0.00  0.00    +0.000 A 
BRANCH  14  24
ATOM     23  C   UNL     1       3.258  14.049  18.342  0.00  0.00    +0.000 C 
ATOM     24  C   UNL     1       2.004  14.429  19.130  0.00  0.00    +0.000 C 
ATOM     25  C   UNL     1       1.657  15.905  18.940  0.00  0.00    +0.000 C 
ENDBRANCH  14  24
ENDBRANCH   1  20
TORSDOF 2
ENDMDL
MODEL 8
REMARK VINA RESULT:      -7.7      5.959      8.023
REMARK  Name = 
REMARK  4 active torsions:
REMARK  status: ('A' for Active; 'I' for Inactive)
REMARK    1  A    between atoms: C_1  and  C_2
REMARK    2  A    between atoms: C_2  and  C_3
REMARK    3  A    between atoms: C_2  and  C_4
REMARK    4  A    between atoms: C_10  and  C_11
REMARK                            x       y       z     vdW  Elec       q    Type
REMARK                         _______ _______ _______ _____ _____    ______ ____
ROOT
ATOM      1  C   UNL     1       1.428   8.222  20.729  0.00  0.00    +0.000 C 
ATOM      2  O   UNL     1       1.467   8.142  21.958  0.00  0.00    +0.000 OA
ATOM      3  N   UNL     1       0.827   9.290  20.074  0.00  0.00    +0.000 N 
ATOM      4  C   UNL     1       0.707   9.501  18.618  0.00  0.00    +0.000 C 
ATOM      5  C   UNL     1      -0.294  10.622  18.245  0.00  0.00    +0.000 C 
ATOM      6  C   UNL     1       0.203  11.867  18.950  0.00  0.00    +0.000 A 
ATOM      7  C   UNL     1       0.495  13.047  18.274  0.00  0.00    +0.000 A 
ATOM      8  C   UNL     1       1.338  13.969  18.887  0.00  0.00    +0.000 A 
ATOM      9  F   UNL     1       1.738  15.044  18.200  0.00  0.00    +0.000 F 
ATOM     10  C   UNL     1       1.849  13.750  20.167  0.00  0.00    +0.000 A 
ATOM     11  C   UNL     1       1.459  12.624  20.888  0.00  0.00    +0.000 A 
ATOM     12  C   UNL     1       0.618  11.688  20.286  0.00  0.00    +0.000 A 
ATOM     13  C   UNL     1       0.295  10.362  20.925  0.00  0.00    +0.000 C 
ENDROOT
BRANCH   1  20
ATOM     14  C   UNL     1       4.298   5.511  17.365  0.00  0.00    +0.000 A 
ATOM     15  N   UNL     1       4.324   4.170  17.290  0.00  0.00    +0.000 NA
ATOM     16  O   UNL     1       3.462   3.714  18.266  0.00  0.00    +0.000 OA
ATOM     17  C   UNL     1       2.912   4.765  18.926  0.00  0.00    +0.000 A 
ATOM     18  N   UNL     1       2.030   4.627  19.932  0.00  0.00    +0.000 NA
ATOM     19  C   UNL     1       1.615   5.813  20.433  0.00  0.00    +0.000 A 
ATOM     20  C   UNL     1       2.007   7.077  19.988  0.00  0.00    +0.000 A 
ATOM     21  C   UNL     1       2.960   7.162  18.959  0.00  0.00    +0.000 A 
ATOM     22  C   UNL     1       3.409   5.955  18.393  0.00  0.00    +0.000 A 
BRANCH  14  24
ATOM     23  C   UNL     1       6.348   6.944  17.075  0.00  0.00    +0.000 C 
ATOM     24  C   UNL     1       5.148   6.281  16.397  0.00  0.00    +0.000 C 
ATOM     25  C   UNL     1       5.584   5.439  15.199  0.00  0.00    +0.000 C 
ENDBRANCH  14  24
ENDBRANCH   1  20
TORSDOF 2
ENDMDL
MODEL 9
REMARK VINA RESULT:      -7.7      6.007      8.001
REMARK  Name = 
REMARK  4 active torsions:
REMARK  status: ('A' for Active; 'I' for Inactive)
REMARK    1  A    between atoms: C_1  and  C_2
REMARK    2  A    between atoms: C_2  and  C_3
REMARK    3  A    between atoms: C_2  and  C_4
REMARK    4  A    between atoms: C_10  and  C_11
REMARK                            x       y       z     vdW  Elec       q    Type
REMARK                         _______ _______ _______ _____ _____    ______ ____
ROOT
ATOM      1  C   UNL     1       1.456   8.349  20.293  0.00  0.00    +0.000 C 
ATOM      2  O   UNL     1       1.586   8.184  21.507  0.00  0.00    +0.000 OA
ATOM      3  N   UNL     1       0.619   9.323  19.762  0.00  0.00    +0.000 N 
ATOM      4  C   UNL     1       0.372   9.617  18.337  0.00  0.00    +0.000 C 
ATOM      5  C   UNL     1      -0.850  10.542  18.109  0.00  0.00    +0.000 C 
ATOM      6  C   UNL     1      -0.562  11.802  18.897  0.00  0.00    +0.000 A 
ATOM      7  C   UNL     1      -0.549  13.065  18.316  0.00  0.00    +0.000 A 
ATOM      8  C   UNL     1       0.134  14.087  18.968  0.00  0.00    +0.000 A 
ATOM      9  F   UNL     1       0.275  15.270  18.361  0.00  0.00    +0.000 F 
ATOM     10  C   UNL     1       0.756  13.876  20.200  0.00  0.00    +0.000 A 
ATOM     11  C   UNL     1       0.639  12.643  20.836  0.00  0.00    +0.000 A 
ATOM     12  C   UNL     1      -0.040  11.607  20.193  0.00  0.00    +0.000 A 
ATOM     13  C   UNL     1      -0.058  10.198  20.726  0.00  0.00    +0.000 C 
ENDROOT
BRANCH   1  20
ATOM     14  C   UNL     1       3.187   3.909  18.244  0.00  0.00    +0.000 A 
ATOM     15  N   UNL     1       4.022   3.826  17.195  0.00  0.00    +0.000 NA
ATOM     16  O   UNL     1       4.289   5.125  16.812  0.00  0.00    +0.000 OA
ATOM     17  C   UNL     1       3.627   5.991  17.622  0.00  0.00    +0.000 A 
ATOM     18  N   UNL     1       3.698   7.327  17.490  0.00  0.00    +0.000 NA
ATOM     19  C   UNL     1       2.960   7.986  18.412  0.00  0.00    +0.000 A 
ATOM     20  C   UNL     1       2.201   7.402  19.428  0.00  0.00    +0.000 A 
ATOM     21  C   UNL     1       2.133   6.001  19.497  0.00  0.00    +0.000 A 
ATOM     22  C   UNL     1       2.897   5.271  18.569  0.00  0.00    +0.000 A 
BRANCH  14  24
ATOM     23  C   UNL     1       1.225   2.412  18.746  0.00  0.00    +0.000 C 
ATOM     24  C   UNL     1       2.734   2.627  18.879  0.00  0.00    +0.000 C 
ATOM     25  C   UNL     1       3.512   1.413  18.374  0.00  0.00    +0.000 C 
ENDBRANCH  14  24
ENDBRANCH   1  20
TORSDOF 2
ENDMDL
