MODEL 1
REMARK VINA RESULT:      -8.4      0.000      0.000
REMARK  Name = 
REMARK  9 active torsions:
REMARK  status: ('A' for Active; 'I' for Inactive)
REMARK    1  A    between atoms: C_1  and  N_2
REMARK    2  A    between atoms: C_6  and  C_7
REMARK    3  A    between atoms: C_7  and  C_8
REMARK    4  A    between atoms: C_8  and  C_9
REMARK    5  A    between atoms: C_13  and  N_14
REMARK    6  A    between atoms: C_15  and  C_17
REMARK    7  A    between atoms: C_17  and  C_18
REMARK    8  A    between atoms: C_19  and  C_20
REMARK    9  A    between atoms: C_20  and  C_21
REMARK                            x       y       z     vdW  Elec       q    Type
REMARK                         _______ _______ _______ _____ _____    ______ ____
ROOT
ATOM      1  C   UNL     1       4.979   3.912  17.070  0.00  0.00    +0.000 A 
ATOM      2  C   UNL     1       5.119   3.683  15.687  0.00  0.00    +0.000 A 
ATOM      3  C   UNL     1       6.144   4.265  14.944  0.00  0.00    +0.000 A 
ATOM      4  C   UNL     1       7.054   5.117  15.562  0.00  0.00    +0.000 A 
ATOM      5  C   UNL     1       6.949   5.391  16.921  0.00  0.00    +0.000 A 
ATOM      6  C   UNL     1       5.942   4.753  17.664  0.00  0.00    +0.000 A 
ENDROOT
BRANCH   1   7
ATOM      7  C   UNL     1       3.767   3.268  17.907  0.00  0.00    +0.000 C 
ATOM      8  C   UNL     1       3.568   1.727  17.832  0.00  0.00    +0.000 C 
ATOM      9  O   UNL     1       3.787   1.566  19.251  0.00  0.00    +0.000 OA
ATOM     10  C   UNL     1       4.074   2.967  19.403  0.00  0.00    +0.000 C 
BRANCH   7  11
ATOM     11  C   UNL     1       2.484   4.109  17.742  0.00  0.00    +0.000 C 
BRANCH  11  17
ATOM     12  C   UNL     1       0.997   3.846  20.532  0.00  0.00    +0.000 C 
ATOM     13  N   UNL     1       1.634   5.015  19.986  0.00  0.00    +0.000 N 
ATOM     14  C   UNL     1       1.662   6.238  20.582  0.00  0.00    +0.000 A 
ATOM     15  N   UNL     1       2.339   7.076  19.835  0.00  0.00    +0.000 NA
ATOM     16  N   UNL     1       2.745   6.397  18.716  0.00  0.00    +0.000 NA
ATOM     17  C   UNL     1       2.312   5.153  18.797  0.00  0.00    +0.000 A 
ENDBRANCH  11  17
ENDBRANCH   7  11
ENDBRANCH   1   7
BRANCH   5  18
ATOM     18  N   UNL     1       7.783   6.309  17.593  0.00  0.00    +0.000 N 
ATOM     19  C   UNL     1       7.623   7.689  17.617  0.00  0.00    +0.000 C 
ATOM     20  O   UNL     1       6.757   8.333  17.037  0.00  0.00    +0.000 OA
ATOM     21  H   UNL     1       8.456   5.912  18.240  0.00  0.00    +0.000 HD
BRANCH  19  22
ATOM     22  C   UNL     1       8.624   8.385  18.531  0.00  0.00    +0.000 C 
BRANCH  22  23
ATOM     23  C   UNL     1       8.717   9.839  18.161  0.00  0.00    +0.000 C 
ATOM     24  C   UNL     1       9.451  10.744  18.830  0.00  0.00    +0.000 C 
BRANCH  24  25
ATOM     25  C   UNL     1       9.528  12.203  18.456  0.00  0.00    +0.000 C 
BRANCH  25  26
ATOM     26  C   UNL     1      10.866  12.637  17.860  0.00  0.00    +0.000 C 
ATOM     27  F   UNL     1      11.783  11.644  17.852  0.00  0.00    +0.000 F 
ATOM     28  F   UNL     1      10.711  13.052  16.581  0.00  0.00    +0.000 F 
ATOM     29  F   UNL     1      11.393  13.669  18.560  0.00  0.00    +0.000 F 
ENDBRANCH  25  26
ENDBRANCH  24  25
ENDBRANCH  22  23
ENDBRANCH  19  22
ENDBRANCH   5  18
TORSDOF 8
ENDMDL
MODEL 2
REMARK VINA RESULT:      -8.3      1.981      2.591
REMARK  Name = 
REMARK  9 active torsions:
REMARK  status: ('A' for Active; 'I' for Inactive)
REMARK    1  A    between atoms: C_1  and  N_2
REMARK    2  A    between atoms: C_6  and  C_7
REMARK    3  A    between atoms: C_7  and  C_8
REMARK    4  A    between atoms: C_8  and  C_9
REMARK    5  A    between atoms: C_13  and  N_14
REMARK    6  A    between atoms: C_15  and  C_17
REMARK    7  A    between atoms: C_17  and  C_18
REMARK    8  A    between atoms: C_19  and  C_20
REMARK    9  A    between atoms: C_20  and  C_21
REMARK                            x       y       z     vdW  Elec       q    Type
REMARK                         _______ _______ _______ _____ _____    ______ ____
ROOT
ATOM      1  C   UNL     1       4.907   4.368  17.140  0.00  0.00    +0.000 A 
ATOM      2  C   UNL     1       5.453   3.611  16.084  0.00  0.00    +0.000 A 
ATOM      3  C   UNL     1       6.510   4.083  15.308  0.00  0.00    +0.000 A 
ATOM      4  C   UNL     1       7.043   5.344  15.552  0.00  0.00    +0.000 A 
ATOM      5  C   UNL     1       6.528   6.139  16.570  0.00  0.00    +0.000 A 
ATOM      6  C   UNL     1       5.499   5.625  17.376  0.00  0.00    +0.000 A 
ENDROOT
BRANCH   1   7
ATOM      7  C   UNL     1       3.660   3.829  17.999  0.00  0.00    +0.000 C 
ATOM      8  C   UNL     1       2.257   3.831  17.327  0.00  0.00    +0.000 C 
ATOM      9  O   UNL     1       2.132   2.397  17.437  0.00  0.00    +0.000 OA
ATOM     10  C   UNL     1       3.457   2.286  17.985  0.00  0.00    +0.000 C 
BRANCH   7  11
ATOM     11  C   UNL     1       3.707   4.389  19.436  0.00  0.00    +0.000 C 
BRANCH  11  17
ATOM     12  C   UNL     1       0.655   4.450  20.302  0.00  0.00    +0.000 C 
ATOM     13  N   UNL     1       1.694   3.596  20.813  0.00  0.00    +0.000 N 
ATOM     14  C   UNL     1       1.533   2.682  21.810  0.00  0.00    +0.000 A 
ATOM     15  N   UNL     1       2.665   2.057  22.021  0.00  0.00    +0.000 NA
ATOM     16  N   UNL     1       3.596   2.586  21.163  0.00  0.00    +0.000 NA
ATOM     17  C   UNL     1       3.016   3.524  20.439  0.00  0.00    +0.000 A 
ENDBRANCH  11  17
ENDBRANCH   7  11
ENDBRANCH   1   7
BRANCH   5  18
ATOM     18  N   UNL     1       6.962   7.459  16.817  0.00  0.00    +0.000 N 
ATOM     19  C   UNL     1       7.829   7.855  17.829  0.00  0.00    +0.000 C 
ATOM     20  O   UNL     1       8.328   7.135  18.685  0.00  0.00    +0.000 OA
ATOM     21  H   UNL     1       6.750   8.142  16.099  0.00  0.00    +0.000 HD
BRANCH  19  22
ATOM     22  C   UNL     1       8.192   9.334  17.751  0.00  0.00    +0.000 C 
BRANCH  22  23
ATOM     23  C   UNL     1       8.898   9.745  19.012  0.00  0.00    +0.000 C 
ATOM     24  C   UNL     1       9.650  10.852  19.131  0.00  0.00    +0.000 C 
BRANCH  24  25
ATOM     25  C   UNL     1      10.363  11.250  20.399  0.00  0.00    +0.000 C 
BRANCH  25  26
ATOM     26  C   UNL     1       9.799  12.494  21.082  0.00  0.00    +0.000 C 
ATOM     27  F   UNL     1       8.594  12.861  20.593  0.00  0.00    +0.000 F 
ATOM     28  F   UNL     1       9.648  12.286  22.411  0.00  0.00    +0.000 F 
ATOM     29  F   UNL     1      10.636  13.548  20.931  0.00  0.00    +0.000 F 
ENDBRANCH  25  26
ENDBRANCH  24  25
ENDBRANCH  22  23
ENDBRANCH  19  22
ENDBRANCH   5  18
TORSDOF 8
ENDMDL
MODEL 3
REMARK VINA RESULT:      -8.0      0.695      1.440
REMARK  Name = 
REMARK  9 active torsions:
REMARK  status: ('A' for Active; 'I' for Inactive)
REMARK    1  A    between atoms: C_1  and  N_2
REMARK    2  A    between atoms: C_6  and  C_7
REMARK    3  A    between atoms: C_7  and  C_8
REMARK    4  A    between atoms: C_8  and  C_9
REMARK    5  A    between atoms: C_13  and  N_14
REMARK    6  A    between atoms: C_15  and  C_17
REMARK    7  A    between atoms: C_17  and  C_18
REMARK    8  A    between atoms: C_19  and  C_20
REMARK    9  A    between atoms: C_20  and  C_21
REMARK                            x       y       z     vdW  Elec       q    Type
REMARK                         _______ _______ _______ _____ _____    ______ ____
ROOT
ATOM      1  C   UNL     1       4.936   3.988  17.163  0.00  0.00    +0.000 A 
ATOM      2  C   UNL     1       5.083   3.723  15.786  0.00  0.00    +0.000 A 
ATOM      3  C   UNL     1       6.120   4.274  15.037  0.00  0.00    +0.000 A 
ATOM      4  C   UNL     1       7.035   5.131  15.640  0.00  0.00    +0.000 A 
ATOM      5  C   UNL     1       6.924   5.439  16.991  0.00  0.00    +0.000 A 
ATOM      6  C   UNL     1       5.905   4.832  17.742  0.00  0.00    +0.000 A 
ENDROOT
BRANCH   1   7
ATOM      7  C   UNL     1       3.710   3.379  18.006  0.00  0.00    +0.000 C 
ATOM      8  C   UNL     1       3.518   1.835  18.001  0.00  0.00    +0.000 C 
ATOM      9  O   UNL     1       3.711   1.742  19.429  0.00  0.00    +0.000 OA
ATOM     10  C   UNL     1       3.991   3.150  19.521  0.00  0.00    +0.000 C 
BRANCH   7  11
ATOM     11  C   UNL     1       2.429   4.206  17.779  0.00  0.00    +0.000 C 
BRANCH  11  17
ATOM     12  C   UNL     1       3.265   7.266  17.824  0.00  0.00    +0.000 C 
ATOM     13  N   UNL     1       2.573   6.532  18.849  0.00  0.00    +0.000 N 
ATOM     14  C   UNL     1       2.194   7.043  20.053  0.00  0.00    +0.000 A 
ATOM     15  N   UNL     1       1.568   6.123  20.744  0.00  0.00    +0.000 NA
ATOM     16  N   UNL     1       1.553   4.977  19.989  0.00  0.00    +0.000 NA
ATOM     17  C   UNL     1       2.170   5.217  18.848  0.00  0.00    +0.000 A 
ENDBRANCH  11  17
ENDBRANCH   7  11
ENDBRANCH   1   7
BRANCH   5  18
ATOM     18  N   UNL     1       7.764   6.364  17.646  0.00  0.00    +0.000 N 
ATOM     19  C   UNL     1       7.647   7.748  17.598  0.00  0.00    +0.000 C 
ATOM     20  O   UNL     1       6.821   8.388  16.957  0.00  0.00    +0.000 OA
ATOM     21  H   UNL     1       8.403   5.980  18.333  0.00  0.00    +0.000 HD
BRANCH  19  22
ATOM     22  C   UNL     1       8.639   8.458  18.511  0.00  0.00    +0.000 C 
BRANCH  22  23
ATOM     23  C   UNL     1       8.458   9.946  18.389  0.00  0.00    +0.000 C 
ATOM     24  C   UNL     1       9.469  10.824  18.282  0.00  0.00    +0.000 C 
BRANCH  24  25
ATOM     25  C   UNL     1       9.276  12.316  18.172  0.00  0.00    +0.000 C 
BRANCH  25  26
ATOM     26  C   UNL     1      10.547  13.099  17.847  0.00  0.00    +0.000 C 
ATOM     27  F   UNL     1      10.407  14.429  18.039  0.00  0.00    +0.000 F 
ATOM     28  F   UNL     1      11.577  12.686  18.622  0.00  0.00    +0.000 F 
ATOM     29  F   UNL     1      10.911  12.912  16.557  0.00  0.00    +0.000 F 
ENDBRANCH  25  26
ENDBRANCH  24  25
ENDBRANCH  22  23
ENDBRANCH  19  22
ENDBRANCH   5  18
TORSDOF 8
ENDMDL
MODEL 4
REMARK VINA RESULT:      -8.0      2.107      2.693
REMARK  Name = 
REMARK  9 active torsions:
REMARK  status: ('A' for Active; 'I' for Inactive)
REMARK    1  A    between atoms: C_1  and  N_2
REMARK    2  A    between atoms: C_6  and  C_7
REMARK    3  A    between atoms: C_7  and  C_8
REMARK    4  A    between atoms: C_8  and  C_9
REMARK    5  A    between atoms: C_13  and  N_14
REMARK    6  A    between atoms: C_15  and  C_17
REMARK    7  A    between atoms: C_17  and  C_18
REMARK    8  A    between atoms: C_19  and  C_20
REMARK    9  A    between atoms: C_20  and  C_21
REMARK                            x       y       z     vdW  Elec       q    Type
REMARK                         _______ _______ _______ _____ _____    ______ ____
ROOT
ATOM      1  C   UNL     1       4.809   4.725  17.376  0.00  0.00    +0.000 A 
ATOM      2  C   UNL     1       5.287   3.851  16.379  0.00  0.00    +0.000 A 
ATOM      3  C   UNL     1       6.385   4.170  15.584  0.00  0.00    +0.000 A 
ATOM      4  C   UNL     1       7.031   5.391  15.747  0.00  0.00    +0.000 A 
ATOM      5  C   UNL     1       6.587   6.298  16.704  0.00  0.00    +0.000 A 
ATOM      6  C   UNL     1       5.513   5.936  17.533  0.00  0.00    +0.000 A 
ENDROOT
BRANCH   1   7
ATOM      7  C   UNL     1       3.515   4.362  18.258  0.00  0.00    +0.000 C 
ATOM      8  C   UNL     1       3.039   5.400  19.315  0.00  0.00    +0.000 C 
ATOM      9  O   UNL     1       1.759   5.568  18.668  0.00  0.00    +0.000 OA
ATOM     10  C   UNL     1       2.144   4.689  17.596  0.00  0.00    +0.000 C 
BRANCH   7  11
ATOM     11  C   UNL     1       3.583   2.902  18.748  0.00  0.00    +0.000 C 
BRANCH  11  17
ATOM     12  C   UNL     1       0.494   2.378  19.252  0.00  0.00    +0.000 C 
ATOM     13  N   UNL     1       1.538   2.478  20.237  0.00  0.00    +0.000 N 
ATOM     14  C   UNL     1       1.350   2.402  21.584  0.00  0.00    +0.000 A 
ATOM     15  N   UNL     1       2.504   2.508  22.196  0.00  0.00    +0.000 NA
ATOM     16  N   UNL     1       3.467   2.680  21.235  0.00  0.00    +0.000 NA
ATOM     17  C   UNL     1       2.887   2.673  20.050  0.00  0.00    +0.000 A 
ENDBRANCH  11  17
ENDBRANCH   7  11
ENDBRANCH   1   7
BRANCH   5  18
ATOM     18  N   UNL     1       7.140   7.586  16.865  0.00  0.00    +0.000 N 
ATOM     19  C   UNL     1       8.001   7.982  17.883  0.00  0.00    +0.000 C 
ATOM     20  O   UNL     1       8.391   7.292  18.817  0.00  0.00    +0.000 OA
ATOM     21  H   UNL     1       7.026   8.223  16.085  0.00  0.00    +0.000 HD
BRANCH  19  22
ATOM     22  C   UNL     1       8.511   9.407  17.704  0.00  0.00    +0.000 C 
BRANCH  22  23
ATOM     23  C   UNL     1       9.021   9.926  19.019  0.00  0.00    +0.000 C 
ATOM     24  C   UNL     1       9.460  11.180  19.217  0.00  0.00    +0.000 C 
BRANCH  24  25
ATOM     25  C   UNL     1       9.980  11.688  20.539  0.00  0.00    +0.000 C 
BRANCH  25  26
ATOM     26  C   UNL     1      10.589  13.088  20.487  0.00  0.00    +0.000 C 
ATOM     27  F   UNL     1      10.016  13.875  19.550  0.00  0.00    +0.000 F 
ATOM     28  F   UNL     1      10.452  13.716  21.678  0.00  0.00    +0.000 F 
ATOM     29  F   UNL     1      11.913  13.027  20.212  0.00  0.00    +0.000 F 
ENDBRANCH  25  26
ENDBRANCH  24  25
ENDBRANCH  22  23
ENDBRANCH  19  22
ENDBRANCH   5  18
TORSDOF 8
ENDMDL
MODEL 5
REMARK VINA RESULT:      -8.0      2.237      2.936
REMARK  Name = 
REMARK  9 active torsions:
REMARK  status: ('A' for Active; 'I' for Inactive)
REMARK    1  A    between atoms: C_1  and  N_2
REMARK    2  A    between atoms: C_6  and  C_7
REMARK    3  A    between atoms: C_7  and  C_8
REMARK    4  A    between atoms: C_8  and  C_9
REMARK    5  A    between atoms: C_13  and  N_14
REMARK    6  A    between atoms: C_15  and  C_17
REMARK    7  A    between atoms: C_17  and  C_18
REMARK    8  A    between atoms: C_19  and  C_20
REMARK    9  A    between atoms: C_20  and  C_21
REMARK                            x       y       z     vdW  Elec       q    Type
REMARK                         _______ _______ _______ _____ _____    ______ ____
ROOT
ATOM      1  C   UNL     1       4.468   4.890  17.418  0.00  0.00    +0.000 A 
ATOM      2  C   UNL     1       4.964   3.954  16.488  0.00  0.00    +0.000 A 
ATOM      3  C   UNL     1       6.120   4.193  15.749  0.00  0.00    +0.000 A 
ATOM      4  C   UNL     1       6.808   5.392  15.900  0.00  0.00    +0.000 A 
ATOM      5  C   UNL     1       6.350   6.357  16.791  0.00  0.00    +0.000 A 
ATOM      6  C   UNL     1       5.214   6.076  17.568  0.00  0.00    +0.000 A 
ENDROOT
BRANCH   1   7
ATOM      7  C   UNL     1       3.109   4.620  18.234  0.00  0.00    +0.000 C 
ATOM      8  C   UNL     1       1.780   5.167  17.637  0.00  0.00    +0.000 C 
ATOM      9  O   UNL     1       1.216   3.844  17.515  0.00  0.00    +0.000 OA
ATOM     10  C   UNL     1       2.438   3.240  17.974  0.00  0.00    +0.000 C 
BRANCH   7  11
ATOM     11  C   UNL     1       3.317   4.883  19.739  0.00  0.00    +0.000 C 
BRANCH  11  17
ATOM     12  C   UNL     1       4.544   2.091  20.613  0.00  0.00    +0.000 C 
ATOM     13  N   UNL     1       3.254   2.627  20.956  0.00  0.00    +0.000 N 
ATOM     14  C   UNL     1       2.313   1.979  21.698  0.00  0.00    +0.000 A 
ATOM     15  N   UNL     1       1.263   2.750  21.845  0.00  0.00    +0.000 NA
ATOM     16  N   UNL     1       1.508   3.917  21.168  0.00  0.00    +0.000 NA
ATOM     17  C   UNL     1       2.706   3.843  20.620  0.00  0.00    +0.000 A 
ENDBRANCH  11  17
ENDBRANCH   7  11
ENDBRANCH   1   7
BRANCH   5  18
ATOM     18  N   UNL     1       6.949   7.626  16.933  0.00  0.00    +0.000 N 
ATOM     19  C   UNL     1       7.899   7.977  17.885  0.00  0.00    +0.000 C 
ATOM     20  O   UNL     1       8.345   7.257  18.771  0.00  0.00    +0.000 OA
ATOM     21  H   UNL     1       6.789   8.284  16.178  0.00  0.00    +0.000 HD
BRANCH  19  22
ATOM     22  C   UNL     1       8.432   9.392  17.694  0.00  0.00    +0.000 C 
BRANCH  22  23
ATOM     23  C   UNL     1       8.901   9.935  19.016  0.00  0.00    +0.000 C 
ATOM     24  C   UNL     1       9.888  10.835  19.156  0.00  0.00    +0.000 C 
BRANCH  24  25
ATOM     25  C   UNL     1      10.359  11.364  20.487  0.00  0.00    +0.000 C 
BRANCH  25  26
ATOM     26  C   UNL     1       9.275  12.051  21.317  0.00  0.00    +0.000 C 
ATOM     27  F   UNL     1       9.781  12.847  22.285  0.00  0.00    +0.000 F 
ATOM     28  F   UNL     1       8.487  12.823  20.533  0.00  0.00    +0.000 F 
ATOM     29  F   UNL     1       8.478  11.138  21.918  0.00  0.00    +0.000 F 
ENDBRANCH  25  26
ENDBRANCH  24  25
ENDBRANCH  22  23
ENDBRANCH  19  22
ENDBRANCH   5  18
TORSDOF 8
ENDMDL
MODEL 6
REMARK VINA RESULT:      -7.8      1.435      2.034
REMARK  Name = 
REMARK  9 active torsions:
REMARK  status: ('A' for Active; 'I' for Inactive)
REMARK    1  A    between atoms: C_1  and  N_2
REMARK    2  A    between atoms: C_6  and  C_7
REMARK    3  A    between atoms: C_7  and  C_8
REMARK    4  A    between atoms: C_8  and  C_9
REMARK    5  A    between atoms: C_13  and  N_14
REMARK    6  A    between atoms: C_15  and  C_17
REMARK    7  A    between atoms: C_17  and  C_18
REMARK    8  A    between atoms: C_19  and  C_20
REMARK    9  A    between atoms: C_20  and  C_21
REMARK                            x       y       z     vdW  Elec       q    Type
REMARK                         _______ _______ _______ _____ _____    ______ ____
ROOT
ATOM      1  C   UNL     1       4.989   4.143  17.149  0.00  0.00    +0.000 A 
ATOM      2  C   UNL     1       5.224   3.779  15.807  0.00  0.00    +0.000 A 
ATOM      3  C   UNL     1       6.334   4.238  15.103  0.00  0.00    +0.000 A 
ATOM      4  C   UNL     1       7.239   5.099  15.715  0.00  0.00    +0.000 A 
ATOM      5  C   UNL     1       7.044   5.503  17.031  0.00  0.00    +0.000 A 
ATOM      6  C   UNL     1       5.949   4.987  17.742  0.00  0.00    +0.000 A 
ENDROOT
BRANCH   1   7
ATOM      7  C   UNL     1       3.681   3.639  17.936  0.00  0.00    +0.000 C 
ATOM      8  C   UNL     1       2.348   3.535  17.142  0.00  0.00    +0.000 C 
ATOM      9  O   UNL     1       2.249   2.112  17.370  0.00  0.00    +0.000 OA
ATOM     10  C   UNL     1       3.520   2.094  18.043  0.00  0.00    +0.000 C 
BRANCH   7  11
ATOM     11  C   UNL     1       3.579   4.323  19.315  0.00  0.00    +0.000 C 
BRANCH  11  17
ATOM     12  C   UNL     1       0.517   4.037  20.094  0.00  0.00    +0.000 C 
ATOM     13  N   UNL     1       1.641   3.379  20.704  0.00  0.00    +0.000 N 
ATOM     14  C   UNL     1       1.566   2.536  21.771  0.00  0.00    +0.000 A 
ATOM     15  N   UNL     1       2.764   2.091  22.064  0.00  0.00    +0.000 NA
ATOM     16  N   UNL     1       3.646   2.669  21.188  0.00  0.00    +0.000 NA
ATOM     17  C   UNL     1       2.974   3.457  20.371  0.00  0.00    +0.000 A 
ENDBRANCH  11  17
ENDBRANCH   7  11
ENDBRANCH   1   7
BRANCH   5  18
ATOM     18  N   UNL     1       7.873   6.439  17.685  0.00  0.00    +0.000 N 
ATOM     19  C   UNL     1       7.718   7.820  17.664  0.00  0.00    +0.000 C 
ATOM     20  O   UNL     1       6.861   8.448  17.054  0.00  0.00    +0.000 OA
ATOM     21  H   UNL     1       8.537   6.060  18.351  0.00  0.00    +0.000 HD
BRANCH  19  22
ATOM     22  C   UNL     1       8.711   8.540  18.569  0.00  0.00    +0.000 C 
BRANCH  22  23
ATOM     23  C   UNL     1       8.523  10.026  18.438  0.00  0.00    +0.000 C 
ATOM     24  C   UNL     1       9.465  10.869  17.984  0.00  0.00    +0.000 C 
BRANCH  24  25
ATOM     25  C   UNL     1       9.270  12.360  17.868  0.00  0.00    +0.000 C 
BRANCH  25  26
ATOM     26  C   UNL     1      10.530  13.188  18.114  0.00  0.00    +0.000 C 
ATOM     27  F   UNL     1      10.457  14.427  17.579  0.00  0.00    +0.000 F 
ATOM     28  F   UNL     1      10.757  13.335  19.440  0.00  0.00    +0.000 F 
ATOM     29  F   UNL     1      11.616  12.581  17.582  0.00  0.00    +0.000 F 
ENDBRANCH  25  26
ENDBRANCH  24  25
ENDBRANCH  22  23
ENDBRANCH  19  22
ENDBRANCH   5  18
TORSDOF 8
ENDMDL
MODEL 7
REMARK VINA RESULT:      -7.8      5.622      7.584
REMARK  Name = 
REMARK  9 active torsions:
REMARK  status: ('A' for Active; 'I' for Inactive)
REMARK    1  A    between atoms: C_1  and  N_2
REMARK    2  A    between atoms: C_6  and  C_7
REMARK    3  A    between atoms: C_7  and  C_8
REMARK    4  A    between atoms: C_8  and  C_9
REMARK    5  A    between atoms: C_13  and  N_14
REMARK    6  A    between atoms: C_15  and  C_17
REMARK    7  A    between atoms: C_17  and  C_18
REMARK    8  A    between atoms: C_19  and  C_20
REMARK    9  A    between atoms: C_20  and  C_21
REMARK                            x       y       z     vdW  Elec       q    Type
REMARK                         _______ _______ _______ _____ _____    ______ ____
ROOT
ATOM      1  C   UNL     1       4.852   5.310  18.226  0.00  0.00    +0.000 A 
ATOM      2  C   UNL     1       6.055   5.325  18.960  0.00  0.00    +0.000 A 
ATOM      3  C   UNL     1       7.271   4.959  18.388  0.00  0.00    +0.000 A 
ATOM      4  C   UNL     1       7.320   4.545  17.061  0.00  0.00    +0.000 A 
ATOM      5  C   UNL     1       6.158   4.496  16.298  0.00  0.00    +0.000 A 
ATOM      6  C   UNL     1       4.950   4.919  16.876  0.00  0.00    +0.000 A 
ENDROOT
BRANCH   1   7
ATOM      7  C   UNL     1       3.449   5.694  18.911  0.00  0.00    +0.000 C 
ATOM      8  C   UNL     1       3.172   7.195  19.214  0.00  0.00    +0.000 C 
ATOM      9  O   UNL     1       2.023   7.225  18.340  0.00  0.00    +0.000 OA
ATOM     10  C   UNL     1       2.252   5.865  17.930  0.00  0.00    +0.000 C 
BRANCH   7  11
ATOM     11  C   UNL     1       3.117   4.715  20.056  0.00  0.00    +0.000 C 
BRANCH  11  17
ATOM     12  C   UNL     1       3.593   1.956  18.564  0.00  0.00    +0.000 C 
ATOM     13  N   UNL     1       2.341   2.505  19.011  0.00  0.00    +0.000 N 
ATOM     14  C   UNL     1       1.123   1.927  18.820  0.00  0.00    +0.000 A 
ATOM     15  N   UNL     1       0.192   2.671  19.367  0.00  0.00    +0.000 NA
ATOM     16  N   UNL     1       0.807   3.771  19.908  0.00  0.00    +0.000 NA
ATOM     17  C   UNL     1       2.104   3.681  19.686  0.00  0.00    +0.000 A 
ENDBRANCH  11  17
ENDBRANCH   7  11
ENDBRANCH   1   7
BRANCH   5  18
ATOM     18  N   UNL     1       6.120   4.006  14.976  0.00  0.00    +0.000 N 
ATOM     19  C   UNL     1       6.874   4.480  13.909  0.00  0.00    +0.000 C 
ATOM     20  O   UNL     1       7.666   5.415  13.934  0.00  0.00    +0.000 OA
ATOM     21  H   UNL     1       5.621   3.134  14.835  0.00  0.00    +0.000 HD
BRANCH  19  22
ATOM     22  C   UNL     1       6.686   3.658  12.640  0.00  0.00    +0.000 C 
BRANCH  22  23
ATOM     23  C   UNL     1       5.240   3.691  12.230  0.00  0.00    +0.000 C 
ATOM     24  C   UNL     1       4.703   2.894  11.292  0.00  0.00    +0.000 C 
BRANCH  24  25
ATOM     25  C   UNL     1       3.252   2.943  10.880  0.00  0.00    +0.000 C 
BRANCH  25  26
ATOM     26  C   UNL     1       2.959   3.856   9.690  0.00  0.00    +0.000 C 
ATOM     27  F   UNL     1       1.638   4.077   9.512  0.00  0.00    +0.000 F 
ATOM     28  F   UNL     1       3.551   5.062   9.853  0.00  0.00    +0.000 F 
ATOM     29  F   UNL     1       3.440   3.321   8.543  0.00  0.00    +0.000 F 
ENDBRANCH  25  26
ENDBRANCH  24  25
ENDBRANCH  22  23
ENDBRANCH  19  22
ENDBRANCH   5  18
TORSDOF 8
ENDMDL
MODEL 8
REMARK VINA RESULT:      -7.7      6.546      8.912
REMARK  Name = 
REMARK  9 active torsions:
REMARK  status: ('A' for Active; 'I' for Inactive)
REMARK    1  A    between atoms: C_1  and  N_2
REMARK    2  A    between atoms: C_6  and  C_7
REMARK    3  A    between atoms: C_7  and  C_8
REMARK    4  A    between atoms: C_8  and  C_9
REMARK    5  A    between atoms: C_13  and  N_14
REMARK    6  A    between atoms: C_15  and  C_17
REMARK    7  A    between atoms: C_17  and  C_18
REMARK    8  A    between atoms: C_19  and  C_20
REMARK    9  A    between atoms: C_20  and  C_21
REMARK                            x       y       z     vdW  Elec       q    Type
REMARK                         _______ _______ _______ _____ _____    ______ ____
ROOT
ATOM      1  C   UNL     1       2.694   6.745  18.800  0.00  0.00    +0.000 A 
ATOM      2  C   UNL     1       2.854   7.670  17.748  0.00  0.00    +0.000 A 
ATOM      3  C   UNL     1       2.327   8.957  17.813  0.00  0.00    +0.000 A 
ATOM      4  C   UNL     1       1.599   9.356  18.929  0.00  0.00    +0.000 A 
ATOM      5  C   UNL     1       1.396   8.475  19.987  0.00  0.00    +0.000 A 
ATOM      6  C   UNL     1       1.981   7.200  19.927  0.00  0.00    +0.000 A 
ENDROOT
BRANCH   1   7
ATOM      7  C   UNL     1       3.272   5.248  18.694  0.00  0.00    +0.000 C 
ATOM      8  C   UNL     1       3.354   4.405  19.998  0.00  0.00    +0.000 C 
ATOM      9  O   UNL     1       2.446   3.406  19.486  0.00  0.00    +0.000 OA
ATOM     10  C   UNL     1       2.236   4.161  18.280  0.00  0.00    +0.000 C 
BRANCH   7  11
ATOM     11  C   UNL     1       4.529   5.212  17.802  0.00  0.00    +0.000 C 
BRANCH  11  17
ATOM     12  C   UNL     1       6.846   7.268  17.116  0.00  0.00    +0.000 C 
ATOM     13  N   UNL     1       6.801   6.331  18.206  0.00  0.00    +0.000 N 
ATOM     14  C   UNL     1       7.796   6.147  19.117  0.00  0.00    +0.000 A 
ATOM     15  N   UNL     1       7.431   5.238  19.989  0.00  0.00    +0.000 NA
ATOM     16  N   UNL     1       6.182   4.800  19.631  0.00  0.00    +0.000 NA
ATOM     17  C   UNL     1       5.801   5.450  18.548  0.00  0.00    +0.000 A 
ENDBRANCH  11  17
ENDBRANCH   7  11
ENDBRANCH   1   7
BRANCH   5  18
ATOM     18  N   UNL     1       0.599   8.783  21.109  0.00  0.00    +0.000 N 
ATOM     19  C   UNL     1       1.064   9.216  22.345  0.00  0.00    +0.000 C 
ATOM     20  O   UNL     1       2.236   9.368  22.671  0.00  0.00    +0.000 OA
ATOM     21  H   UNL     1      -0.400   8.847  20.945  0.00  0.00    +0.000 HD
BRANCH  19  22
ATOM     22  C   UNL     1      -0.061   9.576  23.307  0.00  0.00    +0.000 C 
BRANCH  22  23
ATOM     23  C   UNL     1      -1.003  10.540  22.640  0.00  0.00    +0.000 C 
ATOM     24  C   UNL     1      -1.482  11.653  23.222  0.00  0.00    +0.000 C 
BRANCH  24  25
ATOM     25  C   UNL     1      -2.435  12.608  22.547  0.00  0.00    +0.000 C 
BRANCH  25  26
ATOM     26  C   UNL     1      -3.788  12.753  23.241  0.00  0.00    +0.000 C 
ATOM     27  F   UNL     1      -3.897  11.980  24.344  0.00  0.00    +0.000 F 
ATOM     28  F   UNL     1      -3.995  14.034  23.626  0.00  0.00    +0.000 F 
ATOM     29  F   UNL     1      -4.797  12.413  22.406  0.00  0.00    +0.000 F 
ENDBRANCH  25  26
ENDBRANCH  24  25
ENDBRANCH  22  23
ENDBRANCH  19  22
ENDBRANCH   5  18
TORSDOF 8
ENDMDL
MODEL 9
REMARK VINA RESULT:      -7.7      6.688      8.913
REMARK  Name = 
REMARK  9 active torsions:
REMARK  status: ('A' for Active; 'I' for Inactive)
REMARK    1  A    between atoms: C_1  and  N_2
REMARK    2  A    between atoms: C_6  and  C_7
REMARK    3  A    between atoms: C_7  and  C_8
REMARK    4  A    between atoms: C_8  and  C_9
REMARK    5  A    between atoms: C_13  and  N_14
REMARK    6  A    between atoms: C_15  and  C_17
REMARK    7  A    between atoms: C_17  and  C_18
REMARK    8  A    between atoms: C_19  and  C_20
REMARK    9  A    between atoms: C_20  and  C_21
REMARK                            x       y       z     vdW  Elec       q    Type
REMARK                         _______ _______ _______ _____ _____    ______ ____
ROOT
ATOM      1  C   UNL     1       2.513   7.495  18.759  0.00  0.00    +0.000 A 
ATOM      2  C   UNL     1       2.551   8.416  17.693  0.00  0.00    +0.000 A 
ATOM      3  C   UNL     1       1.870   9.629  17.744  0.00  0.00    +0.000 A 
ATOM      4  C   UNL     1       1.106   9.952  18.860  0.00  0.00    +0.000 A 
ATOM      5  C   UNL     1       1.020   9.070  19.932  0.00  0.00    +0.000 A 
ATOM      6  C   UNL     1       1.757   7.876  19.886  0.00  0.00    +0.000 A 
ENDROOT
BRANCH   1   7
ATOM      7  C   UNL     1       3.270   6.079  18.670  0.00  0.00    +0.000 C 
ATOM      8  C   UNL     1       2.775   5.054  17.609  0.00  0.00    +0.000 C 
ATOM      9  O   UNL     1       4.046   5.053  16.924  0.00  0.00    +0.000 OA
ATOM     10  C   UNL     1       4.564   6.067  17.803  0.00  0.00    +0.000 C 
BRANCH   7  11
ATOM     11  C   UNL     1       3.519   5.505  20.080  0.00  0.00    +0.000 C 
BRANCH  11  17
ATOM     12  C   UNL     1       4.288   2.435  19.856  0.00  0.00    +0.000 C 
ATOM     13  N   UNL     1       3.028   2.995  20.265  0.00  0.00    +0.000 N 
ATOM     14  C   UNL     1       1.922   2.271  20.590  0.00  0.00    +0.000 A 
ATOM     15  N   UNL     1       0.952   3.081  20.939  0.00  0.00    +0.000 NA
ATOM     16  N   UNL     1       1.422   4.364  20.820  0.00  0.00    +0.000 NA
ATOM     17  C   UNL     1       2.673   4.317  20.402  0.00  0.00    +0.000 A 
ENDBRANCH  11  17
ENDBRANCH   7  11
ENDBRANCH   1   7
BRANCH   5  18
ATOM     18  N   UNL     1       0.198   9.295  21.056  0.00  0.00    +0.000 N 
ATOM     19  C   UNL     1       0.637   9.504  22.358  0.00  0.00    +0.000 C 
ATOM     20  O   UNL     1       1.800   9.496  22.746  0.00  0.00    +0.000 OA
ATOM     21  H   UNL     1      -0.781   9.477  20.866  0.00  0.00    +0.000 HD
BRANCH  19  22
ATOM     22  C   UNL     1      -0.498   9.834  23.319  0.00  0.00    +0.000 C 
BRANCH  22  23
ATOM     23  C   UNL     1      -1.045  11.198  23.001  0.00  0.00    +0.000 C 
ATOM     24  C   UNL     1      -2.311  11.580  23.243  0.00  0.00    +0.000 C 
BRANCH  24  25
ATOM     25  C   UNL     1      -2.852  12.947  22.909  0.00  0.00    +0.000 C 
BRANCH  25  26
ATOM     26  C   UNL     1      -3.344  13.748  24.113  0.00  0.00    +0.000 C 
ATOM     27  F   UNL     1      -4.234  14.708  23.777  0.00  0.00    +0.000 F 
ATOM     28  F   UNL     1      -3.947  12.938  25.015  0.00  0.00    +0.000 F 
ATOM     29  F   UNL     1      -2.311  14.355  24.742  0.00  0.00    +0.000 F 
ENDBRANCH  25  26
ENDBRANCH  24  25
ENDBRANCH  22  23
ENDBRANCH  19  22
ENDBRANCH   5  18
TORSDOF 8
ENDMDL
