MODEL 1
REMARK VINA RESULT:      -8.7      0.000      0.000
REMARK  Name = 
REMARK  5 active torsions:
REMARK  status: ('A' for Active; 'I' for Inactive)
REMARK    1  A    between atoms: C_2  and  C_3
REMARK    2  A    between atoms: C_3  and  N_4
REMARK    3  A    between atoms: N_15  and  C_16
REMARK    4  A    between atoms: C_20  and  S_21
REMARK    5  A    between atoms: S_21  and  N_24
REMARK                            x       y       z     vdW  Elec       q    Type
REMARK                         _______ _______ _______ _____ _____    ______ ____
ROOT
ATOM      1  O   UNL     1       8.487   7.353  18.964  0.00  0.00    +0.000 OA
ATOM      2  C   UNL     1       8.100   7.943  17.958  0.00  0.00    +0.000 C 
ATOM      3  N   UNL     1       8.218   9.314  17.724  0.00  0.00    +0.000 N 
ATOM      4  H   UNL     1       7.571   9.721  17.050  0.00  0.00    +0.000 HD
ENDROOT
BRANCH   3   5
ATOM      5  C   UNL     1       8.945  10.219  18.540  0.00  0.00    +0.000 A 
ATOM      6  C   UNL     1       8.981  10.086  19.933  0.00  0.00    +0.000 A 
ATOM      7  C   UNL     1       9.552  11.069  20.742  0.00  0.00    +0.000 A 
ATOM      8  C   UNL     1      10.199  12.150  20.162  0.00  0.00    +0.000 A 
ATOM      9  C   UNL     1      10.342  12.186  18.775  0.00  0.00    +0.000 A 
ATOM     10  C   UNL     1       9.668  11.264  17.952  0.00  0.00    +0.000 A 
BRANCH   9  11
ATOM     11  S   UNL     1      11.462  13.370  18.067  0.00  0.00    +0.000 S 
ATOM     12  O   UNL     1      12.332  13.819  19.137  0.00  0.00    +0.000 OA
ATOM     13  O   UNL     1      12.001  12.822  16.843  0.00  0.00    +0.000 OA
BRANCH  11  14
ATOM     14  N   UNL     1      10.436  14.672  17.631  0.00  0.00    +0.000 NA
ATOM     15  C   UNL     1      11.040  15.776  16.839  0.00  0.00    +0.000 C 
ATOM     16  C   UNL     1      11.358  16.856  17.856  0.00  0.00    +0.000 C 
ATOM     17  C   UNL     1      10.213  16.762  18.845  0.00  0.00    +0.000 C 
ATOM     18  C   UNL     1       9.737  15.314  18.785  0.00  0.00    +0.000 C 
ENDBRANCH  11  14
ENDBRANCH   9  11
ENDBRANCH   3   5
BRANCH   2  19
ATOM     19  C   UNL     1       7.355   7.181  16.865  0.00  0.00    +0.000 C 
BRANCH  19  20
ATOM     20  N   UNL     1       6.556   6.122  17.426  0.00  0.00    +0.000 N 
ATOM     21  C   UNL     1       6.979   4.835  17.607  0.00  0.00    +0.000 C 
ATOM     22  O   UNL     1       8.095   4.385  17.413  0.00  0.00    +0.000 OA
ATOM     23  N   UNL     1       5.902   4.071  17.984  0.00  0.00    +0.000 N 
ATOM     24  C   UNL     1       4.689   4.845  18.104  0.00  0.00    +0.000 C 
ATOM     25  C   UNL     1       4.180   4.881  19.546  0.00  0.00    +0.000 C 
ATOM     26  C   UNL     1       2.665   4.813  19.416  0.00  0.00    +0.000 C 
ATOM     27  C   UNL     1       2.447   3.918  18.208  0.00  0.00    +0.000 C 
ATOM     28  C   UNL     1       3.540   4.335  17.229  0.00  0.00    +0.000 C 
ATOM     29  C   UNL     1       5.209   6.216  17.631  0.00  0.00    +0.000 C 
ATOM     30  O   UNL     1       4.542   7.224  17.454  0.00  0.00    +0.000 OA
ATOM     31  H   UNL     1       6.004   3.079  18.161  0.00  0.00    +0.000 HD
ENDBRANCH  19  20
ENDBRANCH   2  19
TORSDOF 5
ENDMDL
MODEL 2
REMARK VINA RESULT:      -8.2      6.769      9.987
REMARK  Name = 
REMARK  5 active torsions:
REMARK  status: ('A' for Active; 'I' for Inactive)
REMARK    1  A    between atoms: C_2  and  C_3
REMARK    2  A    between atoms: C_3  and  N_4
REMARK    3  A    between atoms: N_15  and  C_16
REMARK    4  A    between atoms: C_20  and  S_21
REMARK    5  A    between atoms: S_21  and  N_24
REMARK                            x       y       z     vdW  Elec       q    Type
REMARK                         _______ _______ _______ _____ _____    ______ ____
ROOT
ATOM      1  O   UNL     1       1.397   8.352  17.433  0.00  0.00    +0.000 OA
ATOM      2  C   UNL     1       1.693   8.927  18.479  0.00  0.00    +0.000 C 
ATOM      3  N   UNL     1       2.022   8.305  19.684  0.00  0.00    +0.000 N 
ATOM      4  H   UNL     1       1.903   8.857  20.531  0.00  0.00    +0.000 HD
ENDROOT
BRANCH   3   5
ATOM      5  C   UNL     1       2.223   6.911  19.851  0.00  0.00    +0.000 A 
ATOM      6  C   UNL     1       1.330   6.122  20.585  0.00  0.00    +0.000 A 
ATOM      7  C   UNL     1       1.617   4.791  20.890  0.00  0.00    +0.000 A 
ATOM      8  C   UNL     1       2.754   4.194  20.368  0.00  0.00    +0.000 A 
ATOM      9  C   UNL     1       3.545   4.914  19.472  0.00  0.00    +0.000 A 
ATOM     10  C   UNL     1       3.327   6.288  19.255  0.00  0.00    +0.000 A 
BRANCH   9  11
ATOM     11  S   UNL     1       4.785   4.043  18.543  0.00  0.00    +0.000 S 
ATOM     12  O   UNL     1       6.002   4.077  19.330  0.00  0.00    +0.000 OA
ATOM     13  O   UNL     1       4.224   2.793  18.082  0.00  0.00    +0.000 OA
BRANCH  11  14
ATOM     14  N   UNL     1       5.013   5.036  17.164  0.00  0.00    +0.000 NA
ATOM     15  C   UNL     1       4.824   4.400  15.832  0.00  0.00    +0.000 C 
ATOM     16  C   UNL     1       6.226   4.063  15.360  0.00  0.00    +0.000 C 
ATOM     17  C   UNL     1       7.063   5.217  15.878  0.00  0.00    +0.000 C 
ATOM     18  C   UNL     1       6.337   5.726  17.119  0.00  0.00    +0.000 C 
ENDBRANCH  11  14
ENDBRANCH   9  11
ENDBRANCH   3   5
BRANCH   2  19
ATOM     19  C   UNL     1       1.644  10.451  18.551  0.00  0.00    +0.000 C 
BRANCH  19  20
ATOM     20  N   UNL     1       0.477  10.898  19.267  0.00  0.00    +0.000 N 
ATOM     21  C   UNL     1      -0.803  10.838  18.792  0.00  0.00    +0.000 C 
ATOM     22  O   UNL     1      -1.186  10.336  17.750  0.00  0.00    +0.000 OA
ATOM     23  N   UNL     1      -1.623  11.519  19.659  0.00  0.00    +0.000 N 
ATOM     24  C   UNL     1      -0.907  12.049  20.795  0.00  0.00    +0.000 C 
ATOM     25  C   UNL     1      -1.361  11.401  22.104  0.00  0.00    +0.000 C 
ATOM     26  C   UNL     1      -1.340  12.536  23.118  0.00  0.00    +0.000 C 
ATOM     27  C   UNL     1      -1.754  13.752  22.306  0.00  0.00    +0.000 C 
ATOM     28  C   UNL     1      -1.051  13.566  20.965  0.00  0.00    +0.000 C 
ATOM     29  C   UNL     1       0.529  11.647  20.409  0.00  0.00    +0.000 C 
ATOM     30  O   UNL     1       1.553  11.945  21.004  0.00  0.00    +0.000 OA
ATOM     31  H   UNL     1      -2.616  11.599  19.480  0.00  0.00    +0.000 HD
ENDBRANCH  19  20
ENDBRANCH   2  19
TORSDOF 5
ENDMDL
MODEL 3
REMARK VINA RESULT:      -8.2      1.504      1.767
REMARK  Name = 
REMARK  5 active torsions:
REMARK  status: ('A' for Active; 'I' for Inactive)
REMARK    1  A    between atoms: C_2  and  C_3
REMARK    2  A    between atoms: C_3  and  N_4
REMARK    3  A    between atoms: N_15  and  C_16
REMARK    4  A    between atoms: C_20  and  S_21
REMARK    5  A    between atoms: S_21  and  N_24
REMARK                            x       y       z     vdW  Elec       q    Type
REMARK                         _______ _______ _______ _____ _____    ______ ____
ROOT
ATOM      1  O   UNL     1       7.078   9.285  17.479  0.00  0.00    +0.000 OA
ATOM      2  C   UNL     1       7.913   8.511  17.944  0.00  0.00    +0.000 C 
ATOM      3  N   UNL     1       8.987   8.869  18.760  0.00  0.00    +0.000 N 
ATOM      4  H   UNL     1       9.776   8.225  18.786  0.00  0.00    +0.000 HD
ENDROOT
BRANCH   3   5
ATOM      5  C   UNL     1       9.196  10.160  19.311  0.00  0.00    +0.000 A 
ATOM      6  C   UNL     1       9.110  10.393  20.688  0.00  0.00    +0.000 A 
ATOM      7  C   UNL     1       9.146  11.687  21.209  0.00  0.00    +0.000 A 
ATOM      8  C   UNL     1       9.383  12.763  20.367  0.00  0.00    +0.000 A 
ATOM      9  C   UNL     1       9.670  12.520  19.024  0.00  0.00    +0.000 A 
ATOM     10  C   UNL     1       9.518  11.234  18.472  0.00  0.00    +0.000 A 
BRANCH   9  11
ATOM     11  S   UNL     1      10.314  13.851  18.037  0.00  0.00    +0.000 S 
ATOM     12  O   UNL     1      11.112  14.680  18.919  0.00  0.00    +0.000 OA
ATOM     13  O   UNL     1      10.868  13.298  16.822  0.00  0.00    +0.000 OA
BRANCH  11  14
ATOM     14  N   UNL     1       8.910  14.732  17.600  0.00  0.00    +0.000 NA
ATOM     15  C   UNL     1       8.793  16.121  18.118  0.00  0.00    +0.000 C 
ATOM     16  C   UNL     1       7.890  16.008  19.332  0.00  0.00    +0.000 C 
ATOM     17  C   UNL     1       6.895  14.934  18.937  0.00  0.00    +0.000 C 
ATOM     18  C   UNL     1       7.626  14.046  17.935  0.00  0.00    +0.000 C 
ENDBRANCH  11  14
ENDBRANCH   9  11
ENDBRANCH   3   5
BRANCH   2  19
ATOM     19  C   UNL     1       7.867   7.030  17.579  0.00  0.00    +0.000 C 
BRANCH  19  20
ATOM     20  N   UNL     1       6.696   6.397  18.132  0.00  0.00    +0.000 N 
ATOM     21  C   UNL     1       6.678   5.648  19.274  0.00  0.00    +0.000 C 
ATOM     22  O   UNL     1       7.597   5.456  20.052  0.00  0.00    +0.000 OA
ATOM     23  N   UNL     1       5.444   5.056  19.388  0.00  0.00    +0.000 N 
ATOM     24  C   UNL     1       4.554   5.421  18.311  0.00  0.00    +0.000 C 
ATOM     25  C   UNL     1       3.353   6.223  18.816  0.00  0.00    +0.000 C 
ATOM     26  C   UNL     1       2.186   5.732  17.971  0.00  0.00    +0.000 C 
ATOM     27  C   UNL     1       2.496   4.261  17.748  0.00  0.00    +0.000 C 
ATOM     28  C   UNL     1       4.005   4.224  17.528  0.00  0.00    +0.000 C 
ATOM     29  C   UNL     1       5.513   6.275  17.461  0.00  0.00    +0.000 C 
ATOM     30  O   UNL     1       5.276   6.761  16.365  0.00  0.00    +0.000 OA
ATOM     31  H   UNL     1       5.229   4.448  20.169  0.00  0.00    +0.000 HD
ENDBRANCH  19  20
ENDBRANCH   2  19
TORSDOF 5
ENDMDL
MODEL 4
REMARK VINA RESULT:      -8.2      1.220      1.269
REMARK  Name = 
REMARK  5 active torsions:
REMARK  status: ('A' for Active; 'I' for Inactive)
REMARK    1  A    between atoms: C_2  and  C_3
REMARK    2  A    between atoms: C_3  and  N_4
REMARK    3  A    between atoms: N_15  and  C_16
REMARK    4  A    between atoms: C_20  and  S_21
REMARK    5  A    between atoms: S_21  and  N_24
REMARK                            x       y       z     vdW  Elec       q    Type
REMARK                         _______ _______ _______ _____ _____    ______ ____
ROOT
ATOM      1  O   UNL     1       6.929   9.140  17.656  0.00  0.00    +0.000 OA
ATOM      2  C   UNL     1       7.847   8.384  17.970  0.00  0.00    +0.000 C 
ATOM      3  N   UNL     1       9.020   8.759  18.627  0.00  0.00    +0.000 N 
ATOM      4  H   UNL     1       9.823   8.142  18.517  0.00  0.00    +0.000 HD
ENDROOT
BRANCH   3   5
ATOM      5  C   UNL     1       9.268  10.042  19.179  0.00  0.00    +0.000 A 
ATOM      6  C   UNL     1       8.960  10.341  20.511  0.00  0.00    +0.000 A 
ATOM      7  C   UNL     1       9.046  11.644  21.001  0.00  0.00    +0.000 A 
ATOM      8  C   UNL     1       9.552  12.653  20.196  0.00  0.00    +0.000 A 
ATOM      9  C   UNL     1      10.049  12.324  18.935  0.00  0.00    +0.000 A 
ATOM     10  C   UNL     1       9.856  11.040  18.392  0.00  0.00    +0.000 A 
BRANCH   9  11
ATOM     11  S   UNL     1      11.007  13.536  18.056  0.00  0.00    +0.000 S 
ATOM     12  O   UNL     1      12.333  13.530  18.643  0.00  0.00    +0.000 OA
ATOM     13  O   UNL     1      10.814  13.338  16.638  0.00  0.00    +0.000 OA
BRANCH  11  14
ATOM     14  N   UNL     1      10.247  15.015  18.470  0.00  0.00    +0.000 NA
ATOM     15  C   UNL     1       9.775  15.872  17.349  0.00  0.00    +0.000 C 
ATOM     16  C   UNL     1      10.864  16.912  17.169  0.00  0.00    +0.000 C 
ATOM     17  C   UNL     1      11.337  17.180  18.584  0.00  0.00    +0.000 C 
ATOM     18  C   UNL     1      11.063  15.896  19.359  0.00  0.00    +0.000 C 
ENDBRANCH  11  14
ENDBRANCH   9  11
ENDBRANCH   3   5
BRANCH   2  19
ATOM     19  C   UNL     1       7.793   6.912  17.571  0.00  0.00    +0.000 C 
BRANCH  19  20
ATOM     20  N   UNL     1       6.628   6.269  18.123  0.00  0.00    +0.000 N 
ATOM     21  C   UNL     1       6.609   5.544  19.280  0.00  0.00    +0.000 C 
ATOM     22  O   UNL     1       7.522   5.384  20.073  0.00  0.00    +0.000 OA
ATOM     23  N   UNL     1       5.385   4.931  19.392  0.00  0.00    +0.000 N 
ATOM     24  C   UNL     1       4.501   5.258  18.299  0.00  0.00    +0.000 C 
ATOM     25  C   UNL     1       3.280   6.048  18.773  0.00  0.00    +0.000 C 
ATOM     26  C   UNL     1       2.132   5.519  17.925  0.00  0.00    +0.000 C 
ATOM     27  C   UNL     1       2.470   4.050  17.737  0.00  0.00    +0.000 C 
ATOM     28  C   UNL     1       3.982   4.036  17.534  0.00  0.00    +0.000 C 
ATOM     29  C   UNL     1       5.454   6.112  17.442  0.00  0.00    +0.000 C 
ATOM     30  O   UNL     1       5.221   6.571  16.334  0.00  0.00    +0.000 OA
ATOM     31  H   UNL     1       5.171   4.336  20.184  0.00  0.00    +0.000 HD
ENDBRANCH  19  20
ENDBRANCH   2  19
TORSDOF 5
ENDMDL
MODEL 5
REMARK VINA RESULT:      -8.1      7.092      9.150
REMARK  Name = 
REMARK  5 active torsions:
REMARK  status: ('A' for Active; 'I' for Inactive)
REMARK    1  A    between atoms: C_2  and  C_3
REMARK    2  A    between atoms: C_3  and  N_4
REMARK    3  A    between atoms: N_15  and  C_16
REMARK    4  A    between atoms: C_20  and  S_21
REMARK    5  A    between atoms: S_21  and  N_24
REMARK                            x       y       z     vdW  Elec       q    Type
REMARK                         _______ _______ _______ _____ _____    ______ ____
ROOT
ATOM      1  O   UNL     1       2.441   9.234  17.301  0.00  0.00    +0.000 OA
ATOM      2  C   UNL     1       2.703   8.256  17.999  0.00  0.00    +0.000 C 
ATOM      3  N   UNL     1       2.255   8.045  19.304  0.00  0.00    +0.000 N 
ATOM      4  H   UNL     1       2.802   7.406  19.877  0.00  0.00    +0.000 HD
ENDROOT
BRANCH   3   5
ATOM      5  C   UNL     1       1.299   8.850  19.975  0.00  0.00    +0.000 A 
ATOM      6  C   UNL     1       1.265   8.941  21.371  0.00  0.00    +0.000 A 
ATOM      7  C   UNL     1       0.223   9.593  22.031  0.00  0.00    +0.000 A 
ATOM      8  C   UNL     1      -0.744  10.265  21.300  0.00  0.00    +0.000 A 
ATOM      9  C   UNL     1      -0.606  10.348  19.915  0.00  0.00    +0.000 A 
ATOM     10  C   UNL     1       0.371   9.596  19.236  0.00  0.00    +0.000 A 
BRANCH   9  11
ATOM     11  S   UNL     1      -1.636  11.492  19.025  0.00  0.00    +0.000 S 
ATOM     12  O   UNL     1      -2.435  12.193  20.011  0.00  0.00    +0.000 OA
ATOM     13  O   UNL     1      -0.816  12.210  18.076  0.00  0.00    +0.000 OA
BRANCH  11  14
ATOM     14  N   UNL     1      -2.675  10.468  18.125  0.00  0.00    +0.000 NA
ATOM     15  C   UNL     1      -2.206  10.038  16.781  0.00  0.00    +0.000 C 
ATOM     16  C   UNL     1      -2.900  10.975  15.809  0.00  0.00    +0.000 C 
ATOM     17  C   UNL     1      -4.261  11.196  16.438  0.00  0.00    +0.000 C 
ATOM     18  C   UNL     1      -4.056  11.008  17.938  0.00  0.00    +0.000 C 
ENDBRANCH  11  14
ENDBRANCH   9  11
ENDBRANCH   3   5
BRANCH   2  19
ATOM     19  C   UNL     1       3.650   7.178  17.478  0.00  0.00    +0.000 C 
BRANCH  19  20
ATOM     20  N   UNL     1       3.567   5.985  18.281  0.00  0.00    +0.000 N 
ATOM     21  C   UNL     1       4.616   5.412  18.942  0.00  0.00    +0.000 C 
ATOM     22  O   UNL     1       5.754   5.838  19.041  0.00  0.00    +0.000 OA
ATOM     23  N   UNL     1       4.208   4.199  19.441  0.00  0.00    +0.000 N 
ATOM     24  C   UNL     1       2.822   3.919  19.149  0.00  0.00    +0.000 C 
ATOM     25  C   UNL     1       1.978   3.848  20.423  0.00  0.00    +0.000 C 
ATOM     26  C   UNL     1       0.984   2.727  20.159  0.00  0.00    +0.000 C 
ATOM     27  C   UNL     1       1.774   1.735  19.321  0.00  0.00    +0.000 C 
ATOM     28  C   UNL     1       2.602   2.610  18.385  0.00  0.00    +0.000 C 
ATOM     29  C   UNL     1       2.484   5.152  18.290  0.00  0.00    +0.000 C 
ATOM     30  O   UNL     1       1.434   5.362  17.702  0.00  0.00    +0.000 OA
ATOM     31  H   UNL     1       4.847   3.609  19.961  0.00  0.00    +0.000 HD
ENDBRANCH  19  20
ENDBRANCH   2  19
TORSDOF 5
ENDMDL
MODEL 6
REMARK VINA RESULT:      -8.1      1.735      2.090
REMARK  Name = 
REMARK  5 active torsions:
REMARK  status: ('A' for Active; 'I' for Inactive)
REMARK    1  A    between atoms: C_2  and  C_3
REMARK    2  A    between atoms: C_3  and  N_4
REMARK    3  A    between atoms: N_15  and  C_16
REMARK    4  A    between atoms: C_20  and  S_21
REMARK    5  A    between atoms: S_21  and  N_24
REMARK                            x       y       z     vdW  Elec       q    Type
REMARK                         _______ _______ _______ _____ _____    ______ ____
ROOT
ATOM      1  O   UNL     1       7.055   7.595  17.161  0.00  0.00    +0.000 OA
ATOM      2  C   UNL     1       7.763   7.260  18.108  0.00  0.00    +0.000 C 
ATOM      3  N   UNL     1       8.640   8.094  18.802  0.00  0.00    +0.000 N 
ATOM      4  H   UNL     1       9.399   7.641  19.308  0.00  0.00    +0.000 HD
ENDROOT
BRANCH   3   5
ATOM      5  C   UNL     1       8.737   9.499  18.627  0.00  0.00    +0.000 A 
ATOM      6  C   UNL     1       7.898  10.188  17.744  0.00  0.00    +0.000 A 
ATOM      7  C   UNL     1       8.107  11.536  17.447  0.00  0.00    +0.000 A 
ATOM      8  C   UNL     1       9.091  12.246  18.117  0.00  0.00    +0.000 A 
ATOM      9  C   UNL     1       9.797  11.617  19.143  0.00  0.00    +0.000 A 
ATOM     10  C   UNL     1       9.675  10.233  19.365  0.00  0.00    +0.000 A 
BRANCH   9  11
ATOM     11  S   UNL     1      10.795  12.615  20.224  0.00  0.00    +0.000 S 
ATOM     12  O   UNL     1      10.119  12.650  21.507  0.00  0.00    +0.000 OA
ATOM     13  O   UNL     1      12.170  12.184  20.112  0.00  0.00    +0.000 OA
BRANCH  11  14
ATOM     14  N   UNL     1      10.694  14.176  19.524  0.00  0.00    +0.000 NA
ATOM     15  C   UNL     1      11.972  14.825  19.127  0.00  0.00    +0.000 C 
ATOM     16  C   UNL     1      12.302  15.766  20.270  0.00  0.00    +0.000 C 
ATOM     17  C   UNL     1      10.945  16.276  20.714  0.00  0.00    +0.000 C 
ATOM     18  C   UNL     1       9.954  15.173  20.355  0.00  0.00    +0.000 C 
ENDBRANCH  11  14
ENDBRANCH   9  11
ENDBRANCH   3   5
BRANCH   2  19
ATOM     19  C   UNL     1       7.784   5.805  18.568  0.00  0.00    +0.000 C 
BRANCH  19  20
ATOM     20  N   UNL     1       6.661   5.077  18.033  0.00  0.00    +0.000 N 
ATOM     21  C   UNL     1       6.582   4.584  16.762  0.00  0.00    +0.000 C 
ATOM     22  O   UNL     1       7.450   4.594  15.905  0.00  0.00    +0.000 OA
ATOM     23  N   UNL     1       5.306   4.121  16.551  0.00  0.00    +0.000 N 
ATOM     24  C   UNL     1       4.468   4.262  17.717  0.00  0.00    +0.000 C 
ATOM     25  C   UNL     1       4.035   2.904  18.272  0.00  0.00    +0.000 C 
ATOM     26  C   UNL     1       2.599   3.120  18.730  0.00  0.00    +0.000 C 
ATOM     27  C   UNL     1       2.044   4.109  17.719  0.00  0.00    +0.000 C 
ATOM     28  C   UNL     1       3.195   5.079  17.470  0.00  0.00    +0.000 C 
ATOM     29  C   UNL     1       5.447   4.993  18.655  0.00  0.00    +0.000 C 
ATOM     30  O   UNL     1       5.197   5.437  19.765  0.00  0.00    +0.000 OA
ATOM     31  H   UNL     1       5.039   3.720  15.660  0.00  0.00    +0.000 HD
ENDBRANCH  19  20
ENDBRANCH   2  19
TORSDOF 5
ENDMDL
MODEL 7
REMARK VINA RESULT:      -8.1      7.142     10.622
REMARK  Name = 
REMARK  5 active torsions:
REMARK  status: ('A' for Active; 'I' for Inactive)
REMARK    1  A    between atoms: C_2  and  C_3
REMARK    2  A    between atoms: C_3  and  N_4
REMARK    3  A    between atoms: N_15  and  C_16
REMARK    4  A    between atoms: C_20  and  S_21
REMARK    5  A    between atoms: S_21  and  N_24
REMARK                            x       y       z     vdW  Elec       q    Type
REMARK                         _______ _______ _______ _____ _____    ______ ____
ROOT
ATOM      1  O   UNL     1       1.814   7.989  19.579  0.00  0.00    +0.000 OA
ATOM      2  C   UNL     1       2.236   8.294  18.465  0.00  0.00    +0.000 C 
ATOM      3  N   UNL     1       3.236   7.620  17.762  0.00  0.00    +0.000 N 
ATOM      4  H   UNL     1       3.726   8.150  17.043  0.00  0.00    +0.000 HD
ENDROOT
BRANCH   3   5
ATOM      5  C   UNL     1       3.813   6.384  18.153  0.00  0.00    +0.000 A 
ATOM      6  C   UNL     1       5.037   6.326  18.828  0.00  0.00    +0.000 A 
ATOM      7  C   UNL     1       5.682   5.111  19.059  0.00  0.00    +0.000 A 
ATOM      8  C   UNL     1       5.057   3.922  18.718  0.00  0.00    +0.000 A 
ATOM      9  C   UNL     1       3.751   3.962  18.228  0.00  0.00    +0.000 A 
ATOM     10  C   UNL     1       3.143   5.184  17.883  0.00  0.00    +0.000 A 
BRANCH   9  11
ATOM     11  S   UNL     1       2.834   2.443  18.127  0.00  0.00    +0.000 S 
ATOM     12  O   UNL     1       1.814   2.634  17.114  0.00  0.00    +0.000 OA
ATOM     13  O   UNL     1       3.769   1.343  18.051  0.00  0.00    +0.000 OA
BRANCH  11  14
ATOM     14  N   UNL     1       2.060   2.347  19.653  0.00  0.00    +0.000 NA
ATOM     15  C   UNL     1       0.750   3.037  19.794  0.00  0.00    +0.000 C 
ATOM     16  C   UNL     1       1.078   4.360  20.460  0.00  0.00    +0.000 C 
ATOM     17  C   UNL     1       2.201   4.009  21.415  0.00  0.00    +0.000 C 
ATOM     18  C   UNL     1       2.904   2.804  20.798  0.00  0.00    +0.000 C 
ENDBRANCH  11  14
ENDBRANCH   9  11
ENDBRANCH   3   5
BRANCH   2  19
ATOM     19  C   UNL     1       1.712   9.546  17.767  0.00  0.00    +0.000 C 
BRANCH  19  20
ATOM     20  N   UNL     1       0.642  10.149  18.520  0.00  0.00    +0.000 N 
ATOM     21  C   UNL     1      -0.682  10.082  18.190  0.00  0.00    +0.000 C 
ATOM     22  O   UNL     1      -1.189   9.452  17.277  0.00  0.00    +0.000 OA
ATOM     23  N   UNL     1      -1.383  10.921  19.021  0.00  0.00    +0.000 N 
ATOM     24  C   UNL     1      -0.535  11.575  19.988  0.00  0.00    +0.000 C 
ATOM     25  C   UNL     1      -0.870  11.147  21.418  0.00  0.00    +0.000 C 
ATOM     26  C   UNL     1      -0.705  12.415  22.244  0.00  0.00    +0.000 C 
ATOM     27  C   UNL     1      -1.161  13.519  21.304  0.00  0.00    +0.000 C 
ATOM     28  C   UNL     1      -0.610  13.105  19.943  0.00  0.00    +0.000 C 
ATOM     29  C   UNL     1       0.838  11.052  19.526  0.00  0.00    +0.000 C 
ATOM     30  O   UNL     1       1.929  11.384  19.966  0.00  0.00    +0.000 OA
ATOM     31  H   UNL     1      -2.387  11.021  18.932  0.00  0.00    +0.000 HD
ENDBRANCH  19  20
ENDBRANCH   2  19
TORSDOF 5
ENDMDL
MODEL 8
REMARK VINA RESULT:      -8.1      6.968      8.511
REMARK  Name = 
REMARK  5 active torsions:
REMARK  status: ('A' for Active; 'I' for Inactive)
REMARK    1  A    between atoms: C_2  and  C_3
REMARK    2  A    between atoms: C_3  and  N_4
REMARK    3  A    between atoms: N_15  and  C_16
REMARK    4  A    between atoms: C_20  and  S_21
REMARK    5  A    between atoms: S_21  and  N_24
REMARK                            x       y       z     vdW  Elec       q    Type
REMARK                         _______ _______ _______ _____ _____    ______ ____
ROOT
ATOM      1  O   UNL     1       1.661   4.902  20.172  0.00  0.00    +0.000 OA
ATOM      2  C   UNL     1       2.768   5.138  19.692  0.00  0.00    +0.000 C 
ATOM      3  N   UNL     1       3.144   6.326  19.063  0.00  0.00    +0.000 N 
ATOM      4  H   UNL     1       3.933   6.273  18.420  0.00  0.00    +0.000 HD
ENDROOT
BRANCH   3   5
ATOM      5  C   UNL     1       2.359   7.506  19.017  0.00  0.00    +0.000 A 
ATOM      6  C   UNL     1       2.056   8.141  17.807  0.00  0.00    +0.000 A 
ATOM      7  C   UNL     1       1.432   9.389  17.778  0.00  0.00    +0.000 A 
ATOM      8  C   UNL     1       0.996   9.970  18.958  0.00  0.00    +0.000 A 
ATOM      9  C   UNL     1       1.114   9.252  20.148  0.00  0.00    +0.000 A 
ATOM     10  C   UNL     1       1.847   8.052  20.201  0.00  0.00    +0.000 A 
BRANCH   9  11
ATOM     11  S   UNL     1       0.248   9.839  21.585  0.00  0.00    +0.000 S 
ATOM     12  O   UNL     1      -0.919   8.994  21.747  0.00  0.00    +0.000 OA
ATOM     13  O   UNL     1       1.200  10.017  22.658  0.00  0.00    +0.000 OA
BRANCH  11  14
ATOM     14  N   UNL     1      -0.283  11.400  21.115  0.00  0.00    +0.000 NA
ATOM     15  C   UNL     1      -0.022  12.518  22.060  0.00  0.00    +0.000 C 
ATOM     16  C   UNL     1      -1.328  12.707  22.809  0.00  0.00    +0.000 C 
ATOM     17  C   UNL     1      -2.385  12.429  21.758  0.00  0.00    +0.000 C 
ATOM     18  C   UNL     1      -1.734  11.473  20.764  0.00  0.00    +0.000 C 
ENDBRANCH  11  14
ENDBRANCH   9  11
ENDBRANCH   3   5
BRANCH   2  19
ATOM     19  C   UNL     1       3.845   4.057  19.690  0.00  0.00    +0.000 C 
BRANCH  19  20
ATOM     20  N   UNL     1       4.805   4.286  18.640  0.00  0.00    +0.000 N 
ATOM     21  C   UNL     1       6.045   4.830  18.819  0.00  0.00    +0.000 C 
ATOM     22  O   UNL     1       6.580   5.131  19.872  0.00  0.00    +0.000 OA
ATOM     23  N   UNL     1       6.600   5.069  17.585  0.00  0.00    +0.000 N 
ATOM     24  C   UNL     1       5.740   4.653  16.503  0.00  0.00    +0.000 C 
ATOM     25  C   UNL     1       6.357   3.509  15.696  0.00  0.00    +0.000 C 
ATOM     26  C   UNL     1       5.969   3.808  14.255  0.00  0.00    +0.000 C 
ATOM     27  C   UNL     1       5.993   5.325  14.183  0.00  0.00    +0.000 C 
ATOM     28  C   UNL     1       5.400   5.774  15.515  0.00  0.00    +0.000 C 
ATOM     29  C   UNL     1       4.507   4.202  17.309  0.00  0.00    +0.000 C 
ATOM     30  O   UNL     1       3.434   3.839  16.854  0.00  0.00    +0.000 OA
ATOM     31  H   UNL     1       7.521   5.481  17.500  0.00  0.00    +0.000 HD
ENDBRANCH  19  20
ENDBRANCH   2  19
TORSDOF 5
ENDMDL
MODEL 9
REMARK VINA RESULT:      -8.0      6.854      8.617
REMARK  Name = 
REMARK  5 active torsions:
REMARK  status: ('A' for Active; 'I' for Inactive)
REMARK    1  A    between atoms: C_2  and  C_3
REMARK    2  A    between atoms: C_3  and  N_4
REMARK    3  A    between atoms: N_15  and  C_16
REMARK    4  A    between atoms: C_20  and  S_21
REMARK    5  A    between atoms: S_21  and  N_24
REMARK                            x       y       z     vdW  Elec       q    Type
REMARK                         _______ _______ _______ _____ _____    ______ ____
ROOT
ATOM      1  O   UNL     1       0.701   5.040  20.558  0.00  0.00    +0.000 OA
ATOM      2  C   UNL     1       1.864   5.404  20.392  0.00  0.00    +0.000 C 
ATOM      3  N   UNL     1       2.301   6.728  20.340  0.00  0.00    +0.000 N 
ATOM      4  H   UNL     1       3.184   6.900  19.863  0.00  0.00    +0.000 HD
ENDROOT
BRANCH   3   5
ATOM      5  C   UNL     1       1.498   7.862  20.628  0.00  0.00    +0.000 A 
ATOM      6  C   UNL     1       0.718   7.935  21.788  0.00  0.00    +0.000 A 
ATOM      7  C   UNL     1      -0.196   8.970  21.984  0.00  0.00    +0.000 A 
ATOM      8  C   UNL     1      -0.265  10.013  21.074  0.00  0.00    +0.000 A 
ATOM      9  C   UNL     1       0.649  10.050  20.020  0.00  0.00    +0.000 A 
ATOM     10  C   UNL     1       1.490   8.954  19.751  0.00  0.00    +0.000 A 
BRANCH   9  11
ATOM     11  S   UNL     1       0.791  11.546  19.071  0.00  0.00    +0.000 S 
ATOM     12  O   UNL     1       0.415  12.638  19.948  0.00  0.00    +0.000 OA
ATOM     13  O   UNL     1       2.064  11.539  18.387  0.00  0.00    +0.000 OA
BRANCH  11  14
ATOM     14  N   UNL     1      -0.427  11.374  17.878  0.00  0.00    +0.000 NA
ATOM     15  C   UNL     1      -1.621  12.253  17.996  0.00  0.00    +0.000 C 
ATOM     16  C   UNL     1      -2.675  11.389  18.664  0.00  0.00    +0.000 C 
ATOM     17  C   UNL     1      -2.424  10.011  18.085  0.00  0.00    +0.000 C 
ATOM     18  C   UNL     1      -0.942   9.980  17.725  0.00  0.00    +0.000 C 
ENDBRANCH  11  14
ENDBRANCH   9  11
ENDBRANCH   3   5
BRANCH   2  19
ATOM     19  C   UNL     1       2.959   4.370  20.145  0.00  0.00    +0.000 C 
BRANCH  19  20
ATOM     20  N   UNL     1       3.461   4.461  18.798  0.00  0.00    +0.000 N 
ATOM     21  C   UNL     1       2.859   3.917  17.700  0.00  0.00    +0.000 C 
ATOM     22  O   UNL     1       1.781   3.349  17.648  0.00  0.00    +0.000 OA
ATOM     23  N   UNL     1       3.710   4.040  16.628  0.00  0.00    +0.000 N 
ATOM     24  C   UNL     1       4.936   4.718  16.972  0.00  0.00    +0.000 C 
ATOM     25  C   UNL     1       5.071   6.054  16.238  0.00  0.00    +0.000 C 
ATOM     26  C   UNL     1       6.551   6.155  15.900  0.00  0.00    +0.000 C 
ATOM     27  C   UNL     1       6.956   4.717  15.623  0.00  0.00    +0.000 C 
ATOM     28  C   UNL     1       6.200   3.905  16.670  0.00  0.00    +0.000 C 
ATOM     29  C   UNL     1       4.717   4.901  18.486  0.00  0.00    +0.000 C 
ATOM     30  O   UNL     1       5.520   5.352  19.288  0.00  0.00    +0.000 OA
ATOM     31  H   UNL     1       3.450   3.688  15.715  0.00  0.00    +0.000 HD
ENDBRANCH  19  20
ENDBRANCH   2  19
TORSDOF 5
ENDMDL
