MODEL 1
REMARK VINA RESULT:      -9.0      0.000      0.000
REMARK  Name = 
REMARK  4 active torsions:
REMARK  status: ('A' for Active; 'I' for Inactive)
REMARK    1  A    between atoms: C_2  and  C_14
REMARK    2  A    between atoms: N_3  and  C_4
REMARK    3  A    between atoms: C_18  and  N_19
REMARK    4  A    between atoms: C_20  and  C_22
REMARK                            x       y       z     vdW  Elec       q    Type
REMARK                         _______ _______ _______ _____ _____    ______ ____
ROOT
ATOM      1  O   UNL     1       8.363   6.899  19.039  0.00  0.00    +0.000 OA
ATOM      2  C   UNL     1       7.738   7.256  18.049  0.00  0.00    +0.000 C 
ATOM      3  N   UNL     1       7.642   8.547  17.541  0.00  0.00    +0.000 N 
ATOM      4  H   UNL     1       6.917   8.716  16.854  0.00  0.00    +0.000 HD
ENDROOT
BRANCH   3   5
ATOM      5  C   UNL     1       8.327   9.688  18.015  0.00  0.00    +0.000 A 
ATOM      6  C   UNL     1       9.193   9.639  19.133  0.00  0.00    +0.000 A 
ATOM      7  C   UNL     1       9.825  10.786  19.627  0.00  0.00    +0.000 A 
ATOM      8  C   UNL     1       9.566  11.962  18.972  0.00  0.00    +0.000 A 
ATOM      9  N   UNL     1      10.012  13.247  19.250  0.00  0.00    +0.000 N 
ATOM     10  C   UNL     1       9.464  14.129  18.308  0.00  0.00    +0.000 A 
ATOM     11  O   UNL     1       9.626  15.334  18.258  0.00  0.00    +0.000 OA
ATOM     12  N   UNL     1       8.683  13.350  17.439  0.00  0.00    +0.000 N 
ATOM     13  C   UNL     1       8.742  12.021  17.852  0.00  0.00    +0.000 A 
ATOM     14  C   UNL     1       8.120  10.903  17.338  0.00  0.00    +0.000 A 
ATOM     15  H   UNL     1      10.608  13.534  20.009  0.00  0.00    +0.000 HD
ATOM     16  H   UNL     1       8.159  13.736  16.671  0.00  0.00    +0.000 HD
ENDBRANCH   3   5
BRANCH   2  17
ATOM     17  C   UNL     1       6.932   6.239  17.324  0.00  0.00    +0.000 A 
ATOM     18  C   UNL     1       7.235   5.923  15.996  0.00  0.00    +0.000 A 
ATOM     19  C   UNL     1       6.456   4.996  15.321  0.00  0.00    +0.000 A 
ATOM     20  C   UNL     1       5.397   4.366  15.976  0.00  0.00    +0.000 A 
ATOM     21  C   UNL     1       5.105   4.623  17.322  0.00  0.00    +0.000 A 
ATOM     22  C   UNL     1       5.885   5.573  17.995  0.00  0.00    +0.000 A 
BRANCH  21  23
ATOM     23  N   UNL     1       4.067   3.958  18.024  0.00  0.00    +0.000 N 
ATOM     24  C   UNL     1       4.218   3.173  19.157  0.00  0.00    +0.000 C 
ATOM     25  O   UNL     1       5.282   2.944  19.735  0.00  0.00    +0.000 OA
ATOM     26  H   UNL     1       3.117   4.044  17.670  0.00  0.00    +0.000 HD
BRANCH  24  27
ATOM     27  C   UNL     1       2.906   2.628  19.741  0.00  0.00    +0.000 C 
ATOM     28  C   UNL     1       1.752   3.536  19.334  0.00  0.00    +0.000 C 
ATOM     29  C   UNL     1       0.716   3.236  20.379  0.00  0.00    +0.000 C 
ATOM     30  C   UNL     1       1.566   2.984  21.607  0.00  0.00    +0.000 C 
ATOM     31  O   UNL     1       2.852   2.512  21.165  0.00  0.00    +0.000 OA
ENDBRANCH  24  27
ENDBRANCH  21  23
ENDBRANCH   2  17
TORSDOF 4
ENDMDL
MODEL 2
REMARK VINA RESULT:      -8.7      1.257      1.396
REMARK  Name = 
REMARK  4 active torsions:
REMARK  status: ('A' for Active; 'I' for Inactive)
REMARK    1  A    between atoms: C_2  and  C_14
REMARK    2  A    between atoms: N_3  and  C_4
REMARK    3  A    between atoms: C_18  and  N_19
REMARK    4  A    between atoms: C_20  and  C_22
REMARK                            x       y       z     vdW  Elec       q    Type
REMARK                         _______ _______ _______ _____ _____    ______ ____
ROOT
ATOM      1  O   UNL     1       8.541   6.986  18.971  0.00  0.00    +0.000 OA
ATOM      2  C   UNL     1       7.792   7.394  18.092  0.00  0.00    +0.000 C 
ATOM      3  N   UNL     1       7.628   8.712  17.679  0.00  0.00    +0.000 N 
ATOM      4  H   UNL     1       6.820   8.913  17.102  0.00  0.00    +0.000 HD
ENDROOT
BRANCH   3   5
ATOM      5  C   UNL     1       8.364   9.830  18.130  0.00  0.00    +0.000 A 
ATOM      6  C   UNL     1       9.195   9.776  19.274  0.00  0.00    +0.000 A 
ATOM      7  C   UNL     1       9.878  10.905  19.742  0.00  0.00    +0.000 A 
ATOM      8  C   UNL     1       9.705  12.066  19.036  0.00  0.00    +0.000 A 
ATOM      9  N   UNL     1      10.217  13.335  19.278  0.00  0.00    +0.000 N 
ATOM     10  C   UNL     1       9.745  14.208  18.288  0.00  0.00    +0.000 A 
ATOM     11  O   UNL     1       9.977  15.399  18.197  0.00  0.00    +0.000 OA
ATOM     12  N   UNL     1       8.945  13.441  17.426  0.00  0.00    +0.000 N 
ATOM     13  C   UNL     1       8.917  12.128  17.890  0.00  0.00    +0.000 A 
ATOM     14  C   UNL     1       8.246  11.027  17.401  0.00  0.00    +0.000 A 
ATOM     15  H   UNL     1      10.807  13.618  20.043  0.00  0.00    +0.000 HD
ATOM     16  H   UNL     1       8.465  13.825  16.629  0.00  0.00    +0.000 HD
ENDBRANCH   3   5
BRANCH   2  17
ATOM     17  C   UNL     1       6.904   6.412  17.416  0.00  0.00    +0.000 A 
ATOM     18  C   UNL     1       7.205   5.971  16.124  0.00  0.00    +0.000 A 
ATOM     19  C   UNL     1       6.351   5.079  15.493  0.00  0.00    +0.000 A 
ATOM     20  C   UNL     1       5.217   4.610  16.157  0.00  0.00    +0.000 A 
ATOM     21  C   UNL     1       4.921   4.994  17.472  0.00  0.00    +0.000 A 
ATOM     22  C   UNL     1       5.778   5.907  18.100  0.00  0.00    +0.000 A 
BRANCH  21  23
ATOM     23  N   UNL     1       3.803   4.491  18.186  0.00  0.00    +0.000 N 
ATOM     24  C   UNL     1       2.620   5.168  18.436  0.00  0.00    +0.000 C 
ATOM     25  O   UNL     1       2.354   6.312  18.061  0.00  0.00    +0.000 OA
ATOM     26  H   UNL     1       3.863   3.551  18.570  0.00  0.00    +0.000 HD
BRANCH  24  27
ATOM     27  C   UNL     1       1.556   4.350  19.182  0.00  0.00    +0.000 C 
ATOM     28  C   UNL     1       1.983   4.164  20.633  0.00  0.00    +0.000 C 
ATOM     29  C   UNL     1       1.205   2.949  21.049  0.00  0.00    +0.000 C 
ATOM     30  C   UNL     1       1.181   2.133  19.773  0.00  0.00    +0.000 C 
ATOM     31  O   UNL     1       1.288   3.045  18.664  0.00  0.00    +0.000 OA
ENDBRANCH  24  27
ENDBRANCH  21  23
ENDBRANCH   2  17
TORSDOF 4
ENDMDL
MODEL 3
REMARK VINA RESULT:      -8.7      7.376      9.409
REMARK  Name = 
REMARK  4 active torsions:
REMARK  status: ('A' for Active; 'I' for Inactive)
REMARK    1  A    between atoms: C_2  and  C_14
REMARK    2  A    between atoms: N_3  and  C_4
REMARK    3  A    between atoms: C_18  and  N_19
REMARK    4  A    between atoms: C_20  and  C_22
REMARK                            x       y       z     vdW  Elec       q    Type
REMARK                         _______ _______ _______ _____ _____    ______ ____
ROOT
ATOM      1  O   UNL     1       1.485   8.433  20.133  0.00  0.00    +0.000 OA
ATOM      2  C   UNL     1       1.520   8.961  19.029  0.00  0.00    +0.000 C 
ATOM      3  N   UNL     1       2.253   8.542  17.924  0.00  0.00    +0.000 N 
ATOM      4  H   UNL     1       2.349   9.202  17.161  0.00  0.00    +0.000 HD
ENDROOT
BRANCH   3   5
ATOM      5  C   UNL     1       3.029   7.366  17.830  0.00  0.00    +0.000 A 
ATOM      6  C   UNL     1       2.514   6.091  18.164  0.00  0.00    +0.000 A 
ATOM      7  C   UNL     1       3.308   4.940  18.118  0.00  0.00    +0.000 A 
ATOM      8  C   UNL     1       4.612   5.106  17.729  0.00  0.00    +0.000 A 
ATOM      9  N   UNL     1       5.633   4.169  17.626  0.00  0.00    +0.000 N 
ATOM     10  C   UNL     1       6.801   4.819  17.204  0.00  0.00    +0.000 A 
ATOM     11  O   UNL     1       7.892   4.311  17.025  0.00  0.00    +0.000 OA
ATOM     12  N   UNL     1       6.467   6.173  17.038  0.00  0.00    +0.000 N 
ATOM     13  C   UNL     1       5.125   6.348  17.367  0.00  0.00    +0.000 A 
ATOM     14  C   UNL     1       4.359   7.494  17.390  0.00  0.00    +0.000 A 
ATOM     15  H   UNL     1       5.580   3.186  17.838  0.00  0.00    +0.000 HD
ATOM     16  H   UNL     1       7.131   6.874  16.752  0.00  0.00    +0.000 HD
ENDBRANCH   3   5
BRANCH   2  17
ATOM     17  C   UNL     1       0.760  10.224  18.832  0.00  0.00    +0.000 A 
ATOM     18  C   UNL     1       1.434  11.448  18.802  0.00  0.00    +0.000 A 
ATOM     19  C   UNL     1       0.711  12.621  18.650  0.00  0.00    +0.000 A 
ATOM     20  C   UNL     1      -0.677  12.571  18.501  0.00  0.00    +0.000 A 
ATOM     21  C   UNL     1      -1.371  11.353  18.472  0.00  0.00    +0.000 A 
ATOM     22  C   UNL     1      -0.637  10.173  18.642  0.00  0.00    +0.000 A 
BRANCH  21  23
ATOM     23  N   UNL     1      -2.773  11.274  18.269  0.00  0.00    +0.000 N 
ATOM     24  C   UNL     1      -3.419  11.185  17.046  0.00  0.00    +0.000 C 
ATOM     25  O   UNL     1      -2.868  11.149  15.944  0.00  0.00    +0.000 OA
ATOM     26  H   UNL     1      -3.378  11.295  19.087  0.00  0.00    +0.000 HD
BRANCH  24  27
ATOM     27  C   UNL     1      -4.946  11.048  17.133  0.00  0.00    +0.000 C 
ATOM     28  C   UNL     1      -5.581  12.433  17.131  0.00  0.00    +0.000 C 
ATOM     29  C   UNL     1      -6.919  12.180  17.765  0.00  0.00    +0.000 C 
ATOM     30  C   UNL     1      -6.594  11.097  18.773  0.00  0.00    +0.000 C 
ATOM     31  O   UNL     1      -5.452  10.369  18.285  0.00  0.00    +0.000 OA
ENDBRANCH  24  27
ENDBRANCH  21  23
ENDBRANCH   2  17
TORSDOF 4
ENDMDL
MODEL 4
REMARK VINA RESULT:      -8.7      5.407      7.711
REMARK  Name = 
REMARK  4 active torsions:
REMARK  status: ('A' for Active; 'I' for Inactive)
REMARK    1  A    between atoms: C_2  and  C_14
REMARK    2  A    between atoms: N_3  and  C_4
REMARK    3  A    between atoms: C_18  and  N_19
REMARK    4  A    between atoms: C_20  and  C_22
REMARK                            x       y       z     vdW  Elec       q    Type
REMARK                         _______ _______ _______ _____ _____    ______ ____
ROOT
ATOM      1  O   UNL     1       2.602   5.148  18.392  0.00  0.00    +0.000 OA
ATOM      2  C   UNL     1       3.500   5.937  18.123  0.00  0.00    +0.000 C 
ATOM      3  N   UNL     1       3.450   7.323  18.213  0.00  0.00    +0.000 N 
ATOM      4  H   UNL     1       4.188   7.839  17.748  0.00  0.00    +0.000 HD
ENDROOT
BRANCH   3   5
ATOM      5  C   UNL     1       2.382   8.092  18.726  0.00  0.00    +0.000 A 
ATOM      6  C   UNL     1       1.973   8.010  20.078  0.00  0.00    +0.000 A 
ATOM      7  C   UNL     1       0.879   8.737  20.562  0.00  0.00    +0.000 A 
ATOM      8  C   UNL     1       0.224   9.537  19.662  0.00  0.00    +0.000 A 
ATOM      9  N   UNL     1      -0.900  10.334  19.839  0.00  0.00    +0.000 N 
ATOM     10  C   UNL     1      -1.211  10.953  18.621  0.00  0.00    +0.000 A 
ATOM     11  O   UNL     1      -2.142  11.706  18.403  0.00  0.00    +0.000 OA
ATOM     12  N   UNL     1      -0.242  10.527  17.697  0.00  0.00    +0.000 N 
ATOM     13  C   UNL     1       0.634   9.653  18.337  0.00  0.00    +0.000 A 
ATOM     14  C   UNL     1       1.716   8.959  17.840  0.00  0.00    +0.000 A 
ATOM     15  H   UNL     1      -1.439  10.448  20.682  0.00  0.00    +0.000 HD
ATOM     16  H   UNL     1      -0.236  10.811  16.732  0.00  0.00    +0.000 HD
ENDBRANCH   3   5
BRANCH   2  17
ATOM     17  C   UNL     1       4.771   5.391  17.577  0.00  0.00    +0.000 A 
ATOM     18  C   UNL     1       5.911   5.335  18.384  0.00  0.00    +0.000 A 
ATOM     19  C   UNL     1       7.099   4.854  17.855  0.00  0.00    +0.000 A 
ATOM     20  C   UNL     1       7.142   4.406  16.533  0.00  0.00    +0.000 A 
ATOM     21  C   UNL     1       6.001   4.401  15.719  0.00  0.00    +0.000 A 
ATOM     22  C   UNL     1       4.808   4.903  16.254  0.00  0.00    +0.000 A 
BRANCH  21  23
ATOM     23  N   UNL     1       6.008   3.903  14.390  0.00  0.00    +0.000 N 
ATOM     24  C   UNL     1       6.736   4.417  13.328  0.00  0.00    +0.000 C 
ATOM     25  O   UNL     1       7.500   5.382  13.382  0.00  0.00    +0.000 OA
ATOM     26  H   UNL     1       5.420   3.102  14.176  0.00  0.00    +0.000 HD
BRANCH  24  27
ATOM     27  C   UNL     1       6.596   3.634  12.015  0.00  0.00    +0.000 C 
ATOM     28  C   UNL     1       5.313   2.813  12.046  0.00  0.00    +0.000 C 
ATOM     29  C   UNL     1       5.588   1.738  11.034  0.00  0.00    +0.000 C 
ATOM     30  C   UNL     1       7.074   1.504  11.213  0.00  0.00    +0.000 C 
ATOM     31  O   UNL     1       7.656   2.724  11.709  0.00  0.00    +0.000 OA
ENDBRANCH  24  27
ENDBRANCH  21  23
ENDBRANCH   2  17
TORSDOF 4
ENDMDL
MODEL 5
REMARK VINA RESULT:      -8.6      7.390     10.022
REMARK  Name = 
REMARK  4 active torsions:
REMARK  status: ('A' for Active; 'I' for Inactive)
REMARK    1  A    between atoms: C_2  and  C_14
REMARK    2  A    between atoms: N_3  and  C_4
REMARK    3  A    between atoms: C_18  and  N_19
REMARK    4  A    between atoms: C_20  and  C_22
REMARK                            x       y       z     vdW  Elec       q    Type
REMARK                         _______ _______ _______ _____ _____    ______ ____
ROOT
ATOM      1  O   UNL     1       1.482   8.492  20.214  0.00  0.00    +0.000 OA
ATOM      2  C   UNL     1       1.450   8.952  19.080  0.00  0.00    +0.000 C 
ATOM      3  N   UNL     1       2.095   8.450  17.956  0.00  0.00    +0.000 N 
ATOM      4  H   UNL     1       2.151   9.060  17.149  0.00  0.00    +0.000 HD
ENDROOT
BRANCH   3   5
ATOM      5  C   UNL     1       2.840   7.252  17.882  0.00  0.00    +0.000 A 
ATOM      6  C   UNL     1       4.182   7.222  17.434  0.00  0.00    +0.000 A 
ATOM      7  C   UNL     1       4.893   6.023  17.314  0.00  0.00    +0.000 A 
ATOM      8  C   UNL     1       4.227   4.875  17.656  0.00  0.00    +0.000 A 
ATOM      9  N   UNL     1       4.653   3.554  17.605  0.00  0.00    +0.000 N 
ATOM     10  C   UNL     1       3.610   2.726  18.040  0.00  0.00    +0.000 A 
ATOM     11  O   UNL     1       3.625   1.511  18.110  0.00  0.00    +0.000 OA
ATOM     12  N   UNL     1       2.538   3.572  18.371  0.00  0.00    +0.000 N 
ATOM     13  C   UNL     1       2.917   4.890  18.128  0.00  0.00    +0.000 A 
ATOM     14  C   UNL     1       2.201   6.059  18.269  0.00  0.00    +0.000 A 
ATOM     15  H   UNL     1       5.547   3.215  17.289  0.00  0.00    +0.000 HD
ATOM     16  H   UNL     1       1.649   3.235  18.700  0.00  0.00    +0.000 HD
ENDBRANCH   3   5
BRANCH   2  17
ATOM     17  C   UNL     1       0.703  10.218  18.858  0.00  0.00    +0.000 A 
ATOM     18  C   UNL     1       1.391  11.434  18.795  0.00  0.00    +0.000 A 
ATOM     19  C   UNL     1       0.681  12.611  18.619  0.00  0.00    +0.000 A 
ATOM     20  C   UNL     1      -0.708  12.574  18.480  0.00  0.00    +0.000 A 
ATOM     21  C   UNL     1      -1.417  11.364  18.486  0.00  0.00    +0.000 A 
ATOM     22  C   UNL     1      -0.695  10.179  18.679  0.00  0.00    +0.000 A 
BRANCH  21  23
ATOM     23  N   UNL     1      -2.821  11.296  18.294  0.00  0.00    +0.000 N 
ATOM     24  C   UNL     1      -3.478  11.217  17.076  0.00  0.00    +0.000 C 
ATOM     25  O   UNL     1      -2.936  11.180  15.969  0.00  0.00    +0.000 OA
ATOM     26  H   UNL     1      -3.419  11.320  19.117  0.00  0.00    +0.000 HD
BRANCH  24  27
ATOM     27  C   UNL     1      -5.005  11.092  17.176  0.00  0.00    +0.000 C 
ATOM     28  C   UNL     1      -5.634  12.478  17.108  0.00  0.00    +0.000 C 
ATOM     29  C   UNL     1      -6.970  12.263  17.758  0.00  0.00    +0.000 C 
ATOM     30  C   UNL     1      -6.646  11.229  18.817  0.00  0.00    +0.000 C 
ATOM     31  O   UNL     1      -5.509  10.472  18.361  0.00  0.00    +0.000 OA
ENDBRANCH  24  27
ENDBRANCH  21  23
ENDBRANCH   2  17
TORSDOF 4
ENDMDL
MODEL 6
REMARK VINA RESULT:      -8.5      5.484      7.773
REMARK  Name = 
REMARK  4 active torsions:
REMARK  status: ('A' for Active; 'I' for Inactive)
REMARK    1  A    between atoms: C_2  and  C_14
REMARK    2  A    between atoms: N_3  and  C_4
REMARK    3  A    between atoms: C_18  and  N_19
REMARK    4  A    between atoms: C_20  and  C_22
REMARK                            x       y       z     vdW  Elec       q    Type
REMARK                         _______ _______ _______ _____ _____    ______ ____
ROOT
ATOM      1  O   UNL     1       2.246   5.279  18.770  0.00  0.00    +0.000 OA
ATOM      2  C   UNL     1       3.152   6.035  18.446  0.00  0.00    +0.000 C 
ATOM      3  N   UNL     1       3.138   7.425  18.492  0.00  0.00    +0.000 N 
ATOM      4  H   UNL     1       3.872   7.907  17.987  0.00  0.00    +0.000 HD
ENDROOT
BRANCH   3   5
ATOM      5  C   UNL     1       2.106   8.236  19.013  0.00  0.00    +0.000 A 
ATOM      6  C   UNL     1       1.382   9.147  18.209  0.00  0.00    +0.000 A 
ATOM      7  C   UNL     1       0.397   9.984  18.747  0.00  0.00    +0.000 A 
ATOM      8  C   UNL     1       0.165   9.876  20.093  0.00  0.00    +0.000 A 
ATOM      9  N   UNL     1      -0.710  10.589  20.901  0.00  0.00    +0.000 N 
ATOM     10  C   UNL     1      -0.580  10.133  22.220  0.00  0.00    +0.000 A 
ATOM     11  O   UNL     1      -1.180  10.545  23.196  0.00  0.00    +0.000 OA
ATOM     12  N   UNL     1       0.386   9.114  22.197  0.00  0.00    +0.000 N 
ATOM     13  C   UNL     1       0.846   8.961  20.891  0.00  0.00    +0.000 A 
ATOM     14  C   UNL     1       1.809   8.117  20.383  0.00  0.00    +0.000 A 
ATOM     15  H   UNL     1      -1.328  11.334  20.622  0.00  0.00    +0.000 HD
ATOM     16  H   UNL     1       0.686   8.619  23.020  0.00  0.00    +0.000 HD
ENDBRANCH   3   5
BRANCH   2  17
ATOM     17  C   UNL     1       4.392   5.442  17.878  0.00  0.00    +0.000 A 
ATOM     18  C   UNL     1       5.518   5.268  18.687  0.00  0.00    +0.000 A 
ATOM     19  C   UNL     1       6.678   4.743  18.138  0.00  0.00    +0.000 A 
ATOM     20  C   UNL     1       6.705   4.368  16.794  0.00  0.00    +0.000 A 
ATOM     21  C   UNL     1       5.574   4.481  15.974  0.00  0.00    +0.000 A 
ATOM     22  C   UNL     1       4.410   5.027  16.530  0.00  0.00    +0.000 A 
BRANCH  21  23
ATOM     23  N   UNL     1       5.562   4.059  14.619  0.00  0.00    +0.000 N 
ATOM     24  C   UNL     1       6.452   4.453  13.632  0.00  0.00    +0.000 C 
ATOM     25  O   UNL     1       7.400   5.225  13.787  0.00  0.00    +0.000 OA
ATOM     26  H   UNL     1       4.831   3.416  14.324  0.00  0.00    +0.000 HD
BRANCH  24  27
ATOM     27  C   UNL     1       6.235   3.785  12.267  0.00  0.00    +0.000 C 
ATOM     28  C   UNL     1       4.746   3.548  12.047  0.00  0.00    +0.000 C 
ATOM     29  C   UNL     1       4.737   2.447  11.026  0.00  0.00    +0.000 C 
ATOM     30  C   UNL     1       5.956   1.638  11.419  0.00  0.00    +0.000 C 
ATOM     31  O   UNL     1       6.881   2.524  12.074  0.00  0.00    +0.000 OA
ENDBRANCH  24  27
ENDBRANCH  21  23
ENDBRANCH   2  17
TORSDOF 4
ENDMDL
MODEL 7
REMARK VINA RESULT:      -8.5      3.678      9.144
REMARK  Name = 
REMARK  4 active torsions:
REMARK  status: ('A' for Active; 'I' for Inactive)
REMARK    1  A    between atoms: C_2  and  C_14
REMARK    2  A    between atoms: N_3  and  C_4
REMARK    3  A    between atoms: C_18  and  N_19
REMARK    4  A    between atoms: C_20  and  C_22
REMARK                            x       y       z     vdW  Elec       q    Type
REMARK                         _______ _______ _______ _____ _____    ______ ____
ROOT
ATOM      1  O   UNL     1       8.019   9.970  17.545  0.00  0.00    +0.000 OA
ATOM      2  C   UNL     1       8.677   9.563  18.493  0.00  0.00    +0.000 C 
ATOM      3  N   UNL     1       8.715   8.265  18.989  0.00  0.00    +0.000 N 
ATOM      4  H   UNL     1       9.131   8.135  19.903  0.00  0.00    +0.000 HD
ENDROOT
BRANCH   3   5
ATOM      5  C   UNL     1       8.070   7.137  18.434  0.00  0.00    +0.000 A 
ATOM      6  C   UNL     1       8.022   5.889  19.101  0.00  0.00    +0.000 A 
ATOM      7  C   UNL     1       7.427   4.765  18.519  0.00  0.00    +0.000 A 
ATOM      8  C   UNL     1       6.889   4.930  17.269  0.00  0.00    +0.000 A 
ATOM      9  N   UNL     1       6.275   4.001  16.439  0.00  0.00    +0.000 N 
ATOM     10  C   UNL     1       5.902   4.638  15.247  0.00  0.00    +0.000 A 
ATOM     11  O   UNL     1       5.356   4.125  14.288  0.00  0.00    +0.000 OA
ATOM     12  N   UNL     1       6.288   5.982  15.374  0.00  0.00    +0.000 N 
ATOM     13  C   UNL     1       6.899   6.158  16.614  0.00  0.00    +0.000 A 
ATOM     14  C   UNL     1       7.466   7.283  17.172  0.00  0.00    +0.000 A 
ATOM     15  H   UNL     1       6.133   3.021  16.622  0.00  0.00    +0.000 HD
ATOM     16  H   UNL     1       6.151   6.667  14.650  0.00  0.00    +0.000 HD
ENDBRANCH   3   5
BRANCH   2  17
ATOM     17  C   UNL     1       9.486  10.548  19.259  0.00  0.00    +0.000 A 
ATOM     18  C   UNL     1      10.654  11.078  18.702  0.00  0.00    +0.000 A 
ATOM     19  C   UNL     1      11.416  11.970  19.439  0.00  0.00    +0.000 A 
ATOM     20  C   UNL     1      11.001  12.354  20.716  0.00  0.00    +0.000 A 
ATOM     21  C   UNL     1       9.807  11.880  21.276  0.00  0.00    +0.000 A 
ATOM     22  C   UNL     1       9.049  10.965  20.534  0.00  0.00    +0.000 A 
BRANCH  21  23
ATOM     23  N   UNL     1       9.339  12.294  22.550  0.00  0.00    +0.000 N 
ATOM     24  C   UNL     1       8.701  13.491  22.837  0.00  0.00    +0.000 C 
ATOM     25  O   UNL     1       8.433  14.375  22.021  0.00  0.00    +0.000 OA
ATOM     26  H   UNL     1       9.487  11.673  23.341  0.00  0.00    +0.000 HD
BRANCH  24  27
ATOM     27  C   UNL     1       8.247  13.645  24.296  0.00  0.00    +0.000 C 
ATOM     28  C   UNL     1       8.456  12.328  25.034  0.00  0.00    +0.000 C 
ATOM     29  C   UNL     1       7.500  12.445  26.186  0.00  0.00    +0.000 C 
ATOM     30  C   UNL     1       6.350  13.215  25.569  0.00  0.00    +0.000 C 
ATOM     31  O   UNL     1       6.880  14.011  24.494  0.00  0.00    +0.000 OA
ENDBRANCH  24  27
ENDBRANCH  21  23
ENDBRANCH   2  17
TORSDOF 4
ENDMDL
MODEL 8
REMARK VINA RESULT:      -8.4      6.400      9.623
REMARK  Name = 
REMARK  4 active torsions:
REMARK  status: ('A' for Active; 'I' for Inactive)
REMARK    1  A    between atoms: C_2  and  C_14
REMARK    2  A    between atoms: N_3  and  C_4
REMARK    3  A    between atoms: C_18  and  N_19
REMARK    4  A    between atoms: C_20  and  C_22
REMARK                            x       y       z     vdW  Elec       q    Type
REMARK                         _______ _______ _______ _____ _____    ______ ____
ROOT
ATOM      1  O   UNL     1       2.083   8.887  17.472  0.00  0.00    +0.000 OA
ATOM      2  C   UNL     1       2.035   8.332  18.563  0.00  0.00    +0.000 C 
ATOM      3  N   UNL     1       2.541   7.078  18.886  0.00  0.00    +0.000 N 
ATOM      4  H   UNL     1       2.231   6.671  19.760  0.00  0.00    +0.000 HD
ENDROOT
BRANCH   3   5
ATOM      5  C   UNL     1       3.296   6.236  18.041  0.00  0.00    +0.000 A 
ATOM      6  C   UNL     1       2.975   4.870  17.853  0.00  0.00    +0.000 A 
ATOM      7  C   UNL     1       3.761   4.032  17.054  0.00  0.00    +0.000 A 
ATOM      8  C   UNL     1       4.858   4.598  16.458  0.00  0.00    +0.000 A 
ATOM      9  N   UNL     1       5.829   4.017  15.654  0.00  0.00    +0.000 N 
ATOM     10  C   UNL     1       6.765   4.997  15.296  0.00  0.00    +0.000 A 
ATOM     11  O   UNL     1       7.759   4.839  14.612  0.00  0.00    +0.000 OA
ATOM     12  N   UNL     1       6.336   6.195  15.890  0.00  0.00    +0.000 N 
ATOM     13  C   UNL     1       5.168   5.947  16.608  0.00  0.00    +0.000 A 
ATOM     14  C   UNL     1       4.402   6.796  17.377  0.00  0.00    +0.000 A 
ATOM     15  H   UNL     1       5.892   3.050  15.378  0.00  0.00    +0.000 HD
ATOM     16  H   UNL     1       6.838   7.063  15.806  0.00  0.00    +0.000 HD
ENDBRANCH   3   5
BRANCH   2  17
ATOM     17  C   UNL     1       1.310   9.017  19.666  0.00  0.00    +0.000 A 
ATOM     18  C   UNL     1       1.093   8.353  20.878  0.00  0.00    +0.000 A 
ATOM     19  C   UNL     1       0.388   8.990  21.887  0.00  0.00    +0.000 A 
ATOM     20  C   UNL     1      -0.076  10.293  21.699  0.00  0.00    +0.000 A 
ATOM     21  C   UNL     1       0.175  11.001  20.515  0.00  0.00    +0.000 A 
ATOM     22  C   UNL     1       0.874  10.347  19.493  0.00  0.00    +0.000 A 
BRANCH  21  23
ATOM     23  N   UNL     1      -0.240  12.344  20.321  0.00  0.00    +0.000 N 
ATOM     24  C   UNL     1       0.412  13.476  20.783  0.00  0.00    +0.000 C 
ATOM     25  O   UNL     1       1.464  13.488  21.425  0.00  0.00    +0.000 OA
ATOM     26  H   UNL     1      -1.102  12.509  19.807  0.00  0.00    +0.000 HD
BRANCH  24  27
ATOM     27  C   UNL     1      -0.236  14.805  20.367  0.00  0.00    +0.000 C 
ATOM     28  C   UNL     1      -0.202  14.935  18.849  0.00  0.00    +0.000 C 
ATOM     29  C   UNL     1      -0.320  16.418  18.645  0.00  0.00    +0.000 C 
ATOM     30  C   UNL     1       0.441  16.965  19.835  0.00  0.00    +0.000 C 
ATOM     31  O   UNL     1       0.369  15.990  20.891  0.00  0.00    +0.000 OA
ENDBRANCH  24  27
ENDBRANCH  21  23
ENDBRANCH   2  17
TORSDOF 4
ENDMDL
MODEL 9
REMARK VINA RESULT:      -8.3      7.318     10.035
REMARK  Name = 
REMARK  4 active torsions:
REMARK  status: ('A' for Active; 'I' for Inactive)
REMARK    1  A    between atoms: C_2  and  C_14
REMARK    2  A    between atoms: N_3  and  C_4
REMARK    3  A    between atoms: C_18  and  N_19
REMARK    4  A    between atoms: C_20  and  C_22
REMARK                            x       y       z     vdW  Elec       q    Type
REMARK                         _______ _______ _______ _____ _____    ______ ____
ROOT
ATOM      1  O   UNL     1       1.514   8.482  20.189  0.00  0.00    +0.000 OA
ATOM      2  C   UNL     1       1.545   8.968  19.066  0.00  0.00    +0.000 C 
ATOM      3  N   UNL     1       2.211   8.462  17.955  0.00  0.00    +0.000 N 
ATOM      4  H   UNL     1       2.324   9.087  17.166  0.00  0.00    +0.000 HD
ENDROOT
BRANCH   3   5
ATOM      5  C   UNL     1       2.905   7.234  17.880  0.00  0.00    +0.000 A 
ATOM      6  C   UNL     1       4.244   7.149  17.431  0.00  0.00    +0.000 A 
ATOM      7  C   UNL     1       4.904   5.921  17.311  0.00  0.00    +0.000 A 
ATOM      8  C   UNL     1       4.191   4.802  17.653  0.00  0.00    +0.000 A 
ATOM      9  N   UNL     1       4.562   3.464  17.602  0.00  0.00    +0.000 N 
ATOM     10  C   UNL     1       3.485   2.680  18.038  0.00  0.00    +0.000 A 
ATOM     11  O   UNL     1       3.450   1.466  18.107  0.00  0.00    +0.000 OA
ATOM     12  N   UNL     1       2.451   3.570  18.369  0.00  0.00    +0.000 N 
ATOM     13  C   UNL     1       2.884   4.872  18.127  0.00  0.00    +0.000 A 
ATOM     14  C   UNL     1       2.217   6.070  18.268  0.00  0.00    +0.000 A 
ATOM     15  H   UNL     1       5.441   3.088  17.285  0.00  0.00    +0.000 HD
ATOM     16  H   UNL     1       1.549   3.270  18.699  0.00  0.00    +0.000 HD
ENDBRANCH   3   5
BRANCH   2  17
ATOM     17  C   UNL     1       0.864  10.271  18.847  0.00  0.00    +0.000 A 
ATOM     18  C   UNL     1       1.616  11.445  18.744  0.00  0.00    +0.000 A 
ATOM     19  C   UNL     1       0.966  12.658  18.571  0.00  0.00    +0.000 A 
ATOM     20  C   UNL     1      -0.426  12.696  18.474  0.00  0.00    +0.000 A 
ATOM     21  C   UNL     1      -1.200  11.528  18.520  0.00  0.00    +0.000 A 
ATOM     22  C   UNL     1      -0.540  10.308  18.711  0.00  0.00    +0.000 A 
BRANCH  21  23
ATOM     23  N   UNL     1      -2.611  11.536  18.372  0.00  0.00    +0.000 N 
ATOM     24  C   UNL     1      -3.527  12.029  19.289  0.00  0.00    +0.000 C 
ATOM     25  O   UNL     1      -3.250  12.549  20.371  0.00  0.00    +0.000 OA
ATOM     26  H   UNL     1      -3.007  11.135  17.525  0.00  0.00    +0.000 HD
BRANCH  24  27
ATOM     27  C   UNL     1      -4.992  11.963  18.833  0.00  0.00    +0.000 C 
ATOM     28  C   UNL     1      -5.906  12.212  20.026  0.00  0.00    +0.000 C 
ATOM     29  C   UNL     1      -7.197  11.583  19.585  0.00  0.00    +0.000 C 
ATOM     30  C   UNL     1      -6.713  10.401  18.770  0.00  0.00    +0.000 C 
ATOM     31  O   UNL     1      -5.413  10.730  18.246  0.00  0.00    +0.000 OA
ENDBRANCH  24  27
ENDBRANCH  21  23
ENDBRANCH   2  17
TORSDOF 4
ENDMDL
