MODEL 1
REMARK VINA RESULT:      -9.2      0.000      0.000
REMARK  Name = 
REMARK  6 active torsions:
REMARK  status: ('A' for Active; 'I' for Inactive)
REMARK    1  A    between atoms: C_1  and  C_2
REMARK    2  A    between atoms: C_5  and  C_6
REMARK    3  A    between atoms: C_7  and  C_8
REMARK    4  A    between atoms: N_10  and  C_11
REMARK    5  A    between atoms: C_14  and  C_15
REMARK    6  A    between atoms: N_23  and  C_24
REMARK                            x       y       z     vdW  Elec       q    Type
REMARK                         _______ _______ _______ _____ _____    ______ ____
ROOT
ATOM      1  C   UNL     1       2.231   7.237  19.819  0.00  0.00    +0.000 A 
ATOM      2  C   UNL     1       2.777   7.471  18.551  0.00  0.00    +0.000 A 
ATOM      3  C   UNL     1       3.368   6.458  17.798  0.00  0.00    +0.000 A 
ATOM      4  C   UNL     1       3.504   5.184  18.341  0.00  0.00    +0.000 A 
ATOM      5  C   UNL     1       2.872   4.913  19.573  0.00  0.00    +0.000 A 
ATOM      6  C   UNL     1       2.251   5.934  20.313  0.00  0.00    +0.000 A 
ENDROOT
BRANCH   4   7
ATOM      7  C   UNL     1       4.629   4.304  17.902  0.00  0.00    +0.000 A 
ATOM      8  N   UNL     1       5.571   3.961  18.780  0.00  0.00    +0.000 NA
ATOM      9  C   UNL     1       6.498   4.958  18.551  0.00  0.00    +0.000 A 
ATOM     10  C   UNL     1       7.377   5.585  19.432  0.00  0.00    +0.000 A 
ATOM     11  C   UNL     1       8.029   6.736  18.984  0.00  0.00    +0.000 A 
ATOM     12  C   UNL     1       7.888   7.188  17.663  0.00  0.00    +0.000 A 
ATOM     13  C   UNL     1       7.089   6.509  16.733  0.00  0.00    +0.000 A 
ATOM     14  C   UNL     1       6.373   5.429  17.243  0.00  0.00    +0.000 A 
ATOM     15  N   UNL     1       5.372   4.610  16.767  0.00  0.00    +0.000 N 
BRANCH  15  16
ATOM     16  C   UNL     1       5.165   4.148  15.417  0.00  0.00    +0.000 C 
ATOM     17  F   UNL     1       5.059   5.170  14.531  0.00  0.00    +0.000 F 
ATOM     18  F   UNL     1       6.192   3.368  14.986  0.00  0.00    +0.000 F 
ENDBRANCH  15  16
ENDBRANCH   4   7
BRANCH   1  21
ATOM     19  C   UNL     1       0.952   9.333  20.119  0.00  0.00    +0.000 C 
ATOM     20  O   UNL     1       0.569   9.382  18.954  0.00  0.00    +0.000 OA
ATOM     21  N   UNL     1       1.707   8.284  20.624  0.00  0.00    +0.000 N 
ATOM     22  H   UNL     1       1.844   8.209  21.620  0.00  0.00    +0.000 HD
BRANCH  19  29
ATOM     23  C   UNL     1       1.522  12.379  19.563  0.00  0.00    +0.000 C 
ATOM     24  C   UNL     1       0.815  11.797  20.734  0.00  0.00    +0.000 A 
ATOM     25  N   UNL     1       0.351  12.588  21.713  0.00  0.00    +0.000 NA
ATOM     26  O   UNL     1      -0.198  11.735  22.644  0.00  0.00    +0.000 OA
ATOM     27  C   UNL     1      -0.064  10.442  22.242  0.00  0.00    +0.000 A 
ATOM     28  C   UNL     1      -0.602   9.455  23.198  0.00  0.00    +0.000 C 
ATOM     29  C   UNL     1       0.560  10.409  21.011  0.00  0.00    +0.000 A 
ENDBRANCH  19  29
ENDBRANCH   1  21
TORSDOF 4
ENDMDL
MODEL 2
REMARK VINA RESULT:      -9.1      0.425      1.534
REMARK  Name = 
REMARK  6 active torsions:
REMARK  status: ('A' for Active; 'I' for Inactive)
REMARK    1  A    between atoms: C_1  and  C_2
REMARK    2  A    between atoms: C_5  and  C_6
REMARK    3  A    between atoms: C_7  and  C_8
REMARK    4  A    between atoms: N_10  and  C_11
REMARK    5  A    between atoms: C_14  and  C_15
REMARK    6  A    between atoms: N_23  and  C_24
REMARK                            x       y       z     vdW  Elec       q    Type
REMARK                         _______ _______ _______ _____ _____    ______ ____
ROOT
ATOM      1  C   UNL     1       2.184   7.347  19.736  0.00  0.00    +0.000 A 
ATOM      2  C   UNL     1       2.750   7.551  18.471  0.00  0.00    +0.000 A 
ATOM      3  C   UNL     1       3.332   6.517  17.741  0.00  0.00    +0.000 A 
ATOM      4  C   UNL     1       3.439   5.250  18.306  0.00  0.00    +0.000 A 
ATOM      5  C   UNL     1       2.788   5.009  19.534  0.00  0.00    +0.000 A 
ATOM      6  C   UNL     1       2.176   6.052  20.250  0.00  0.00    +0.000 A 
ENDROOT
BRANCH   4   7
ATOM      7  C   UNL     1       4.554   4.344  17.895  0.00  0.00    +0.000 A 
ATOM      8  N   UNL     1       5.481   4.001  18.789  0.00  0.00    +0.000 NA
ATOM      9  C   UNL     1       6.427   4.978  18.553  0.00  0.00    +0.000 A 
ATOM     10  C   UNL     1       7.307   5.606  19.433  0.00  0.00    +0.000 A 
ATOM     11  C   UNL     1       7.982   6.739  18.971  0.00  0.00    +0.000 A 
ATOM     12  C   UNL     1       7.863   7.169  17.641  0.00  0.00    +0.000 A 
ATOM     13  C   UNL     1       7.063   6.487  16.715  0.00  0.00    +0.000 A 
ATOM     14  C   UNL     1       6.323   5.428  17.236  0.00  0.00    +0.000 A 
ATOM     15  N   UNL     1       5.314   4.617  16.763  0.00  0.00    +0.000 N 
BRANCH  15  16
ATOM     16  C   UNL     1       5.114   4.135  15.419  0.00  0.00    +0.000 C 
ATOM     17  F   UNL     1       5.020   5.143  14.516  0.00  0.00    +0.000 F 
ATOM     18  F   UNL     1       6.139   3.342  15.008  0.00  0.00    +0.000 F 
ENDBRANCH  15  16
ENDBRANCH   4   7
BRANCH   1  21
ATOM     19  C   UNL     1       0.965   9.485  19.982  0.00  0.00    +0.000 C 
ATOM     20  O   UNL     1       0.622   9.539  18.805  0.00  0.00    +0.000 OA
ATOM     21  N   UNL     1       1.668   8.416  20.518  0.00  0.00    +0.000 N 
ATOM     22  H   UNL     1       1.770   8.343  21.518  0.00  0.00    +0.000 HD
BRANCH  19  29
ATOM     23  C   UNL     1      -0.577   9.110  22.702  0.00  0.00    +0.000 C 
ATOM     24  C   UNL     1      -0.112  10.388  22.102  0.00  0.00    +0.000 A 
ATOM     25  N   UNL     1      -0.349  11.556  22.719  0.00  0.00    +0.000 NA
ATOM     26  O   UNL     1       0.168  12.522  21.884  0.00  0.00    +0.000 OA
ATOM     27  C   UNL     1       0.706  11.951  20.771  0.00  0.00    +0.000 A 
ATOM     28  C   UNL     1       1.259  12.920  19.805  0.00  0.00    +0.000 C 
ATOM     29  C   UNL     1       0.579  10.580  20.856  0.00  0.00    +0.000 A 
ENDBRANCH  19  29
ENDBRANCH   1  21
TORSDOF 4
ENDMDL
MODEL 3
REMARK VINA RESULT:      -9.0      2.326      3.780
REMARK  Name = 
REMARK  6 active torsions:
REMARK  status: ('A' for Active; 'I' for Inactive)
REMARK    1  A    between atoms: C_1  and  C_2
REMARK    2  A    between atoms: C_5  and  C_6
REMARK    3  A    between atoms: C_7  and  C_8
REMARK    4  A    between atoms: N_10  and  C_11
REMARK    5  A    between atoms: C_14  and  C_15
REMARK    6  A    between atoms: N_23  and  C_24
REMARK                            x       y       z     vdW  Elec       q    Type
REMARK                         _______ _______ _______ _____ _____    ______ ____
ROOT
ATOM      1  C   UNL     1       1.482   8.968  19.717  0.00  0.00    +0.000 A 
ATOM      2  C   UNL     1       1.763   7.836  20.492  0.00  0.00    +0.000 A 
ATOM      3  C   UNL     1       2.312   6.678  19.945  0.00  0.00    +0.000 A 
ATOM      4  C   UNL     1       2.515   6.594  18.571  0.00  0.00    +0.000 A 
ATOM      5  C   UNL     1       2.328   7.758  17.796  0.00  0.00    +0.000 A 
ATOM      6  C   UNL     1       1.803   8.933  18.361  0.00  0.00    +0.000 A 
ENDROOT
BRANCH   4   7
ATOM      7  C   UNL     1       2.467   5.264  17.892  0.00  0.00    +0.000 A 
ATOM      8  N   UNL     1       1.351   4.539  17.954  0.00  0.00    +0.000 NA
ATOM      9  C   UNL     1       1.621   3.762  19.062  0.00  0.00    +0.000 A 
ATOM     10  C   UNL     1       0.760   3.259  20.036  0.00  0.00    +0.000 A 
ATOM     11  C   UNL     1       1.335   2.713  21.186  0.00  0.00    +0.000 A 
ATOM     12  C   UNL     1       2.726   2.579  21.315  0.00  0.00    +0.000 A 
ATOM     13  C   UNL     1       3.602   2.986  20.299  0.00  0.00    +0.000 A 
ATOM     14  C   UNL     1       3.001   3.620  19.215  0.00  0.00    +0.000 A 
ATOM     15  N   UNL     1       3.456   4.314  18.115  0.00  0.00    +0.000 N 
BRANCH  15  16
ATOM     16  C   UNL     1       4.658   4.083  17.352  0.00  0.00    +0.000 C 
ATOM     17  F   UNL     1       4.647   4.735  16.161  0.00  0.00    +0.000 F 
ATOM     18  F   UNL     1       5.768   4.507  18.013  0.00  0.00    +0.000 F 
ENDBRANCH  15  16
ENDBRANCH   4   7
BRANCH   1  21
ATOM     19  C   UNL     1      -0.424  10.536  19.879  0.00  0.00    +0.000 C 
ATOM     20  O   UNL     1      -1.152   9.884  19.137  0.00  0.00    +0.000 OA
ATOM     21  N   UNL     1       0.843  10.118  20.257  0.00  0.00    +0.000 N 
ATOM     22  H   UNL     1       1.323  10.602  21.000  0.00  0.00    +0.000 HD
BRANCH  19  29
ATOM     23  C   UNL     1      -0.574  13.221  18.240  0.00  0.00    +0.000 C 
ATOM     24  C   UNL     1      -1.013  12.999  19.643  0.00  0.00    +0.000 A 
ATOM     25  N   UNL     1      -1.526  14.008  20.364  0.00  0.00    +0.000 NA
ATOM     26  O   UNL     1      -1.781  13.477  21.609  0.00  0.00    +0.000 OA
ATOM     27  C   UNL     1      -1.420  12.165  21.648  0.00  0.00    +0.000 A 
ATOM     28  C   UNL     1      -1.631  11.521  22.959  0.00  0.00    +0.000 C 
ATOM     29  C   UNL     1      -0.938  11.787  20.412  0.00  0.00    +0.000 A 
ENDBRANCH  19  29
ENDBRANCH   1  21
TORSDOF 4
ENDMDL
MODEL 4
REMARK VINA RESULT:      -8.9      1.708      2.167
REMARK  Name = 
REMARK  6 active torsions:
REMARK  status: ('A' for Active; 'I' for Inactive)
REMARK    1  A    between atoms: C_1  and  C_2
REMARK    2  A    between atoms: C_5  and  C_6
REMARK    3  A    between atoms: C_7  and  C_8
REMARK    4  A    between atoms: N_10  and  C_11
REMARK    5  A    between atoms: C_14  and  C_15
REMARK    6  A    between atoms: N_23  and  C_24
REMARK                            x       y       z     vdW  Elec       q    Type
REMARK                         _______ _______ _______ _____ _____    ______ ____
ROOT
ATOM      1  C   UNL     1       1.897   7.437  20.325  0.00  0.00    +0.000 A 
ATOM      2  C   UNL     1       2.710   7.443  19.185  0.00  0.00    +0.000 A 
ATOM      3  C   UNL     1       3.202   6.270  18.616  0.00  0.00    +0.000 A 
ATOM      4  C   UNL     1       2.958   5.049  19.236  0.00  0.00    +0.000 A 
ATOM      5  C   UNL     1       2.062   5.019  20.325  0.00  0.00    +0.000 A 
ATOM      6  C   UNL     1       1.545   6.205  20.875  0.00  0.00    +0.000 A 
ENDROOT
BRANCH   4   7
ATOM      7  C   UNL     1       3.932   3.926  19.076  0.00  0.00    +0.000 A 
ATOM      8  N   UNL     1       5.218   4.133  19.359  0.00  0.00    +0.000 NA
ATOM      9  C   UNL     1       5.693   4.484  18.112  0.00  0.00    +0.000 A 
ATOM     10  C   UNL     1       6.708   5.371  17.756  0.00  0.00    +0.000 A 
ATOM     11  C   UNL     1       6.811   5.726  16.409  0.00  0.00    +0.000 A 
ATOM     12  C   UNL     1       5.996   5.135  15.433  0.00  0.00    +0.000 A 
ATOM     13  C   UNL     1       5.040   4.164  15.761  0.00  0.00    +0.000 A 
ATOM     14  C   UNL     1       4.892   3.912  17.123  0.00  0.00    +0.000 A 
ATOM     15  N   UNL     1       3.997   3.202  17.892  0.00  0.00    +0.000 N 
BRANCH  15  16
ATOM     16  C   UNL     1       3.316   1.974  17.562  0.00  0.00    +0.000 C 
ATOM     17  F   UNL     1       3.721   0.934  18.333  0.00  0.00    +0.000 F 
ATOM     18  F   UNL     1       1.971   2.079  17.731  0.00  0.00    +0.000 F 
ENDBRANCH  15  16
ENDBRANCH   4   7
BRANCH   1  21
ATOM     19  C   UNL     1       0.758   9.632  20.302  0.00  0.00    +0.000 C 
ATOM     20  O   UNL     1       0.336   9.513  19.156  0.00  0.00    +0.000 OA
ATOM     21  N   UNL     1       1.466   8.635  20.957  0.00  0.00    +0.000 N 
ATOM     22  H   UNL     1       1.635   8.718  21.947  0.00  0.00    +0.000 HD
BRANCH  19  29
ATOM     23  C   UNL     1       1.850  12.460  19.450  0.00  0.00    +0.000 C 
ATOM     24  C   UNL     1       0.960  12.150  20.598  0.00  0.00    +0.000 A 
ATOM     25  N   UNL     1       0.542  13.126  21.420  0.00  0.00    +0.000 NA
ATOM     26  O   UNL     1      -0.216  12.496  22.382  0.00  0.00    +0.000 OA
ATOM     27  C   UNL     1      -0.254  11.155  22.154  0.00  0.00    +0.000 A 
ATOM     28  C   UNL     1      -1.024  10.396  23.158  0.00  0.00    +0.000 C 
ATOM     29  C   UNL     1       0.464  10.866  21.011  0.00  0.00    +0.000 A 
ENDBRANCH  19  29
ENDBRANCH   1  21
TORSDOF 4
ENDMDL
MODEL 5
REMARK VINA RESULT:      -8.8      2.393      3.111
REMARK  Name = 
REMARK  6 active torsions:
REMARK  status: ('A' for Active; 'I' for Inactive)
REMARK    1  A    between atoms: C_1  and  C_2
REMARK    2  A    between atoms: C_5  and  C_6
REMARK    3  A    between atoms: C_7  and  C_8
REMARK    4  A    between atoms: N_10  and  C_11
REMARK    5  A    between atoms: C_14  and  C_15
REMARK    6  A    between atoms: N_23  and  C_24
REMARK                            x       y       z     vdW  Elec       q    Type
REMARK                         _______ _______ _______ _____ _____    ______ ____
ROOT
ATOM      1  C   UNL     1       2.273   8.121  18.408  0.00  0.00    +0.000 A 
ATOM      2  C   UNL     1       2.044   7.252  19.482  0.00  0.00    +0.000 A 
ATOM      3  C   UNL     1       2.851   6.142  19.726  0.00  0.00    +0.000 A 
ATOM      4  C   UNL     1       3.870   5.822  18.835  0.00  0.00    +0.000 A 
ATOM      5  C   UNL     1       4.172   6.741  17.807  0.00  0.00    +0.000 A 
ATOM      6  C   UNL     1       3.372   7.875  17.587  0.00  0.00    +0.000 A 
ENDROOT
BRANCH   4   7
ATOM      7  C   UNL     1       4.300   4.400  18.676  0.00  0.00    +0.000 A 
ATOM      8  N   UNL     1       5.581   4.080  18.859  0.00  0.00    +0.000 NA
ATOM      9  C   UNL     1       6.049   4.178  17.565  0.00  0.00    +0.000 A 
ATOM     10  C   UNL     1       7.299   4.574  17.091  0.00  0.00    +0.000 A 
ATOM     11  C   UNL     1       7.420   4.822  15.721  0.00  0.00    +0.000 A 
ATOM     12  C   UNL     1       6.357   4.581  14.838  0.00  0.00    +0.000 A 
ATOM     13  C   UNL     1       5.126   4.084  15.285  0.00  0.00    +0.000 A 
ATOM     14  C   UNL     1       5.006   3.950  16.666  0.00  0.00    +0.000 A 
ATOM     15  N   UNL     1       3.971   3.679  17.534  0.00  0.00    +0.000 N 
BRANCH  15  16
ATOM     16  C   UNL     1       2.833   2.819  17.322  0.00  0.00    +0.000 C 
ATOM     17  F   UNL     1       2.879   1.700  18.088  0.00  0.00    +0.000 F 
ATOM     18  F   UNL     1       1.663   3.444  17.623  0.00  0.00    +0.000 F 
ENDBRANCH  15  16
ENDBRANCH   4   7
BRANCH   1  21
ATOM     19  C   UNL     1       0.772   9.969  19.078  0.00  0.00    +0.000 C 
ATOM     20  O   UNL     1       1.009   9.860  20.276  0.00  0.00    +0.000 OA
ATOM     21  N   UNL     1       1.401   9.202  18.108  0.00  0.00    +0.000 N 
ATOM     22  H   UNL     1       1.298   9.452  17.137  0.00  0.00    +0.000 HD
BRANCH  19  29
ATOM     23  C   UNL     1       1.291  13.070  19.252  0.00  0.00    +0.000 C 
ATOM     24  C   UNL     1       0.075  12.391  18.735  0.00  0.00    +0.000 A 
ATOM     25  N   UNL     1      -0.969  13.108  18.288  0.00  0.00    +0.000 NA
ATOM     26  O   UNL     1      -1.924  12.181  17.931  0.00  0.00    +0.000 OA
ATOM     27  C   UNL     1      -1.472  10.919  18.165  0.00  0.00    +0.000 A 
ATOM     28  C   UNL     1      -2.447   9.861  17.838  0.00  0.00    +0.000 C 
ATOM     29  C   UNL     1      -0.186  10.979  18.662  0.00  0.00    +0.000 A 
ENDBRANCH  19  29
ENDBRANCH   1  21
TORSDOF 4
ENDMDL
MODEL 6
REMARK VINA RESULT:      -8.7      2.347      4.030
REMARK  Name = 
REMARK  6 active torsions:
REMARK  status: ('A' for Active; 'I' for Inactive)
REMARK    1  A    between atoms: C_1  and  C_2
REMARK    2  A    between atoms: C_5  and  C_6
REMARK    3  A    between atoms: C_7  and  C_8
REMARK    4  A    between atoms: N_10  and  C_11
REMARK    5  A    between atoms: C_14  and  C_15
REMARK    6  A    between atoms: N_23  and  C_24
REMARK                            x       y       z     vdW  Elec       q    Type
REMARK                         _______ _______ _______ _____ _____    ______ ____
ROOT
ATOM      1  C   UNL     1       1.704   8.954  19.571  0.00  0.00    +0.000 A 
ATOM      2  C   UNL     1       1.839   7.823  20.385  0.00  0.00    +0.000 A 
ATOM      3  C   UNL     1       2.316   6.608  19.897  0.00  0.00    +0.000 A 
ATOM      4  C   UNL     1       2.592   6.470  18.541  0.00  0.00    +0.000 A 
ATOM      5  C   UNL     1       2.555   7.625  17.731  0.00  0.00    +0.000 A 
ATOM      6  C   UNL     1       2.102   8.855  18.238  0.00  0.00    +0.000 A 
ENDROOT
BRANCH   4   7
ATOM      7  C   UNL     1       2.469   5.131  17.889  0.00  0.00    +0.000 A 
ATOM      8  N   UNL     1       1.328   4.452  18.002  0.00  0.00    +0.000 NA
ATOM      9  C   UNL     1       1.606   3.685  19.115  0.00  0.00    +0.000 A 
ATOM     10  C   UNL     1       0.760   3.233  20.126  0.00  0.00    +0.000 A 
ATOM     11  C   UNL     1       1.353   2.685  21.266  0.00  0.00    +0.000 A 
ATOM     12  C   UNL     1       2.740   2.498  21.350  0.00  0.00    +0.000 A 
ATOM     13  C   UNL     1       3.596   2.852  20.298  0.00  0.00    +0.000 A 
ATOM     14  C   UNL     1       2.983   3.491  19.224  0.00  0.00    +0.000 A 
ATOM     15  N   UNL     1       3.428   4.146  18.096  0.00  0.00    +0.000 N 
BRANCH  15  16
ATOM     16  C   UNL     1       4.592   3.855  17.297  0.00  0.00    +0.000 C 
ATOM     17  F   UNL     1       4.435   4.223  16.000  0.00  0.00    +0.000 F 
ATOM     18  F   UNL     1       5.695   4.508  17.752  0.00  0.00    +0.000 F 
ENDBRANCH  15  16
ENDBRANCH   4   7
BRANCH   1  21
ATOM     19  C   UNL     1      -0.195  10.511  19.867  0.00  0.00    +0.000 C 
ATOM     20  O   UNL     1      -1.026   9.744  19.392  0.00  0.00    +0.000 OA
ATOM     21  N   UNL     1       1.138  10.167  20.046  0.00  0.00    +0.000 N 
ATOM     22  H   UNL     1       1.733  10.767  20.597  0.00  0.00    +0.000 HD
BRANCH  19  29
ATOM     23  C   UNL     1      -1.288  11.147  22.751  0.00  0.00    +0.000 C 
ATOM     24  C   UNL     1      -1.127  12.099  21.621  0.00  0.00    +0.000 A 
ATOM     25  N   UNL     1      -1.477  13.388  21.760  0.00  0.00    +0.000 NA
ATOM     26  O   UNL     1      -1.242  13.966  20.532  0.00  0.00    +0.000 OA
ATOM     27  C   UNL     1      -0.764  13.041  19.655  0.00  0.00    +0.000 A 
ATOM     28  C   UNL     1      -0.511  13.570  18.301  0.00  0.00    +0.000 C 
ATOM     29  C   UNL     1      -0.645  11.824  20.295  0.00  0.00    +0.000 A 
ENDBRANCH  19  29
ENDBRANCH   1  21
TORSDOF 4
ENDMDL
MODEL 7
REMARK VINA RESULT:      -8.7      2.253      4.003
REMARK  Name = 
REMARK  6 active torsions:
REMARK  status: ('A' for Active; 'I' for Inactive)
REMARK    1  A    between atoms: C_1  and  C_2
REMARK    2  A    between atoms: C_5  and  C_6
REMARK    3  A    between atoms: C_7  and  C_8
REMARK    4  A    between atoms: N_10  and  C_11
REMARK    5  A    between atoms: C_14  and  C_15
REMARK    6  A    between atoms: N_23  and  C_24
REMARK                            x       y       z     vdW  Elec       q    Type
REMARK                         _______ _______ _______ _____ _____    ______ ____
ROOT
ATOM      1  C   UNL     1       1.117   9.074  19.460  0.00  0.00    +0.000 A 
ATOM      2  C   UNL     1       1.404   8.048  20.369  0.00  0.00    +0.000 A 
ATOM      3  C   UNL     1       2.283   7.010  20.066  0.00  0.00    +0.000 A 
ATOM      4  C   UNL     1       2.838   6.926  18.794  0.00  0.00    +0.000 A 
ATOM      5  C   UNL     1       2.635   8.002  17.904  0.00  0.00    +0.000 A 
ATOM      6  C   UNL     1       1.771   9.062  18.229  0.00  0.00    +0.000 A 
ENDROOT
BRANCH   4   7
ATOM      7  C   UNL     1       3.217   5.593  18.234  0.00  0.00    +0.000 A 
ATOM      8  N   UNL     1       2.262   4.779  17.783  0.00  0.00    +0.000 NA
ATOM      9  C   UNL     1       2.018   4.032  18.918  0.00  0.00    +0.000 A 
ATOM     10  C   UNL     1       0.831   3.464  19.379  0.00  0.00    +0.000 A 
ATOM     11  C   UNL     1       0.817   2.973  20.687  0.00  0.00    +0.000 A 
ATOM     12  C   UNL     1       1.978   2.954  21.473  0.00  0.00    +0.000 A 
ATOM     13  C   UNL     1       3.205   3.427  20.987  0.00  0.00    +0.000 A 
ATOM     14  C   UNL     1       3.159   4.005  19.721  0.00  0.00    +0.000 A 
ATOM     15  N   UNL     1       4.039   4.728  18.947  0.00  0.00    +0.000 N 
BRANCH  15  16
ATOM     16  C   UNL     1       5.472   4.594  18.865  0.00  0.00    +0.000 C 
ATOM     17  F   UNL     1       5.926   4.649  17.587  0.00  0.00    +0.000 F 
ATOM     18  F   UNL     1       6.113   5.583  19.545  0.00  0.00    +0.000 F 
ENDBRANCH  15  16
ENDBRANCH   4   7
BRANCH   1  21
ATOM     19  C   UNL     1       0.414  11.186  20.539  0.00  0.00    +0.000 C 
ATOM     20  O   UNL     1       1.527  11.445  20.984  0.00  0.00    +0.000 OA
ATOM     21  N   UNL     1       0.157  10.085  19.735  0.00  0.00    +0.000 N 
ATOM     22  H   UNL     1      -0.729  10.017  19.258  0.00  0.00    +0.000 HD
BRANCH  19  29
ATOM     23  C   UNL     1      -0.418  13.608  18.707  0.00  0.00    +0.000 C 
ATOM     24  C   UNL     1      -1.048  13.193  19.988  0.00  0.00    +0.000 A 
ATOM     25  N   UNL     1      -2.082  13.883  20.495  0.00  0.00    +0.000 NA
ATOM     26  O   UNL     1      -2.386  13.264  21.687  0.00  0.00    +0.000 OA
ATOM     27  C   UNL     1      -1.545  12.217  21.908  0.00  0.00    +0.000 A 
ATOM     28  C   UNL     1      -1.782  11.513  23.182  0.00  0.00    +0.000 C 
ATOM     29  C   UNL     1      -0.673  12.100  20.844  0.00  0.00    +0.000 A 
ENDBRANCH  19  29
ENDBRANCH   1  21
TORSDOF 4
ENDMDL
MODEL 8
REMARK VINA RESULT:      -8.7      2.194      4.194
REMARK  Name = 
REMARK  6 active torsions:
REMARK  status: ('A' for Active; 'I' for Inactive)
REMARK    1  A    between atoms: C_1  and  C_2
REMARK    2  A    between atoms: C_5  and  C_6
REMARK    3  A    between atoms: C_7  and  C_8
REMARK    4  A    between atoms: N_10  and  C_11
REMARK    5  A    between atoms: C_14  and  C_15
REMARK    6  A    between atoms: N_23  and  C_24
REMARK                            x       y       z     vdW  Elec       q    Type
REMARK                         _______ _______ _______ _____ _____    ______ ____
ROOT
ATOM      1  C   UNL     1       1.288   9.117  19.291  0.00  0.00    +0.000 A 
ATOM      2  C   UNL     1       1.487   8.073  20.203  0.00  0.00    +0.000 A 
ATOM      3  C   UNL     1       2.297   6.977  19.914  0.00  0.00    +0.000 A 
ATOM      4  C   UNL     1       2.868   6.856  18.651  0.00  0.00    +0.000 A 
ATOM      5  C   UNL     1       2.755   7.944  17.760  0.00  0.00    +0.000 A 
ATOM      6  C   UNL     1       1.961   9.061  18.072  0.00  0.00    +0.000 A 
ENDROOT
BRANCH   4   7
ATOM      7  C   UNL     1       3.164   5.501  18.095  0.00  0.00    +0.000 A 
ATOM      8  N   UNL     1       2.154   4.705  17.743  0.00  0.00    +0.000 NA
ATOM      9  C   UNL     1       1.982   3.991  18.911  0.00  0.00    +0.000 A 
ATOM     10  C   UNL     1       0.822   3.468  19.479  0.00  0.00    +0.000 A 
ATOM     11  C   UNL     1       0.899   3.007  20.796  0.00  0.00    +0.000 A 
ATOM     12  C   UNL     1       2.119   2.971  21.487  0.00  0.00    +0.000 A 
ATOM     13  C   UNL     1       3.315   3.397  20.893  0.00  0.00    +0.000 A 
ATOM     14  C   UNL     1       3.183   3.948  19.621  0.00  0.00    +0.000 A 
ATOM     15  N   UNL     1       4.017   4.628  18.761  0.00  0.00    +0.000 N 
BRANCH  15  16
ATOM     16  C   UNL     1       5.435   4.451  18.569  0.00  0.00    +0.000 C 
ATOM     17  F   UNL     1       5.836   4.799  17.320  0.00  0.00    +0.000 F 
ATOM     18  F   UNL     1       6.162   5.208  19.433  0.00  0.00    +0.000 F 
ENDBRANCH  15  16
ENDBRANCH   4   7
BRANCH   1  21
ATOM     19  C   UNL     1       0.547  11.074  20.610  0.00  0.00    +0.000 C 
ATOM     20  O   UNL     1       1.531  11.078  21.342  0.00  0.00    +0.000 OA
ATOM     21  N   UNL     1       0.395  10.192  19.550  0.00  0.00    +0.000 N 
ATOM     22  H   UNL     1      -0.344  10.346  18.881  0.00  0.00    +0.000 HD
BRANCH  19  29
ATOM     23  C   UNL     1      -1.383  11.048  23.099  0.00  0.00    +0.000 C 
ATOM     24  C   UNL     1      -1.347  12.049  22.000  0.00  0.00    +0.000 A 
ATOM     25  N   UNL     1      -2.210  13.077  21.986  0.00  0.00    +0.000 NA
ATOM     26  O   UNL     1      -1.934  13.771  20.828  0.00  0.00    +0.000 OA
ATOM     27  C   UNL     1      -0.923  13.169  20.143  0.00  0.00    +0.000 A 
ATOM     28  C   UNL     1      -0.581  13.833  18.870  0.00  0.00    +0.000 C 
ATOM     29  C   UNL     1      -0.485  12.068  20.850  0.00  0.00    +0.000 A 
ENDBRANCH  19  29
ENDBRANCH   1  21
TORSDOF 4
ENDMDL
MODEL 9
REMARK VINA RESULT:      -8.7      2.666      3.963
REMARK  Name = 
REMARK  6 active torsions:
REMARK  status: ('A' for Active; 'I' for Inactive)
REMARK    1  A    between atoms: C_1  and  C_2
REMARK    2  A    between atoms: C_5  and  C_6
REMARK    3  A    between atoms: C_7  and  C_8
REMARK    4  A    between atoms: N_10  and  C_11
REMARK    5  A    between atoms: C_14  and  C_15
REMARK    6  A    between atoms: N_23  and  C_24
REMARK                            x       y       z     vdW  Elec       q    Type
REMARK                         _______ _______ _______ _____ _____    ______ ____
ROOT
ATOM      1  C   UNL     1       1.803   9.013  19.099  0.00  0.00    +0.000 A 
ATOM      2  C   UNL     1       1.691   7.944  19.998  0.00  0.00    +0.000 A 
ATOM      3  C   UNL     1       2.135   6.660  19.685  0.00  0.00    +0.000 A 
ATOM      4  C   UNL     1       2.628   6.393  18.412  0.00  0.00    +0.000 A 
ATOM      5  C   UNL     1       2.836   7.478  17.534  0.00  0.00    +0.000 A 
ATOM      6  C   UNL     1       2.414   8.776  17.869  0.00  0.00    +0.000 A 
ENDROOT
BRANCH   4   7
ATOM      7  C   UNL     1       2.500   5.019  17.838  0.00  0.00    +0.000 A 
ATOM      8  N   UNL     1       1.354   4.354  17.985  0.00  0.00    +0.000 NA
ATOM      9  C   UNL     1       1.621   3.652  19.142  0.00  0.00    +0.000 A 
ATOM     10  C   UNL     1       0.767   3.264  20.173  0.00  0.00    +0.000 A 
ATOM     11  C   UNL     1       1.351   2.780  21.346  0.00  0.00    +0.000 A 
ATOM     12  C   UNL     1       2.737   2.590  21.448  0.00  0.00    +0.000 A 
ATOM     13  C   UNL     1       3.601   2.877  20.383  0.00  0.00    +0.000 A 
ATOM     14  C   UNL     1       2.997   3.456  19.269  0.00  0.00    +0.000 A 
ATOM     15  N   UNL     1       3.451   4.042  18.108  0.00  0.00    +0.000 N 
BRANCH  15  16
ATOM     16  C   UNL     1       4.618   3.698  17.333  0.00  0.00    +0.000 C 
ATOM     17  F   UNL     1       4.614   4.278  16.106  0.00  0.00    +0.000 F 
ATOM     18  F   UNL     1       5.766   4.095  17.944  0.00  0.00    +0.000 F 
ENDBRANCH  15  16
ENDBRANCH   4   7
BRANCH   1  21
ATOM     19  C   UNL     1       0.171  10.835  18.733  0.00  0.00    +0.000 C 
ATOM     20  O   UNL     1      -0.515  10.196  17.942  0.00  0.00    +0.000 OA
ATOM     21  N   UNL     1       1.273  10.301  19.384  0.00  0.00    +0.000 N 
ATOM     22  H   UNL     1       1.692  10.810  20.147  0.00  0.00    +0.000 HD
BRANCH  19  29
ATOM     23  C   UNL     1       1.983  13.344  18.152  0.00  0.00    +0.000 C 
ATOM     24  C   UNL     1       0.616  13.339  18.736  0.00  0.00    +0.000 A 
ATOM     25  N   UNL     1       0.024  14.489  19.096  0.00  0.00    +0.000 NA
ATOM     26  O   UNL     1      -1.192  14.124  19.630  0.00  0.00    +0.000 OA
ATOM     27  C   UNL     1      -1.335  12.770  19.603  0.00  0.00    +0.000 A 
ATOM     28  C   UNL     1      -2.602  12.288  20.185  0.00  0.00    +0.000 C 
ATOM     29  C   UNL     1      -0.219  12.204  19.022  0.00  0.00    +0.000 A 
ENDBRANCH  19  29
ENDBRANCH   1  21
TORSDOF 4
ENDMDL
