MODEL 1
REMARK VINA RESULT:      -8.8      0.000      0.000
REMARK  Name = 
REMARK  6 active torsions:
REMARK  status: ('A' for Active; 'I' for Inactive)
REMARK    1  A    between atoms: N_2  and  N_3
REMARK    2  A    between atoms: N_3  and  C_4
REMARK    3  A    between atoms: C_4  and  C_5
REMARK    4  A    between atoms: C_9  and  C_10
REMARK    5  A    between atoms: N_16  and  C_17
REMARK    6  A    between atoms: C_21  and  N_22
REMARK                            x       y       z     vdW  Elec       q    Type
REMARK                         _______ _______ _______ _____ _____    ______ ____
ROOT
ATOM      1  C   UNL     1       0.395  11.494  19.272  0.00  0.00    +0.000 A 
ATOM      2  C   UNL     1       1.088  10.557  18.497  0.00  0.00    +0.000 A 
ATOM      3  C   UNL     1       1.398   9.340  19.074  0.00  0.00    +0.000 A 
ATOM      4  C   UNL     1       1.038   9.003  20.376  0.00  0.00    +0.000 A 
ATOM      5  C   UNL     1       0.339   9.908  21.169  0.00  0.00    +0.000 A 
ATOM      6  C   UNL     1       0.018  11.158  20.595  0.00  0.00    +0.000 A 
ATOM      7  C   UNL     1       1.541   7.626  20.681  0.00  0.00    +0.000 C 
ATOM      8  N   UNL     1       2.244   7.238  19.466  0.00  0.00    +0.000 N 
ATOM      9  C   UNL     1       2.157   8.232  18.490  0.00  0.00    +0.000 C 
ATOM     10  O   UNL     1       2.590   8.285  17.353  0.00  0.00    +0.000 OA
ENDROOT
BRANCH   8  11
ATOM     11  C   UNL     1       3.008   6.041  19.378  0.00  0.00    +0.000 A 
ATOM     12  C   UNL     1       2.684   4.916  20.138  0.00  0.00    +0.000 A 
ATOM     13  C   UNL     1       3.389   3.727  19.982  0.00  0.00    +0.000 A 
ATOM     14  C   UNL     1       4.439   3.649  19.069  0.00  0.00    +0.000 A 
ATOM     15  C   UNL     1       4.826   4.749  18.294  0.00  0.00    +0.000 A 
ATOM     16  C   UNL     1       4.091   5.937  18.479  0.00  0.00    +0.000 A 
BRANCH  15  17
ATOM     17  N   UNL     1       5.825   4.656  17.355  0.00  0.00    +0.000 N 
ATOM     18  C   UNL     1       5.654   4.133  16.016  0.00  0.00    +0.000 C 
ATOM     19  C   UNL     1       6.971   4.521  15.370  0.00  0.00    +0.000 C 
ATOM     20  O   UNL     1       7.952   4.477  16.417  0.00  0.00    +0.000 OA
ATOM     21  C   UNL     1       7.244   4.642  17.658  0.00  0.00    +0.000 C 
ENDBRANCH  15  17
ENDBRANCH   8  11
BRANCH   5  22
ATOM     22  C   UNL     1      -0.062   9.613  22.590  0.00  0.00    +0.000 C 
ATOM     23  F   UNL     1      -0.696  10.647  23.209  0.00  0.00    +0.000 F 
ATOM     24  F   UNL     1      -0.910   8.550  22.679  0.00  0.00    +0.000 F 
ATOM     25  F   UNL     1       1.006   9.308  23.377  0.00  0.00    +0.000 F 
ENDBRANCH   5  22
BRANCH   1  26
ATOM     26  C   UNL     1       0.042  12.841  18.687  0.00  0.00    +0.000 C 
BRANCH  26  27
ATOM     27  N   UNL     1      -1.390  12.931  18.396  0.00  0.00    +0.000 N 
ATOM     28  H   UNL     1      -1.586  13.843  17.978  0.00  0.00    +0.000 HD
BRANCH  27  30
ATOM     29  C   UNL     1      -3.053  11.506  18.075  0.00  0.00    +0.000 C 
ATOM     30  N   UNL     1      -1.901  11.914  17.661  0.00  0.00    +0.000 NA
ENDBRANCH  27  30
ENDBRANCH  26  27
ENDBRANCH   1  26
TORSDOF 6
ENDMDL
MODEL 2
REMARK VINA RESULT:      -8.5      1.091      1.622
REMARK  Name = 
REMARK  6 active torsions:
REMARK  status: ('A' for Active; 'I' for Inactive)
REMARK    1  A    between atoms: N_2  and  N_3
REMARK    2  A    between atoms: N_3  and  C_4
REMARK    3  A    between atoms: C_4  and  C_5
REMARK    4  A    between atoms: C_9  and  C_10
REMARK    5  A    between atoms: N_16  and  C_17
REMARK    6  A    between atoms: C_21  and  N_22
REMARK                            x       y       z     vdW  Elec       q    Type
REMARK                         _______ _______ _______ _____ _____    ______ ____
ROOT
ATOM      1  C   UNL     1       0.405  11.588  19.318  0.00  0.00    +0.000 A 
ATOM      2  C   UNL     1       1.084  10.643  18.539  0.00  0.00    +0.000 A 
ATOM      3  C   UNL     1       1.365   9.415  19.106  0.00  0.00    +0.000 A 
ATOM      4  C   UNL     1       0.992   9.073  20.402  0.00  0.00    +0.000 A 
ATOM      5  C   UNL     1       0.307   9.986  21.200  0.00  0.00    +0.000 A 
ATOM      6  C   UNL     1       0.015  11.247  20.636  0.00  0.00    +0.000 A 
ATOM      7  C   UNL     1       1.464   7.684  20.697  0.00  0.00    +0.000 C 
ATOM      8  N   UNL     1       2.166   7.292  19.483  0.00  0.00    +0.000 N 
ATOM      9  C   UNL     1       2.104   8.297  18.516  0.00  0.00    +0.000 C 
ATOM     10  O   UNL     1       2.545   8.351  17.382  0.00  0.00    +0.000 OA
ENDROOT
BRANCH   8  11
ATOM     11  C   UNL     1       2.905   6.081  19.388  0.00  0.00    +0.000 A 
ATOM     12  C   UNL     1       2.534   4.945  20.110  0.00  0.00    +0.000 A 
ATOM     13  C   UNL     1       3.217   3.744  19.945  0.00  0.00    +0.000 A 
ATOM     14  C   UNL     1       4.292   3.665  19.062  0.00  0.00    +0.000 A 
ATOM     15  C   UNL     1       4.727   4.774  18.327  0.00  0.00    +0.000 A 
ATOM     16  C   UNL     1       4.013   5.974  18.520  0.00  0.00    +0.000 A 
BRANCH  15  17
ATOM     17  N   UNL     1       5.751   4.682  17.416  0.00  0.00    +0.000 N 
ATOM     18  C   UNL     1       5.627   4.122  16.087  0.00  0.00    +0.000 C 
ATOM     19  C   UNL     1       6.952   4.524  15.465  0.00  0.00    +0.000 C 
ATOM     20  O   UNL     1       7.906   4.528  16.538  0.00  0.00    +0.000 OA
ATOM     21  C   UNL     1       7.162   4.708  17.755  0.00  0.00    +0.000 C 
ENDBRANCH  15  17
ENDBRANCH   8  11
BRANCH   5  22
ATOM     22  C   UNL     1      -0.108   9.685  22.617  0.00  0.00    +0.000 C 
ATOM     23  F   UNL     1      -0.781  10.705  23.219  0.00  0.00    +0.000 F 
ATOM     24  F   UNL     1      -0.926   8.600  22.698  0.00  0.00    +0.000 F 
ATOM     25  F   UNL     1       0.956   9.416  23.422  0.00  0.00    +0.000 F 
ENDBRANCH   5  22
BRANCH   1  26
ATOM     26  C   UNL     1       0.084  12.946  18.744  0.00  0.00    +0.000 C 
BRANCH  26  27
ATOM     27  N   UNL     1       0.775  14.007  19.479  0.00  0.00    +0.000 N 
ATOM     28  H   UNL     1       0.721  13.805  20.480  0.00  0.00    +0.000 HD
BRANCH  27  30
ATOM     29  C   UNL     1       2.929  14.032  19.989  0.00  0.00    +0.000 C 
ATOM     30  N   UNL     1       2.044  14.263  19.079  0.00  0.00    +0.000 NA
ENDBRANCH  27  30
ENDBRANCH  26  27
ENDBRANCH   1  26
TORSDOF 6
ENDMDL
MODEL 3
REMARK VINA RESULT:      -8.5      0.834      1.411
REMARK  Name = 
REMARK  6 active torsions:
REMARK  status: ('A' for Active; 'I' for Inactive)
REMARK    1  A    between atoms: N_2  and  N_3
REMARK    2  A    between atoms: N_3  and  C_4
REMARK    3  A    between atoms: C_4  and  C_5
REMARK    4  A    between atoms: C_9  and  C_10
REMARK    5  A    between atoms: N_16  and  C_17
REMARK    6  A    between atoms: C_21  and  N_22
REMARK                            x       y       z     vdW  Elec       q    Type
REMARK                         _______ _______ _______ _____ _____    ______ ____
ROOT
ATOM      1  C   UNL     1       0.385  11.599  19.241  0.00  0.00    +0.000 A 
ATOM      2  C   UNL     1       1.069  10.651  18.471  0.00  0.00    +0.000 A 
ATOM      3  C   UNL     1       1.367   9.434  19.055  0.00  0.00    +0.000 A 
ATOM      4  C   UNL     1       1.004   9.108  20.358  0.00  0.00    +0.000 A 
ATOM      5  C   UNL     1       0.314  10.025  21.146  0.00  0.00    +0.000 A 
ATOM      6  C   UNL     1       0.005  11.274  20.565  0.00  0.00    +0.000 A 
ATOM      7  C   UNL     1       1.493   7.728  20.671  0.00  0.00    +0.000 C 
ATOM      8  N   UNL     1       2.193   7.325  19.458  0.00  0.00    +0.000 N 
ATOM      9  C   UNL     1       2.115   8.315  18.477  0.00  0.00    +0.000 C 
ATOM     10  O   UNL     1       2.549   8.357  17.340  0.00  0.00    +0.000 OA
ENDROOT
BRANCH   8  11
ATOM     11  C   UNL     1       2.944   6.121  19.378  0.00  0.00    +0.000 A 
ATOM     12  C   UNL     1       2.598   4.997  20.130  0.00  0.00    +0.000 A 
ATOM     13  C   UNL     1       3.293   3.801  19.980  0.00  0.00    +0.000 A 
ATOM     14  C   UNL     1       4.353   3.714  19.081  0.00  0.00    +0.000 A 
ATOM     15  C   UNL     1       4.763   4.812  18.314  0.00  0.00    +0.000 A 
ATOM     16  C   UNL     1       4.038   6.008  18.493  0.00  0.00    +0.000 A 
BRANCH  15  17
ATOM     17  N   UNL     1       5.773   4.711  17.388  0.00  0.00    +0.000 N 
ATOM     18  C   UNL     1       5.611   4.207  16.041  0.00  0.00    +0.000 C 
ATOM     19  C   UNL     1       6.944   4.577  15.418  0.00  0.00    +0.000 C 
ATOM     20  O   UNL     1       7.909   4.501  16.478  0.00  0.00    +0.000 OA
ATOM     21  C   UNL     1       7.187   4.665  17.711  0.00  0.00    +0.000 C 
ENDBRANCH  15  17
ENDBRANCH   8  11
BRANCH   5  22
ATOM     22  C   UNL     1      -0.090   9.741  22.569  0.00  0.00    +0.000 C 
ATOM     23  F   UNL     1       0.959   9.470  23.394  0.00  0.00    +0.000 F 
ATOM     24  F   UNL     1      -0.751  10.786  23.139  0.00  0.00    +0.000 F 
ATOM     25  F   UNL     1      -0.925   8.670  22.667  0.00  0.00    +0.000 F 
ENDBRANCH   5  22
BRANCH   1  26
ATOM     26  C   UNL     1       0.046  12.946  18.648  0.00  0.00    +0.000 C 
BRANCH  26  27
ATOM     27  N   UNL     1      -1.062  13.575  19.369  0.00  0.00    +0.000 N 
ATOM     28  H   UNL     1      -1.263  13.028  20.209  0.00  0.00    +0.000 HD
BRANCH  27  30
ATOM     29  C   UNL     1       0.329  15.265  19.703  0.00  0.00    +0.000 C 
ATOM     30  N   UNL     1      -0.905  14.893  19.645  0.00  0.00    +0.000 NA
ENDBRANCH  27  30
ENDBRANCH  26  27
ENDBRANCH   1  26
TORSDOF 6
ENDMDL
MODEL 4
REMARK VINA RESULT:      -8.4      2.721      8.248
REMARK  Name = 
REMARK  6 active torsions:
REMARK  status: ('A' for Active; 'I' for Inactive)
REMARK    1  A    between atoms: N_2  and  N_3
REMARK    2  A    between atoms: N_3  and  C_4
REMARK    3  A    between atoms: C_4  and  C_5
REMARK    4  A    between atoms: C_9  and  C_10
REMARK    5  A    between atoms: N_16  and  C_17
REMARK    6  A    between atoms: C_21  and  N_22
REMARK                            x       y       z     vdW  Elec       q    Type
REMARK                         _______ _______ _______ _____ _____    ______ ____
ROOT
ATOM      1  C   UNL     1       4.216   6.038  17.385  0.00  0.00    +0.000 A 
ATOM      2  C   UNL     1       3.726   7.343  17.257  0.00  0.00    +0.000 A 
ATOM      3  C   UNL     1       2.767   7.767  18.157  0.00  0.00    +0.000 A 
ATOM      4  C   UNL     1       2.284   6.966  19.187  0.00  0.00    +0.000 A 
ATOM      5  C   UNL     1       2.758   5.666  19.348  0.00  0.00    +0.000 A 
ATOM      6  C   UNL     1       3.735   5.216  18.434  0.00  0.00    +0.000 A 
ATOM      7  C   UNL     1       1.252   7.729  19.958  0.00  0.00    +0.000 C 
ATOM      8  N   UNL     1       1.166   9.002  19.255  0.00  0.00    +0.000 N 
ATOM      9  C   UNL     1       2.071   9.055  18.193  0.00  0.00    +0.000 C 
ATOM     10  O   UNL     1       2.314   9.935  17.386  0.00  0.00    +0.000 OA
ENDROOT
BRANCH   8  11
ATOM     11  C   UNL     1       0.188   9.982  19.574  0.00  0.00    +0.000 A 
ATOM     12  C   UNL     1       0.355  10.852  20.653  0.00  0.00    +0.000 A 
ATOM     13  C   UNL     1      -0.572  11.859  20.904  0.00  0.00    +0.000 A 
ATOM     14  C   UNL     1      -1.688  12.004  20.082  0.00  0.00    +0.000 A 
ATOM     15  C   UNL     1      -1.924  11.151  18.998  0.00  0.00    +0.000 A 
ATOM     16  C   UNL     1      -0.966  10.141  18.775  0.00  0.00    +0.000 A 
BRANCH  15  17
ATOM     17  N   UNL     1      -2.995  11.329  18.157  0.00  0.00    +0.000 N 
ATOM     18  C   UNL     1      -4.318  11.735  18.579  0.00  0.00    +0.000 C 
ATOM     19  C   UNL     1      -4.984  12.026  17.246  0.00  0.00    +0.000 C 
ATOM     20  O   UNL     1      -4.396  11.116  16.305  0.00  0.00    +0.000 OA
ATOM     21  C   UNL     1      -3.113  10.740  16.836  0.00  0.00    +0.000 C 
ENDBRANCH  15  17
ENDBRANCH   8  11
BRANCH   5  22
ATOM     22  C   UNL     1       2.261   4.742  20.429  0.00  0.00    +0.000 C 
ATOM     23  F   UNL     1       0.924   4.493  20.366  0.00  0.00    +0.000 F 
ATOM     24  F   UNL     1       2.869   3.524  20.388  0.00  0.00    +0.000 F 
ATOM     25  F   UNL     1       2.490   5.234  21.676  0.00  0.00    +0.000 F 
ENDBRANCH   5  22
BRANCH   1  26
ATOM     26  C   UNL     1       5.258   5.527  16.419  0.00  0.00    +0.000 C 
BRANCH  26  27
ATOM     27  N   UNL     1       6.211   6.580  16.065  0.00  0.00    +0.000 N 
ATOM     28  H   UNL     1       5.773   7.490  16.225  0.00  0.00    +0.000 HD
BRANCH  27  30
ATOM     29  C   UNL     1       7.652   7.423  17.519  0.00  0.00    +0.000 C 
ATOM     30  N   UNL     1       7.427   6.490  16.657  0.00  0.00    +0.000 NA
ENDBRANCH  27  30
ENDBRANCH  26  27
ENDBRANCH   1  26
TORSDOF 6
ENDMDL
MODEL 5
REMARK VINA RESULT:      -8.4      2.737      8.368
REMARK  Name = 
REMARK  6 active torsions:
REMARK  status: ('A' for Active; 'I' for Inactive)
REMARK    1  A    between atoms: N_2  and  N_3
REMARK    2  A    between atoms: N_3  and  C_4
REMARK    3  A    between atoms: C_4  and  C_5
REMARK    4  A    between atoms: C_9  and  C_10
REMARK    5  A    between atoms: N_16  and  C_17
REMARK    6  A    between atoms: C_21  and  N_22
REMARK                            x       y       z     vdW  Elec       q    Type
REMARK                         _______ _______ _______ _____ _____    ______ ____
ROOT
ATOM      1  C   UNL     1       4.153   5.956  17.311  0.00  0.00    +0.000 A 
ATOM      2  C   UNL     1       3.718   7.283  17.233  0.00  0.00    +0.000 A 
ATOM      3  C   UNL     1       2.817   7.728  18.182  0.00  0.00    +0.000 A 
ATOM      4  C   UNL     1       2.342   6.925  19.214  0.00  0.00    +0.000 A 
ATOM      5  C   UNL     1       2.764   5.603  19.327  0.00  0.00    +0.000 A 
ATOM      6  C   UNL     1       3.681   5.132  18.362  0.00  0.00    +0.000 A 
ATOM      7  C   UNL     1       1.379   7.714  20.045  0.00  0.00    +0.000 C 
ATOM      8  N   UNL     1       1.320   9.006  19.374  0.00  0.00    +0.000 N 
ATOM      9  C   UNL     1       2.181   9.044  18.275  0.00  0.00    +0.000 C 
ATOM     10  O   UNL     1       2.429   9.931  17.478  0.00  0.00    +0.000 OA
ENDROOT
BRANCH   8  11
ATOM     11  C   UNL     1       0.400  10.020  19.755  0.00  0.00    +0.000 A 
ATOM     12  C   UNL     1       0.688  10.909  20.793  0.00  0.00    +0.000 A 
ATOM     13  C   UNL     1      -0.186  11.947  21.101  0.00  0.00    +0.000 A 
ATOM     14  C   UNL     1      -1.368  12.105  20.381  0.00  0.00    +0.000 A 
ATOM     15  C   UNL     1      -1.724  11.234  19.344  0.00  0.00    +0.000 A 
ATOM     16  C   UNL     1      -0.817  10.193  19.061  0.00  0.00    +0.000 A 
BRANCH  15  17
ATOM     17  N   UNL     1      -2.862  11.422  18.599  0.00  0.00    +0.000 N 
ATOM     18  C   UNL     1      -2.915  11.408  17.153  0.00  0.00    +0.000 C 
ATOM     19  C   UNL     1      -4.412  11.391  16.905  0.00  0.00    +0.000 C 
ATOM     20  O   UNL     1      -4.999  12.129  17.988  0.00  0.00    +0.000 OA
ATOM     21  C   UNL     1      -4.063  12.081  19.079  0.00  0.00    +0.000 C 
ENDBRANCH  15  17
ENDBRANCH   8  11
BRANCH   5  22
ATOM     22  C   UNL     1       2.273   4.676  20.408  0.00  0.00    +0.000 C 
ATOM     23  F   UNL     1       0.934   4.428  20.352  0.00  0.00    +0.000 F 
ATOM     24  F   UNL     1       2.879   3.457  20.360  0.00  0.00    +0.000 F 
ATOM     25  F   UNL     1       2.508   5.164  21.655  0.00  0.00    +0.000 F 
ENDBRANCH   5  22
BRANCH   1  26
ATOM     26  C   UNL     1       5.130   5.422  16.291  0.00  0.00    +0.000 C 
BRANCH  26  27
ATOM     27  N   UNL     1       6.395   6.158  16.336  0.00  0.00    +0.000 N 
ATOM     28  H   UNL     1       6.714   6.208  17.306  0.00  0.00    +0.000 HD
BRANCH  27  30
ATOM     29  C   UNL     1       6.972   4.756  14.723  0.00  0.00    +0.000 C 
ATOM     30  N   UNL     1       7.364   5.706  15.504  0.00  0.00    +0.000 NA
ENDBRANCH  27  30
ENDBRANCH  26  27
ENDBRANCH   1  26
TORSDOF 6
ENDMDL
MODEL 6
REMARK VINA RESULT:      -8.4      2.597      8.234
REMARK  Name = 
REMARK  6 active torsions:
REMARK  status: ('A' for Active; 'I' for Inactive)
REMARK    1  A    between atoms: N_2  and  N_3
REMARK    2  A    between atoms: N_3  and  C_4
REMARK    3  A    between atoms: C_4  and  C_5
REMARK    4  A    between atoms: C_9  and  C_10
REMARK    5  A    between atoms: N_16  and  C_17
REMARK    6  A    between atoms: C_21  and  N_22
REMARK                            x       y       z     vdW  Elec       q    Type
REMARK                         _______ _______ _______ _____ _____    ______ ____
ROOT
ATOM      1  C   UNL     1       4.418   5.650  17.587  0.00  0.00    +0.000 A 
ATOM      2  C   UNL     1       4.010   6.974  17.385  0.00  0.00    +0.000 A 
ATOM      3  C   UNL     1       3.019   7.480  18.204  0.00  0.00    +0.000 A 
ATOM      4  C   UNL     1       2.426   6.742  19.224  0.00  0.00    +0.000 A 
ATOM      5  C   UNL     1       2.816   5.427  19.458  0.00  0.00    +0.000 A 
ATOM      6  C   UNL     1       3.825   4.893  18.627  0.00  0.00    +0.000 A 
ATOM      7  C   UNL     1       1.389   7.586  19.899  0.00  0.00    +0.000 C 
ATOM      8  N   UNL     1       1.420   8.836  19.151  0.00  0.00    +0.000 N 
ATOM      9  C   UNL     1       2.393   8.804  18.151  0.00  0.00    +0.000 C 
ATOM     10  O   UNL     1       2.737   9.640  17.335  0.00  0.00    +0.000 OA
ENDROOT
BRANCH   8  11
ATOM     11  C   UNL     1       0.477   9.877  19.372  0.00  0.00    +0.000 A 
ATOM     12  C   UNL     1       0.665  10.825  20.379  0.00  0.00    +0.000 A 
ATOM     13  C   UNL     1      -0.224  11.885  20.531  0.00  0.00    +0.000 A 
ATOM     14  C   UNL     1      -1.321  12.007  19.681  0.00  0.00    +0.000 A 
ATOM     15  C   UNL     1      -1.576  11.077  18.666  0.00  0.00    +0.000 A 
ATOM     16  C   UNL     1      -0.657  10.015  18.543  0.00  0.00    +0.000 A 
BRANCH  15  17
ATOM     17  N   UNL     1      -2.627  11.227  17.794  0.00  0.00    +0.000 N 
ATOM     18  C   UNL     1      -4.016  11.336  18.186  0.00  0.00    +0.000 C 
ATOM     19  C   UNL     1      -4.668  11.747  16.878  0.00  0.00    +0.000 C 
ATOM     20  O   UNL     1      -3.896  11.123  15.841  0.00  0.00    +0.000 OA
ATOM     21  C   UNL     1      -2.591  10.870  16.388  0.00  0.00    +0.000 C 
ENDBRANCH  15  17
ENDBRANCH   8  11
BRANCH   5  22
ATOM     22  C   UNL     1       2.200   4.569  20.532  0.00  0.00    +0.000 C 
ATOM     23  F   UNL     1       2.398   5.042  21.794  0.00  0.00    +0.000 F 
ATOM     24  F   UNL     1       0.851   4.447  20.388  0.00  0.00    +0.000 F 
ATOM     25  F   UNL     1       2.694   3.301  20.529  0.00  0.00    +0.000 F 
ENDBRANCH   5  22
BRANCH   1  26
ATOM     26  C   UNL     1       5.491   5.051  16.710  0.00  0.00    +0.000 C 
BRANCH  26  27
ATOM     27  N   UNL     1       6.117   6.073  15.870  0.00  0.00    +0.000 N 
ATOM     28  H   UNL     1       6.313   6.897  16.442  0.00  0.00    +0.000 HD
BRANCH  27  30
ATOM     29  C   UNL     1       6.930   4.842  14.219  0.00  0.00    +0.000 C 
ATOM     30  N   UNL     1       7.206   5.668  15.172  0.00  0.00    +0.000 NA
ENDBRANCH  27  30
ENDBRANCH  26  27
ENDBRANCH   1  26
TORSDOF 6
ENDMDL
MODEL 7
REMARK VINA RESULT:      -8.3      2.671      8.382
REMARK  Name = 
REMARK  6 active torsions:
REMARK  status: ('A' for Active; 'I' for Inactive)
REMARK    1  A    between atoms: N_2  and  N_3
REMARK    2  A    between atoms: N_3  and  C_4
REMARK    3  A    between atoms: C_4  and  C_5
REMARK    4  A    between atoms: C_9  and  C_10
REMARK    5  A    between atoms: N_16  and  C_17
REMARK    6  A    between atoms: C_21  and  N_22
REMARK                            x       y       z     vdW  Elec       q    Type
REMARK                         _______ _______ _______ _____ _____    ______ ____
ROOT
ATOM      1  C   UNL     1       4.240   5.728  17.369  0.00  0.00    +0.000 A 
ATOM      2  C   UNL     1       3.811   7.056  17.263  0.00  0.00    +0.000 A 
ATOM      3  C   UNL     1       2.902   7.521  18.195  0.00  0.00    +0.000 A 
ATOM      4  C   UNL     1       2.412   6.737  19.235  0.00  0.00    +0.000 A 
ATOM      5  C   UNL     1       2.827   5.415  19.375  0.00  0.00    +0.000 A 
ATOM      6  C   UNL     1       3.752   4.924  18.428  0.00  0.00    +0.000 A 
ATOM      7  C   UNL     1       1.443   7.544  20.042  0.00  0.00    +0.000 C 
ATOM      8  N   UNL     1       1.398   8.824  19.348  0.00  0.00    +0.000 N 
ATOM      9  C   UNL     1       2.271   8.841  18.259  0.00  0.00    +0.000 C 
ATOM     10  O   UNL     1       2.532   9.713  17.449  0.00  0.00    +0.000 OA
ENDROOT
BRANCH   8  11
ATOM     11  C   UNL     1       0.479   9.849  19.702  0.00  0.00    +0.000 A 
ATOM     12  C   UNL     1       0.740  10.728  20.755  0.00  0.00    +0.000 A 
ATOM     13  C   UNL     1      -0.131  11.776  21.038  0.00  0.00    +0.000 A 
ATOM     14  C   UNL     1      -1.283  11.954  20.276  0.00  0.00    +0.000 A 
ATOM     15  C   UNL     1      -1.612  11.095  19.222  0.00  0.00    +0.000 A 
ATOM     16  C   UNL     1      -0.710  10.043  18.965  0.00  0.00    +0.000 A 
BRANCH  15  17
ATOM     17  N   UNL     1      -2.720  11.303  18.436  0.00  0.00    +0.000 N 
ATOM     18  C   UNL     1      -2.710  11.349  16.990  0.00  0.00    +0.000 C 
ATOM     19  C   UNL     1      -4.195  11.329  16.677  0.00  0.00    +0.000 C 
ATOM     20  O   UNL     1      -4.836  12.015  17.763  0.00  0.00    +0.000 OA
ATOM     21  C   UNL     1      -3.948  11.930  18.890  0.00  0.00    +0.000 C 
ENDBRANCH  15  17
ENDBRANCH   8  11
BRANCH   5  22
ATOM     22  C   UNL     1       2.319   4.509  20.466  0.00  0.00    +0.000 C 
ATOM     23  F   UNL     1       2.555   4.978  21.723  0.00  0.00    +0.000 F 
ATOM     24  F   UNL     1       0.974   4.309  20.390  0.00  0.00    +0.000 F 
ATOM     25  F   UNL     1       2.887   3.273  20.418  0.00  0.00    +0.000 F 
ENDBRANCH   5  22
BRANCH   1  26
ATOM     26  C   UNL     1       5.225   5.173  16.369  0.00  0.00    +0.000 C 
BRANCH  26  27
ATOM     27  N   UNL     1       6.100   4.175  16.988  0.00  0.00    +0.000 N 
ATOM     28  H   UNL     1       5.980   3.283  16.502  0.00  0.00    +0.000 HD
BRANCH  27  30
ATOM     29  C   UNL     1       7.657   5.285  18.104  0.00  0.00    +0.000 C 
ATOM     30  N   UNL     1       7.405   4.527  17.091  0.00  0.00    +0.000 NA
ENDBRANCH  27  30
ENDBRANCH  26  27
ENDBRANCH   1  26
TORSDOF 6
ENDMDL
MODEL 8
REMARK VINA RESULT:      -8.3      1.269      1.956
REMARK  Name = 
REMARK  6 active torsions:
REMARK  status: ('A' for Active; 'I' for Inactive)
REMARK    1  A    between atoms: N_2  and  N_3
REMARK    2  A    between atoms: N_3  and  C_4
REMARK    3  A    between atoms: C_4  and  C_5
REMARK    4  A    between atoms: C_9  and  C_10
REMARK    5  A    between atoms: N_16  and  C_17
REMARK    6  A    between atoms: C_21  and  N_22
REMARK                            x       y       z     vdW  Elec       q    Type
REMARK                         _______ _______ _______ _____ _____    ______ ____
ROOT
ATOM      1  C   UNL     1       0.061  11.826  19.596  0.00  0.00    +0.000 A 
ATOM      2  C   UNL     1       0.748  10.965  18.732  0.00  0.00    +0.000 A 
ATOM      3  C   UNL     1       1.105   9.717  19.207  0.00  0.00    +0.000 A 
ATOM      4  C   UNL     1       0.799   9.277  20.492  0.00  0.00    +0.000 A 
ATOM      5  C   UNL     1       0.108  10.105  21.372  0.00  0.00    +0.000 A 
ATOM      6  C   UNL     1      -0.260  11.385  20.903  0.00  0.00    +0.000 A 
ATOM      7  C   UNL     1       1.343   7.895  20.678  0.00  0.00    +0.000 C 
ATOM      8  N   UNL     1       2.012   7.614  19.414  0.00  0.00    +0.000 N 
ATOM      9  C   UNL     1       1.867   8.674  18.518  0.00  0.00    +0.000 C 
ATOM     10  O   UNL     1       2.259   8.820  17.374  0.00  0.00    +0.000 OA
ENDROOT
BRANCH   8  11
ATOM     11  C   UNL     1       2.798   6.446  19.214  0.00  0.00    +0.000 A 
ATOM     12  C   UNL     1       2.614   5.303  19.993  0.00  0.00    +0.000 A 
ATOM     13  C   UNL     1       3.334   4.141  19.732  0.00  0.00    +0.000 A 
ATOM     14  C   UNL     1       4.259   4.110  18.691  0.00  0.00    +0.000 A 
ATOM     15  C   UNL     1       4.505   5.229  17.887  0.00  0.00    +0.000 A 
ATOM     16  C   UNL     1       3.760   6.389  18.182  0.00  0.00    +0.000 A 
BRANCH  15  17
ATOM     17  N   UNL     1       5.377   5.181  16.827  0.00  0.00    +0.000 N 
ATOM     18  C   UNL     1       6.714   4.630  16.881  0.00  0.00    +0.000 C 
ATOM     19  C   UNL     1       7.087   4.595  15.410  0.00  0.00    +0.000 C 
ATOM     20  O   UNL     1       6.416   5.712  14.808  0.00  0.00    +0.000 OA
ATOM     21  C   UNL     1       5.296   6.030  15.652  0.00  0.00    +0.000 C 
ENDBRANCH  15  17
ENDBRANCH   8  11
BRANCH   5  22
ATOM     22  C   UNL     1      -0.235   9.697  22.781  0.00  0.00    +0.000 C 
ATOM     23  F   UNL     1       0.853   9.453  23.563  0.00  0.00    +0.000 F 
ATOM     24  F   UNL     1      -0.956  10.649  23.435  0.00  0.00    +0.000 F 
ATOM     25  F   UNL     1      -0.985   8.562  22.823  0.00  0.00    +0.000 F 
ENDBRANCH   5  22
BRANCH   1  26
ATOM     26  C   UNL     1      -0.342  13.202  19.124  0.00  0.00    +0.000 C 
BRANCH  26  27
ATOM     27  N   UNL     1       0.815  13.950  18.629  0.00  0.00    +0.000 N 
ATOM     28  H   UNL     1       0.484  14.737  18.067  0.00  0.00    +0.000 HD
BRANCH  27  30
ATOM     29  C   UNL     1       2.934  14.279  19.178  0.00  0.00    +0.000 C 
ATOM     30  N   UNL     1       1.707  14.337  19.573  0.00  0.00    +0.000 NA
ENDBRANCH  27  30
ENDBRANCH  26  27
ENDBRANCH   1  26
TORSDOF 6
ENDMDL
MODEL 9
REMARK VINA RESULT:      -8.1      3.249      8.345
REMARK  Name = 
REMARK  6 active torsions:
REMARK  status: ('A' for Active; 'I' for Inactive)
REMARK    1  A    between atoms: N_2  and  N_3
REMARK    2  A    between atoms: N_3  and  C_4
REMARK    3  A    between atoms: C_4  and  C_5
REMARK    4  A    between atoms: C_9  and  C_10
REMARK    5  A    between atoms: N_16  and  C_17
REMARK    6  A    between atoms: C_21  and  N_22
REMARK                            x       y       z     vdW  Elec       q    Type
REMARK                         _______ _______ _______ _____ _____    ______ ____
ROOT
ATOM      1  C   UNL     1       5.059   4.217  16.281  0.00  0.00    +0.000 A 
ATOM      2  C   UNL     1       4.762   5.556  16.562  0.00  0.00    +0.000 A 
ATOM      3  C   UNL     1       3.914   5.825  17.619  0.00  0.00    +0.000 A 
ATOM      4  C   UNL     1       3.358   4.831  18.419  0.00  0.00    +0.000 A 
ATOM      5  C   UNL     1       3.642   3.490  18.173  0.00  0.00    +0.000 A 
ATOM      6  C   UNL     1       4.505   3.199  17.094  0.00  0.00    +0.000 A 
ATOM      7  C   UNL     1       2.482   5.468  19.453  0.00  0.00    +0.000 C 
ATOM      8  N   UNL     1       2.557   6.889  19.142  0.00  0.00    +0.000 N 
ATOM      9  C   UNL     1       3.417   7.127  18.068  0.00  0.00    +0.000 C 
ATOM     10  O   UNL     1       3.754   8.162  17.522  0.00  0.00    +0.000 OA
ENDROOT
BRANCH   8  11
ATOM     11  C   UNL     1       1.747   7.855  19.799  0.00  0.00    +0.000 A 
ATOM     12  C   UNL     1       1.282   7.649  21.099  0.00  0.00    +0.000 A 
ATOM     13  C   UNL     1       0.559   8.638  21.759  0.00  0.00    +0.000 A 
ATOM     14  C   UNL     1       0.281   9.846  21.122  0.00  0.00    +0.000 A 
ATOM     15  C   UNL     1       0.701  10.104  19.812  0.00  0.00    +0.000 A 
ATOM     16  C   UNL     1       1.429   9.080  19.173  0.00  0.00    +0.000 A 
BRANCH  15  17
ATOM     17  N   UNL     1       0.475  11.315  19.205  0.00  0.00    +0.000 N 
ATOM     18  C   UNL     1       1.152  12.549  19.545  0.00  0.00    +0.000 C 
ATOM     19  C   UNL     1       0.718  13.455  18.407  0.00  0.00    +0.000 C 
ATOM     20  O   UNL     1      -0.604  13.026  18.045  0.00  0.00    +0.000 OA
ATOM     21  C   UNL     1      -0.730  11.659  18.472  0.00  0.00    +0.000 C 
ENDBRANCH  15  17
ENDBRANCH   8  11
BRANCH   5  22
ATOM     22  C   UNL     1       3.058   2.367  18.989  0.00  0.00    +0.000 C 
ATOM     23  F   UNL     1       3.401   2.410  20.306  0.00  0.00    +0.000 F 
ATOM     24  F   UNL     1       1.697   2.358  18.960  0.00  0.00    +0.000 F 
ATOM     25  F   UNL     1       3.452   1.144  18.542  0.00  0.00    +0.000 F 
ENDBRANCH   5  22
BRANCH   1  26
ATOM     26  C   UNL     1       5.974   3.875  15.130  0.00  0.00    +0.000 C 
BRANCH  26  27
ATOM     27  N   UNL     1       7.234   4.616  15.219  0.00  0.00    +0.000 N 
ATOM     28  H   UNL     1       8.005   3.949  15.300  0.00  0.00    +0.000 HD
BRANCH  27  30
ATOM     29  C   UNL     1       7.860   5.003  13.132  0.00  0.00    +0.000 C 
ATOM     30  N   UNL     1       7.447   5.525  14.237  0.00  0.00    +0.000 NA
ENDBRANCH  27  30
ENDBRANCH  26  27
ENDBRANCH   1  26
TORSDOF 6
ENDMDL
