MODEL 1
REMARK VINA RESULT:      -8.9      0.000      0.000
REMARK  Name = 
REMARK  5 active torsions:
REMARK  status: ('A' for Active; 'I' for Inactive)
REMARK    1  A    between atoms: C_1  and  C_2
REMARK    2  A    between atoms: C_5  and  S_6
REMARK    3  A    between atoms: S_6  and  N_9
REMARK    4  A    between atoms: N_9  and  C_10
REMARK    5  A    between atoms: C_13  and  C_14
REMARK                            x       y       z     vdW  Elec       q    Type
REMARK                         _______ _______ _______ _____ _____    ______ ____
ROOT
ATOM      1  C   UNL     1       2.664   5.687  19.218  0.00  0.00    +0.000 A 
ATOM      2  C   UNL     1       2.008   5.794  20.447  0.00  0.00    +0.000 A 
ATOM      3  C   UNL     1       1.475   7.028  20.855  0.00  0.00    +0.000 A 
ATOM      4  C   UNL     1       1.586   8.156  20.033  0.00  0.00    +0.000 A 
ATOM      5  C   UNL     1       2.251   8.020  18.807  0.00  0.00    +0.000 A 
ATOM      6  C   UNL     1       2.766   6.796  18.390  0.00  0.00    +0.000 A 
ENDROOT
BRANCH   4   7
ATOM      7  C   UNL     1       1.034   9.446  20.461  0.00  0.00    +0.000 A 
ATOM      8  N   UNL     1       1.179   9.984  21.656  0.00  0.00    +0.000 NA
ATOM      9  N   UNL     1       0.571  11.213  21.661  0.00  0.00    +0.000 NA
ATOM     10  C   UNL     1       0.033  11.413  20.478  0.00  0.00    +0.000 A 
ATOM     11  N   UNL     1       0.260  10.303  19.700  0.00  0.00    +0.000 N 
ATOM     12  C   UNL     1      -0.263  10.051  18.372  0.00  0.00    +0.000 C 
ATOM     13  C   UNL     1      -1.695  10.510  18.172  0.00  0.00    +0.000 C 
ATOM     14  C   UNL     1      -1.814  11.998  17.867  0.00  0.00    +0.000 C 
ATOM     15  C   UNL     1      -0.809  12.895  18.591  0.00  0.00    +0.000 C 
ATOM     16  C   UNL     1      -0.740  12.628  20.090  0.00  0.00    +0.000 C 
ENDBRANCH   4   7
BRANCH   1  17
ATOM     17  N   UNL     1       3.269   4.472  18.807  0.00  0.00    +0.000 N 
ATOM     18  H   UNL     1       2.722   3.621  18.932  0.00  0.00    +0.000 HD
BRANCH  17  19
ATOM     19  S   UNL     1       4.928   4.227  19.012  0.00  0.00    +0.000 S 
ATOM     20  O   UNL     1       5.139   2.867  19.479  0.00  0.00    +0.000 OA
ATOM     21  O   UNL     1       5.432   5.356  19.752  0.00  0.00    +0.000 OA
BRANCH  19  26
ATOM     22  C   UNL     1       7.307   4.826  13.445  0.00  0.00    +0.000 C 
ATOM     23  C   UNL     1       6.694   4.662  14.805  0.00  0.00    +0.000 A 
ATOM     24  C   UNL     1       5.346   4.307  14.954  0.00  0.00    +0.000 A 
ATOM     25  C   UNL     1       4.784   4.155  16.228  0.00  0.00    +0.000 A 
ATOM     26  C   UNL     1       5.590   4.335  17.359  0.00  0.00    +0.000 A 
ATOM     27  C   UNL     1       6.926   4.719  17.215  0.00  0.00    +0.000 A 
ATOM     28  C   UNL     1       7.479   4.871  15.947  0.00  0.00    +0.000 A 
ENDBRANCH  19  26
ENDBRANCH  17  19
ENDBRANCH   1  17
TORSDOF 4
ENDMDL
MODEL 2
REMARK VINA RESULT:      -8.7      0.194      1.327
REMARK  Name = 
REMARK  5 active torsions:
REMARK  status: ('A' for Active; 'I' for Inactive)
REMARK    1  A    between atoms: C_1  and  C_2
REMARK    2  A    between atoms: C_5  and  S_6
REMARK    3  A    between atoms: S_6  and  N_9
REMARK    4  A    between atoms: N_9  and  C_10
REMARK    5  A    between atoms: C_13  and  C_14
REMARK                            x       y       z     vdW  Elec       q    Type
REMARK                         _______ _______ _______ _____ _____    ______ ____
ROOT
ATOM      1  C   UNL     1       2.755   5.848  19.241  0.00  0.00    +0.000 A 
ATOM      2  C   UNL     1       2.848   6.965  18.408  0.00  0.00    +0.000 A 
ATOM      3  C   UNL     1       2.258   8.180  18.791  0.00  0.00    +0.000 A 
ATOM      4  C   UNL     1       1.583   8.288  20.013  0.00  0.00    +0.000 A 
ATOM      5  C   UNL     1       1.503   7.151  20.828  0.00  0.00    +0.000 A 
ATOM      6  C   UNL     1       2.100   5.949  20.461  0.00  0.00    +0.000 A 
ENDROOT
BRANCH   4   7
ATOM      7  C   UNL     1       0.963   9.556  20.411  0.00  0.00    +0.000 A 
ATOM      8  N   UNL     1       1.080  10.131  21.593  0.00  0.00    +0.000 NA
ATOM      9  N   UNL     1       0.407  11.325  21.570  0.00  0.00    +0.000 NA
ATOM     10  C   UNL     1      -0.142  11.466  20.383  0.00  0.00    +0.000 A 
ATOM     11  N   UNL     1       0.144  10.352  19.631  0.00  0.00    +0.000 N 
ATOM     12  C   UNL     1      -0.366  10.040  18.310  0.00  0.00    +0.000 C 
ATOM     13  C   UNL     1      -1.821  10.416  18.102  0.00  0.00    +0.000 C 
ATOM     14  C   UNL     1      -2.020  11.888  17.762  0.00  0.00    +0.000 C 
ATOM     15  C   UNL     1      -1.064  12.855  18.462  0.00  0.00    +0.000 C 
ATOM     16  C   UNL     1      -0.980  12.628  19.967  0.00  0.00    +0.000 C 
ENDBRANCH   4   7
BRANCH   1  17
ATOM     17  N   UNL     1       3.283   4.591  18.853  0.00  0.00    +0.000 N 
ATOM     18  H   UNL     1       2.693   3.775  19.015  0.00  0.00    +0.000 HD
BRANCH  17  19
ATOM     19  S   UNL     1       4.931   4.260  19.027  0.00  0.00    +0.000 S 
ATOM     20  O   UNL     1       5.082   2.873  19.432  0.00  0.00    +0.000 OA
ATOM     21  O   UNL     1       5.494   5.331  19.809  0.00  0.00    +0.000 OA
BRANCH  19  26
ATOM     22  C   UNL     1       7.004   4.542  13.315  0.00  0.00    +0.000 C 
ATOM     23  C   UNL     1       6.521   4.487  14.734  0.00  0.00    +0.000 A 
ATOM     24  C   UNL     1       7.402   4.681  15.807  0.00  0.00    +0.000 A 
ATOM     25  C   UNL     1       6.940   4.629  17.129  0.00  0.00    +0.000 A 
ATOM     26  C   UNL     1       5.580   4.409  17.372  0.00  0.00    +0.000 A 
ATOM     27  C   UNL     1       4.702   4.185  16.306  0.00  0.00    +0.000 A 
ATOM     28  C   UNL     1       5.167   4.235  14.995  0.00  0.00    +0.000 A 
ENDBRANCH  19  26
ENDBRANCH  17  19
ENDBRANCH   1  17
TORSDOF 4
ENDMDL
MODEL 3
REMARK VINA RESULT:      -8.6      4.223      9.475
REMARK  Name = 
REMARK  5 active torsions:
REMARK  status: ('A' for Active; 'I' for Inactive)
REMARK    1  A    between atoms: C_1  and  C_2
REMARK    2  A    between atoms: C_5  and  S_6
REMARK    3  A    between atoms: S_6  and  N_9
REMARK    4  A    between atoms: N_9  and  C_10
REMARK    5  A    between atoms: C_13  and  C_14
REMARK                            x       y       z     vdW  Elec       q    Type
REMARK                         _______ _______ _______ _____ _____    ______ ____
ROOT
ATOM      1  C   UNL     1       1.158  10.090  19.135  0.00  0.00    +0.000 A 
ATOM      2  C   UNL     1       1.766   9.666  17.952  0.00  0.00    +0.000 A 
ATOM      3  C   UNL     1       2.384   8.407  17.890  0.00  0.00    +0.000 A 
ATOM      4  C   UNL     1       2.387   7.561  19.006  0.00  0.00    +0.000 A 
ATOM      5  C   UNL     1       1.772   8.014  20.181  0.00  0.00    +0.000 A 
ATOM      6  C   UNL     1       1.143   9.254  20.242  0.00  0.00    +0.000 A 
ENDROOT
BRANCH   4   7
ATOM      7  C   UNL     1       3.037   6.248  18.943  0.00  0.00    +0.000 A 
ATOM      8  N   UNL     1       4.054   5.931  18.165  0.00  0.00    +0.000 NA
ATOM      9  N   UNL     1       4.419   4.635  18.426  0.00  0.00    +0.000 NA
ATOM     10  C   UNL     1       3.609   4.154  19.343  0.00  0.00    +0.000 A 
ATOM     11  N   UNL     1       2.690   5.123  19.668  0.00  0.00    +0.000 N 
ATOM     12  C   UNL     1       1.544   4.974  20.544  0.00  0.00    +0.000 C 
ATOM     13  C   UNL     1       0.832   3.642  20.415  0.00  0.00    +0.000 C 
ATOM     14  C   UNL     1       1.500   2.522  21.204  0.00  0.00    +0.000 C 
ATOM     15  C   UNL     1       3.028   2.581  21.255  0.00  0.00    +0.000 C 
ATOM     16  C   UNL     1       3.665   2.764  19.883  0.00  0.00    +0.000 C 
ENDBRANCH   4   7
BRANCH   1  17
ATOM     17  N   UNL     1       0.583  11.382  19.249  0.00  0.00    +0.000 N 
ATOM     18  H   UNL     1       0.901  11.959  20.027  0.00  0.00    +0.000 HD
BRANCH  17  19
ATOM     19  S   UNL     1      -1.040  11.637  18.856  0.00  0.00    +0.000 S 
ATOM     20  O   UNL     1      -1.581  10.404  18.310  0.00  0.00    +0.000 OA
ATOM     21  O   UNL     1      -1.104  12.872  18.117  0.00  0.00    +0.000 OA
BRANCH  19  26
ATOM     22  C   UNL     1      -3.798  12.841  24.143  0.00  0.00    +0.000 C 
ATOM     23  C   UNL     1      -3.096  12.524  22.855  0.00  0.00    +0.000 A 
ATOM     24  C   UNL     1      -1.835  11.911  22.849  0.00  0.00    +0.000 A 
ATOM     25  C   UNL     1      -1.189  11.618  21.640  0.00  0.00    +0.000 A 
ATOM     26  C   UNL     1      -1.829  11.917  20.432  0.00  0.00    +0.000 A 
ATOM     27  C   UNL     1      -3.072  12.556  20.433  0.00  0.00    +0.000 A 
ATOM     28  C   UNL     1      -3.708  12.848  21.637  0.00  0.00    +0.000 A 
ENDBRANCH  19  26
ENDBRANCH  17  19
ENDBRANCH   1  17
TORSDOF 4
ENDMDL
MODEL 4
REMARK VINA RESULT:      -8.5      4.199      9.436
REMARK  Name = 
REMARK  5 active torsions:
REMARK  status: ('A' for Active; 'I' for Inactive)
REMARK    1  A    between atoms: C_1  and  C_2
REMARK    2  A    between atoms: C_5  and  S_6
REMARK    3  A    between atoms: S_6  and  N_9
REMARK    4  A    between atoms: N_9  and  C_10
REMARK    5  A    between atoms: C_13  and  C_14
REMARK                            x       y       z     vdW  Elec       q    Type
REMARK                         _______ _______ _______ _____ _____    ______ ____
ROOT
ATOM      1  C   UNL     1       1.081  10.148  19.264  0.00  0.00    +0.000 A 
ATOM      2  C   UNL     1       1.120   9.286  20.362  0.00  0.00    +0.000 A 
ATOM      3  C   UNL     1       1.744   8.034  20.252  0.00  0.00    +0.000 A 
ATOM      4  C   UNL     1       2.343   7.641  19.049  0.00  0.00    +0.000 A 
ATOM      5  C   UNL     1       2.287   8.525  17.963  0.00  0.00    +0.000 A 
ATOM      6  C   UNL     1       1.684   9.775  18.071  0.00  0.00    +0.000 A 
ENDROOT
BRANCH   4   7
ATOM      7  C   UNL     1       2.991   6.331  18.933  0.00  0.00    +0.000 A 
ATOM      8  N   UNL     1       3.983   6.035  18.115  0.00  0.00    +0.000 NA
ATOM      9  N   UNL     1       4.357   4.733  18.331  0.00  0.00    +0.000 NA
ATOM     10  C   UNL     1       3.577   4.229  19.262  0.00  0.00    +0.000 A 
ATOM     11  N   UNL     1       2.668   5.188  19.640  0.00  0.00    +0.000 N 
ATOM     12  C   UNL     1       1.551   5.016  20.549  0.00  0.00    +0.000 C 
ATOM     13  C   UNL     1       0.836   3.686  20.409  0.00  0.00    +0.000 C 
ATOM     14  C   UNL     1       1.530   2.548  21.149  0.00  0.00    +0.000 C 
ATOM     15  C   UNL     1       3.058   2.608  21.152  0.00  0.00    +0.000 C 
ATOM     16  C   UNL     1       3.651   2.826  19.765  0.00  0.00    +0.000 C 
ENDBRANCH   4   7
BRANCH   1  17
ATOM     17  N   UNL     1       0.402  11.392  19.323  0.00  0.00    +0.000 N 
ATOM     18  H   UNL     1       0.681  12.033  20.065  0.00  0.00    +0.000 HD
BRANCH  17  19
ATOM     19  S   UNL     1      -1.243  11.490  18.948  0.00  0.00    +0.000 S 
ATOM     20  O   UNL     1      -1.724  10.156  18.634  0.00  0.00    +0.000 OA
ATOM     21  O   UNL     1      -1.397  12.578  18.016  0.00  0.00    +0.000 OA
BRANCH  19  26
ATOM     22  C   UNL     1      -3.777  12.949  24.283  0.00  0.00    +0.000 C 
ATOM     23  C   UNL     1      -3.175  12.609  22.951  0.00  0.00    +0.000 A 
ATOM     24  C   UNL     1      -3.868  12.855  21.758  0.00  0.00    +0.000 A 
ATOM     25  C   UNL     1      -3.296  12.535  20.520  0.00  0.00    +0.000 A 
ATOM     26  C   UNL     1      -2.008  11.988  20.481  0.00  0.00    +0.000 A 
ATOM     27  C   UNL     1      -1.325  11.712  21.670  0.00  0.00    +0.000 A 
ATOM     28  C   UNL     1      -1.900  12.030  22.897  0.00  0.00    +0.000 A 
ENDBRANCH  19  26
ENDBRANCH  17  19
ENDBRANCH   1  17
TORSDOF 4
ENDMDL
MODEL 5
REMARK VINA RESULT:      -8.5      3.903      9.574
REMARK  Name = 
REMARK  5 active torsions:
REMARK  status: ('A' for Active; 'I' for Inactive)
REMARK    1  A    between atoms: C_1  and  C_2
REMARK    2  A    between atoms: C_5  and  S_6
REMARK    3  A    between atoms: S_6  and  N_9
REMARK    4  A    between atoms: N_9  and  C_10
REMARK    5  A    between atoms: C_13  and  C_14
REMARK                            x       y       z     vdW  Elec       q    Type
REMARK                         _______ _______ _______ _____ _____    ______ ____
ROOT
ATOM      1  C   UNL     1       1.180   9.828  19.449  0.00  0.00    +0.000 A 
ATOM      2  C   UNL     1       1.625   9.752  18.127  0.00  0.00    +0.000 A 
ATOM      3  C   UNL     1       2.278   8.596  17.670  0.00  0.00    +0.000 A 
ATOM      4  C   UNL     1       2.479   7.508  18.528  0.00  0.00    +0.000 A 
ATOM      5  C   UNL     1       2.025   7.613  19.849  0.00  0.00    +0.000 A 
ATOM      6  C   UNL     1       1.362   8.750  20.303  0.00  0.00    +0.000 A 
ENDROOT
BRANCH   4   7
ATOM      7  C   UNL     1       3.166   6.303  18.051  0.00  0.00    +0.000 A 
ATOM      8  N   UNL     1       4.199   6.281  17.231  0.00  0.00    +0.000 NA
ATOM      9  N   UNL     1       4.598   4.980  17.062  0.00  0.00    +0.000 NA
ATOM     10  C   UNL     1       3.792   4.207  17.757  0.00  0.00    +0.000 A 
ATOM     11  N   UNL     1       2.843   4.995  18.364  0.00  0.00    +0.000 N 
ATOM     12  C   UNL     1       1.694   4.542  19.122  0.00  0.00    +0.000 C 
ATOM     13  C   UNL     1       1.020   3.309  18.552  0.00  0.00    +0.000 C 
ATOM     14  C   UNL     1       1.711   2.008  18.945  0.00  0.00    +0.000 C 
ATOM     15  C   UNL     1       3.236   2.082  19.040  0.00  0.00    +0.000 C 
ATOM     16  C   UNL     1       3.882   2.719  17.814  0.00  0.00    +0.000 C 
ENDBRANCH   4   7
BRANCH   1  17
ATOM     17  N   UNL     1       0.576  11.006  19.959  0.00  0.00    +0.000 N 
ATOM     18  H   UNL     1       0.695  11.189  20.955  0.00  0.00    +0.000 HD
BRANCH  17  19
ATOM     19  S   UNL     1      -0.913  11.535  19.362  0.00  0.00    +0.000 S 
ATOM     20  O   UNL     1      -1.584  10.409  18.734  0.00  0.00    +0.000 OA
ATOM     21  O   UNL     1      -0.666  12.755  18.637  0.00  0.00    +0.000 OA
BRANCH  19  26
ATOM     22  C   UNL     1      -4.033  12.737  24.444  0.00  0.00    +0.000 C 
ATOM     23  C   UNL     1      -3.282  12.463  23.174  0.00  0.00    +0.000 A 
ATOM     24  C   UNL     1      -3.780  12.883  21.933  0.00  0.00    +0.000 A 
ATOM     25  C   UNL     1      -3.071  12.623  20.753  0.00  0.00    +0.000 A 
ATOM     26  C   UNL     1      -1.839  11.962  20.826  0.00  0.00    +0.000 A 
ATOM     27  C   UNL     1      -1.353  11.514  22.058  0.00  0.00    +0.000 A 
ATOM     28  C   UNL     1      -2.064  11.772  23.227  0.00  0.00    +0.000 A 
ENDBRANCH  19  26
ENDBRANCH  17  19
ENDBRANCH   1  17
TORSDOF 4
ENDMDL
MODEL 6
REMARK VINA RESULT:      -8.4      3.687      9.523
REMARK  Name = 
REMARK  5 active torsions:
REMARK  status: ('A' for Active; 'I' for Inactive)
REMARK    1  A    between atoms: C_1  and  C_2
REMARK    2  A    between atoms: C_5  and  S_6
REMARK    3  A    between atoms: S_6  and  N_9
REMARK    4  A    between atoms: N_9  and  C_10
REMARK    5  A    between atoms: C_13  and  C_14
REMARK                            x       y       z     vdW  Elec       q    Type
REMARK                         _______ _______ _______ _____ _____    ______ ____
ROOT
ATOM      1  C   UNL     1       1.219   9.939  19.389  0.00  0.00    +0.000 A 
ATOM      2  C   UNL     1       1.292   8.887  20.304  0.00  0.00    +0.000 A 
ATOM      3  C   UNL     1       1.799   7.640  19.905  0.00  0.00    +0.000 A 
ATOM      4  C   UNL     1       2.245   7.442  18.593  0.00  0.00    +0.000 A 
ATOM      5  C   UNL     1       2.158   8.515  17.695  0.00  0.00    +0.000 A 
ATOM      6  C   UNL     1       1.672   9.758  18.090  0.00  0.00    +0.000 A 
ENDROOT
BRANCH   4   7
ATOM      7  C   UNL     1       2.770   6.138  18.174  0.00  0.00    +0.000 A 
ATOM      8  N   UNL     1       2.202   4.971  18.408  0.00  0.00    +0.000 NA
ATOM      9  N   UNL     1       2.955   3.990  17.817  0.00  0.00    +0.000 NA
ATOM     10  C   UNL     1       3.996   4.555  17.245  0.00  0.00    +0.000 A 
ATOM     11  N   UNL     1       3.945   5.908  17.483  0.00  0.00    +0.000 N 
ATOM     12  C   UNL     1       4.956   6.889  17.139  0.00  0.00    +0.000 C 
ATOM     13  C   UNL     1       6.381   6.407  17.333  0.00  0.00    +0.000 C 
ATOM     14  C   UNL     1       6.895   5.564  16.171  0.00  0.00    +0.000 C 
ATOM     15  C   UNL     1       5.854   4.657  15.512  0.00  0.00    +0.000 C 
ATOM     16  C   UNL     1       5.069   3.820  16.515  0.00  0.00    +0.000 C 
ENDBRANCH   4   7
BRANCH   1  17
ATOM     17  N   UNL     1       0.652  11.190  19.744  0.00  0.00    +0.000 N 
ATOM     18  H   UNL     1       0.848  11.533  20.683  0.00  0.00    +0.000 HD
BRANCH  17  19
ATOM     19  S   UNL     1      -0.882  11.626  19.187  0.00  0.00    +0.000 S 
ATOM     20  O   UNL     1      -1.500  10.460  18.578  0.00  0.00    +0.000 OA
ATOM     21  O   UNL     1      -0.730  12.858  18.456  0.00  0.00    +0.000 OA
BRANCH  19  26
ATOM     22  C   UNL     1      -3.944  12.639  24.345  0.00  0.00    +0.000 C 
ATOM     23  C   UNL     1      -3.208  12.412  23.058  0.00  0.00    +0.000 A 
ATOM     24  C   UNL     1      -3.733  12.854  21.835  0.00  0.00    +0.000 A 
ATOM     25  C   UNL     1      -3.038  12.638  20.638  0.00  0.00    +0.000 A 
ATOM     26  C   UNL     1      -1.793  11.998  20.675  0.00  0.00    +0.000 A 
ATOM     27  C   UNL     1      -1.280  11.528  21.888  0.00  0.00    +0.000 A 
ATOM     28  C   UNL     1      -1.977  11.744  23.074  0.00  0.00    +0.000 A 
ENDBRANCH  19  26
ENDBRANCH  17  19
ENDBRANCH   1  17
TORSDOF 4
ENDMDL
MODEL 7
REMARK VINA RESULT:      -8.4      2.006      2.818
REMARK  Name = 
REMARK  5 active torsions:
REMARK  status: ('A' for Active; 'I' for Inactive)
REMARK    1  A    between atoms: C_1  and  C_2
REMARK    2  A    between atoms: C_5  and  S_6
REMARK    3  A    between atoms: S_6  and  N_9
REMARK    4  A    between atoms: N_9  and  C_10
REMARK    5  A    between atoms: C_13  and  C_14
REMARK                            x       y       z     vdW  Elec       q    Type
REMARK                         _______ _______ _______ _____ _____    ______ ____
ROOT
ATOM      1  C   UNL     1       2.330   7.331  19.703  0.00  0.00    +0.000 A 
ATOM      2  C   UNL     1       1.546   7.921  20.697  0.00  0.00    +0.000 A 
ATOM      3  C   UNL     1       0.834   9.100  20.425  0.00  0.00    +0.000 A 
ATOM      4  C   UNL     1       0.892   9.688  19.156  0.00  0.00    +0.000 A 
ATOM      5  C   UNL     1       1.688   9.076  18.179  0.00  0.00    +0.000 A 
ATOM      6  C   UNL     1       2.382   7.899  18.437  0.00  0.00    +0.000 A 
ENDROOT
BRANCH   4   7
ATOM      7  C   UNL     1       0.151  10.922  18.873  0.00  0.00    +0.000 A 
ATOM      8  N   UNL     1      -1.123  10.994  18.538  0.00  0.00    +0.000 NA
ATOM      9  N   UNL     1      -1.469  12.314  18.409  0.00  0.00    +0.000 NA
ATOM     10  C   UNL     1      -0.402  13.046  18.640  0.00  0.00    +0.000 A 
ATOM     11  N   UNL     1       0.659  12.208  18.893  0.00  0.00    +0.000 N 
ATOM     12  C   UNL     1       2.045  12.592  19.077  0.00  0.00    +0.000 C 
ATOM     13  C   UNL     1       2.506  13.709  18.160  0.00  0.00    +0.000 C 
ATOM     14  C   UNL     1       2.122  15.097  18.661  0.00  0.00    +0.000 C 
ATOM     15  C   UNL     1       0.768  15.185  19.366  0.00  0.00    +0.000 C 
ATOM     16  C   UNL     1      -0.362  14.536  18.575  0.00  0.00    +0.000 C 
ENDBRANCH   4   7
BRANCH   1  17
ATOM     17  N   UNL     1       3.112   6.178  19.965  0.00  0.00    +0.000 N 
ATOM     18  H   UNL     1       4.085   6.333  20.228  0.00  0.00    +0.000 HD
BRANCH  17  19
ATOM     19  S   UNL     1       2.886   4.765  19.068  0.00  0.00    +0.000 S 
ATOM     20  O   UNL     1       1.573   4.817  18.449  0.00  0.00    +0.000 OA
ATOM     21  O   UNL     1       3.269   3.664  19.914  0.00  0.00    +0.000 OA
BRANCH  19  26
ATOM     22  C   UNL     1       7.067   4.896  14.650  0.00  0.00    +0.000 C 
ATOM     23  C   UNL     1       6.043   4.896  15.747  0.00  0.00    +0.000 A 
ATOM     24  C   UNL     1       6.027   5.901  16.724  0.00  0.00    +0.000 A 
ATOM     25  C   UNL     1       5.066   5.892  17.743  0.00  0.00    +0.000 A 
ATOM     26  C   UNL     1       4.098   4.881  17.763  0.00  0.00    +0.000 A 
ATOM     27  C   UNL     1       4.128   3.859  16.809  0.00  0.00    +0.000 A 
ATOM     28  C   UNL     1       5.088   3.872  15.801  0.00  0.00    +0.000 A 
ENDBRANCH  19  26
ENDBRANCH  17  19
ENDBRANCH   1  17
TORSDOF 4
ENDMDL
MODEL 8
REMARK VINA RESULT:      -8.3      1.448      2.091
REMARK  Name = 
REMARK  5 active torsions:
REMARK  status: ('A' for Active; 'I' for Inactive)
REMARK    1  A    between atoms: C_1  and  C_2
REMARK    2  A    between atoms: C_5  and  S_6
REMARK    3  A    between atoms: S_6  and  N_9
REMARK    4  A    between atoms: N_9  and  C_10
REMARK    5  A    between atoms: C_13  and  C_14
REMARK                            x       y       z     vdW  Elec       q    Type
REMARK                         _______ _______ _______ _____ _____    ______ ____
ROOT
ATOM      1  C   UNL     1       2.176   4.887  18.972  0.00  0.00    +0.000 A 
ATOM      2  C   UNL     1       2.388   6.070  18.261  0.00  0.00    +0.000 A 
ATOM      3  C   UNL     1       2.096   7.309  18.853  0.00  0.00    +0.000 A 
ATOM      4  C   UNL     1       1.603   7.372  20.162  0.00  0.00    +0.000 A 
ATOM      5  C   UNL     1       1.397   6.169  20.851  0.00  0.00    +0.000 A 
ATOM      6  C   UNL     1       1.701   4.939  20.274  0.00  0.00    +0.000 A 
ENDROOT
BRANCH   4   7
ATOM      7  C   UNL     1       1.293   8.666  20.780  0.00  0.00    +0.000 A 
ATOM      8  N   UNL     1       1.428   8.958  22.059  0.00  0.00    +0.000 NA
ATOM      9  N   UNL     1       1.094  10.275  22.246  0.00  0.00    +0.000 NA
ATOM     10  C   UNL     1       0.731  10.778  21.087  0.00  0.00    +0.000 A 
ATOM     11  N   UNL     1       0.797   9.785  20.138  0.00  0.00    +0.000 N 
ATOM     12  C   UNL     1       0.368   9.875  18.756  0.00  0.00    +0.000 C 
ATOM     13  C   UNL     1      -0.909  10.669  18.552  0.00  0.00    +0.000 C 
ATOM     14  C   UNL     1      -0.682  12.175  18.513  0.00  0.00    +0.000 C 
ATOM     15  C   UNL     1       0.412  12.696  19.448  0.00  0.00    +0.000 C 
ATOM     16  C   UNL     1       0.272  12.182  20.876  0.00  0.00    +0.000 C 
ENDBRANCH   4   7
BRANCH   1  17
ATOM     17  N   UNL     1       2.399   3.618  18.378  0.00  0.00    +0.000 N 
ATOM     18  H   UNL     1       1.624   2.956  18.405  0.00  0.00    +0.000 HD
BRANCH  17  19
ATOM     19  S   UNL     1       3.910   2.872  18.489  0.00  0.00    +0.000 S 
ATOM     20  O   UNL     1       4.013   1.879  17.433  0.00  0.00    +0.000 OA
ATOM     21  O   UNL     1       4.101   2.513  19.871  0.00  0.00    +0.000 OA
BRANCH  19  26
ATOM     22  C   UNL     1       7.754   7.463  17.415  0.00  0.00    +0.000 C 
ATOM     23  C   UNL     1       6.806   6.323  17.647  0.00  0.00    +0.000 A 
ATOM     24  C   UNL     1       6.109   5.732  16.584  0.00  0.00    +0.000 A 
ATOM     25  C   UNL     1       5.227   4.668  16.811  0.00  0.00    +0.000 A 
ATOM     26  C   UNL     1       5.067   4.177  18.112  0.00  0.00    +0.000 A 
ATOM     27  C   UNL     1       5.736   4.783  19.180  0.00  0.00    +0.000 A 
ATOM     28  C   UNL     1       6.609   5.842  18.948  0.00  0.00    +0.000 A 
ENDBRANCH  19  26
ENDBRANCH  17  19
ENDBRANCH   1  17
TORSDOF 4
ENDMDL
MODEL 9
REMARK VINA RESULT:      -8.3      3.699      9.611
REMARK  Name = 
REMARK  5 active torsions:
REMARK  status: ('A' for Active; 'I' for Inactive)
REMARK    1  A    between atoms: C_1  and  C_2
REMARK    2  A    between atoms: C_5  and  S_6
REMARK    3  A    between atoms: S_6  and  N_9
REMARK    4  A    between atoms: N_9  and  C_10
REMARK    5  A    between atoms: C_13  and  C_14
REMARK                            x       y       z     vdW  Elec       q    Type
REMARK                         _______ _______ _______ _____ _____    ______ ____
ROOT
ATOM      1  C   UNL     1       1.254   9.877  19.444  0.00  0.00    +0.000 A 
ATOM      2  C   UNL     1       1.635   9.701  18.112  0.00  0.00    +0.000 A 
ATOM      3  C   UNL     1       2.139   8.463  17.681  0.00  0.00    +0.000 A 
ATOM      4  C   UNL     1       2.255   7.393  18.577  0.00  0.00    +0.000 A 
ATOM      5  C   UNL     1       1.869   7.599  19.908  0.00  0.00    +0.000 A 
ATOM      6  C   UNL     1       1.352   8.818  20.336  0.00  0.00    +0.000 A 
ENDROOT
BRANCH   4   7
ATOM      7  C   UNL     1       2.787   6.102  18.129  0.00  0.00    +0.000 A 
ATOM      8  N   UNL     1       2.198   4.932  18.288  0.00  0.00    +0.000 NA
ATOM      9  N   UNL     1       2.969   3.968  17.692  0.00  0.00    +0.000 NA
ATOM     10  C   UNL     1       4.040   4.545  17.193  0.00  0.00    +0.000 A 
ATOM     11  N   UNL     1       3.991   5.887  17.485  0.00  0.00    +0.000 N 
ATOM     12  C   UNL     1       5.026   6.870  17.228  0.00  0.00    +0.000 C 
ATOM     13  C   UNL     1       6.436   6.364  17.467  0.00  0.00    +0.000 C 
ATOM     14  C   UNL     1       6.995   5.565  16.296  0.00  0.00    +0.000 C 
ATOM     15  C   UNL     1       5.978   4.697  15.553  0.00  0.00    +0.000 C 
ATOM     16  C   UNL     1       5.140   3.828  16.483  0.00  0.00    +0.000 C 
ENDBRANCH   4   7
BRANCH   1  17
ATOM     17  N   UNL     1       0.803  11.133  19.924  0.00  0.00    +0.000 N 
ATOM     18  H   UNL     1       1.007  11.352  20.898  0.00  0.00    +0.000 HD
BRANCH  17  19
ATOM     19  S   UNL     1      -0.666  11.777  19.394  0.00  0.00    +0.000 S 
ATOM     20  O   UNL     1      -1.320  10.795  18.545  0.00  0.00    +0.000 OA
ATOM     21  O   UNL     1      -0.395  13.110  18.921  0.00  0.00    +0.000 OA
BRANCH  19  26
ATOM     22  C   UNL     1      -4.018  12.549  24.412  0.00  0.00    +0.000 C 
ATOM     23  C   UNL     1      -3.173  12.335  23.191  0.00  0.00    +0.000 A 
ATOM     24  C   UNL     1      -1.953  11.650  23.264  0.00  0.00    +0.000 A 
ATOM     25  C   UNL     1      -1.172  11.454  22.117  0.00  0.00    +0.000 A 
ATOM     26  C   UNL     1      -1.636  11.926  20.884  0.00  0.00    +0.000 A 
ATOM     27  C   UNL     1      -2.838  12.638  20.811  0.00  0.00    +0.000 A 
ATOM     28  C   UNL     1      -3.608  12.831  21.954  0.00  0.00    +0.000 A 
ENDBRANCH  19  26
ENDBRANCH  17  19
ENDBRANCH   1  17
TORSDOF 4
ENDMDL
