MODEL 1
REMARK VINA RESULT:      -9.2      0.000      0.000
REMARK  Name = 
REMARK  8 active torsions:
REMARK  status: ('A' for Active; 'I' for Inactive)
REMARK    1  A    between atoms: C_1  and  N_2
REMARK    2  A    between atoms: N_2  and  C_3
REMARK    3  A    between atoms: C_3  and  C_4
REMARK    4  A    between atoms: C_8  and  C_9
REMARK    5  A    between atoms: N_15  and  C_16
REMARK    6  A    between atoms: C_20  and  C_21
REMARK    7  A    between atoms: C_22  and  C_23
REMARK    8  A    between atoms: C_23  and  C_24
REMARK                            x       y       z     vdW  Elec       q    Type
REMARK                         _______ _______ _______ _____ _____    ______ ____
ROOT
ATOM      1  C   UNL     1       0.228  11.648  19.387  0.00  0.00    +0.000 A 
ATOM      2  C   UNL     1       0.982  10.830  18.540  0.00  0.00    +0.000 A 
ATOM      3  C   UNL     1       1.370   9.590  19.013  0.00  0.00    +0.000 A 
ATOM      4  C   UNL     1       1.049   9.124  20.285  0.00  0.00    +0.000 A 
ATOM      5  C   UNL     1       0.319   9.920  21.159  0.00  0.00    +0.000 A 
ATOM      6  C   UNL     1      -0.098  11.183  20.685  0.00  0.00    +0.000 A 
ATOM      7  C   UNL     1       1.590   7.738  20.454  0.00  0.00    +0.000 C 
ATOM      8  N   UNL     1       2.260   7.480  19.188  0.00  0.00    +0.000 N 
ATOM      9  C   UNL     1       2.139   8.560  18.312  0.00  0.00    +0.000 C 
ATOM     10  O   UNL     1       2.525   8.707  17.167  0.00  0.00    +0.000 OA
ENDROOT
BRANCH   8  11
ATOM     11  C   UNL     1       2.960   6.276  18.921  0.00  0.00    +0.000 A 
ATOM     12  C   UNL     1       2.957   5.226  19.850  0.00  0.00    +0.000 A 
ATOM     13  C   UNL     1       3.638   4.033  19.600  0.00  0.00    +0.000 A 
ATOM     14  C   UNL     1       4.354   3.880  18.422  0.00  0.00    +0.000 A 
ATOM     15  C   UNL     1       4.373   4.913  17.484  0.00  0.00    +0.000 A 
ATOM     16  C   UNL     1       3.666   6.099  17.723  0.00  0.00    +0.000 A 
BRANCH  15  17
ATOM     17  C   UNL     1       5.119   4.736  16.279  0.00  0.00    +0.000 C 
ATOM     18  C   UNL     1       5.805   4.578  15.305  0.00  0.00    +0.000 C 
BRANCH  18  19
ATOM     19  C   UNL     1       6.689   4.339  14.160  0.00  0.00    +0.000 C 
BRANCH  19  20
ATOM     20  C   UNL     1       5.932   3.671  13.071  0.00  0.00    +0.000 A 
ATOM     21  N   UNL     1       4.724   3.958  12.632  0.00  0.00    +0.000 NA
ATOM     22  N   UNL     1       4.427   3.091  11.606  0.00  0.00    +0.000 NA
ATOM     23  C   UNL     1       5.459   2.298  11.442  0.00  0.00    +0.000 A 
ATOM     24  N   UNL     1       6.428   2.623  12.339  0.00  0.00    +0.000 N 
ATOM     25  H   UNL     1       7.323   2.172  12.462  0.00  0.00    +0.000 HD
ENDBRANCH  19  20
ENDBRANCH  18  19
ENDBRANCH  15  17
ENDBRANCH   8  11
BRANCH   5  26
ATOM     26  C   UNL     1      -0.030   9.495  22.560  0.00  0.00    +0.000 C 
ATOM     27  F   UNL     1      -0.774   8.357  22.617  0.00  0.00    +0.000 F 
ATOM     28  F   UNL     1       1.075   9.255  23.319  0.00  0.00    +0.000 F 
ATOM     29  F   UNL     1      -0.744  10.442  23.227  0.00  0.00    +0.000 F 
ENDBRANCH   5  26
BRANCH   1  30
ATOM     30  C   UNL     1      -0.249  13.001  18.907  0.00  0.00    +0.000 C 
BRANCH  30  32
ATOM     31  C   UNL     1      -2.092  11.882  17.849  0.00  0.00    +0.000 C 
ATOM     32  N   UNL     1      -1.044  12.880  17.686  0.00  0.00    +0.000 NA
ATOM     33  H   UNL     1      -1.475  13.777  17.471  0.00  0.00    +0.000 HD
ENDBRANCH  30  32
ENDBRANCH   1  30
TORSDOF 7
ENDMDL
MODEL 2
REMARK VINA RESULT:      -8.6      3.206      9.461
REMARK  Name = 
REMARK  8 active torsions:
REMARK  status: ('A' for Active; 'I' for Inactive)
REMARK    1  A    between atoms: C_1  and  N_2
REMARK    2  A    between atoms: N_2  and  C_3
REMARK    3  A    between atoms: C_3  and  C_4
REMARK    4  A    between atoms: C_8  and  C_9
REMARK    5  A    between atoms: N_15  and  C_16
REMARK    6  A    between atoms: C_20  and  C_21
REMARK    7  A    between atoms: C_22  and  C_23
REMARK    8  A    between atoms: C_23  and  C_24
REMARK                            x       y       z     vdW  Elec       q    Type
REMARK                         _______ _______ _______ _____ _____    ______ ____
ROOT
ATOM      1  C   UNL     1       4.548   5.074  17.842  0.00  0.00    +0.000 A 
ATOM      2  C   UNL     1       4.089   6.366  17.564  0.00  0.00    +0.000 A 
ATOM      3  C   UNL     1       3.092   6.886  18.368  0.00  0.00    +0.000 A 
ATOM      4  C   UNL     1       2.526   6.187  19.430  0.00  0.00    +0.000 A 
ATOM      5  C   UNL     1       2.944   4.894  19.720  0.00  0.00    +0.000 A 
ATOM      6  C   UNL     1       3.973   4.354  18.918  0.00  0.00    +0.000 A 
ATOM      7  C   UNL     1       1.510   7.054  20.107  0.00  0.00    +0.000 C 
ATOM      8  N   UNL     1       1.535   8.279  19.322  0.00  0.00    +0.000 N 
ATOM      9  C   UNL     1       2.470   8.209  18.287  0.00  0.00    +0.000 C 
ATOM     10  O   UNL     1       2.804   9.032  17.454  0.00  0.00    +0.000 OA
ENDROOT
BRANCH   8  11
ATOM     11  C   UNL     1       0.683   9.380  19.589  0.00  0.00    +0.000 A 
ATOM     12  C   UNL     1       0.847  10.146  20.752  0.00  0.00    +0.000 A 
ATOM     13  C   UNL     1       0.018  11.235  21.028  0.00  0.00    +0.000 A 
ATOM     14  C   UNL     1      -1.006  11.564  20.151  0.00  0.00    +0.000 A 
ATOM     15  C   UNL     1      -1.190  10.815  18.989  0.00  0.00    +0.000 A 
ATOM     16  C   UNL     1      -0.340   9.739  18.699  0.00  0.00    +0.000 A 
BRANCH  15  17
ATOM     17  C   UNL     1      -2.252  11.167  18.102  0.00  0.00    +0.000 C 
ATOM     18  C   UNL     1      -3.181  11.405  17.377  0.00  0.00    +0.000 C 
BRANCH  18  19
ATOM     19  C   UNL     1      -4.360  11.658  16.543  0.00  0.00    +0.000 C 
BRANCH  19  20
ATOM     20  C   UNL     1      -5.546  11.892  17.405  0.00  0.00    +0.000 A 
ATOM     21  N   UNL     1      -6.134  11.040  18.220  0.00  0.00    +0.000 NA
ATOM     22  N   UNL     1      -7.187  11.688  18.824  0.00  0.00    +0.000 NA
ATOM     23  C   UNL     1      -7.215  12.917  18.367  0.00  0.00    +0.000 A 
ATOM     24  N   UNL     1      -6.206  13.092  17.473  0.00  0.00    +0.000 N 
ATOM     25  H   UNL     1      -5.994  13.927  16.945  0.00  0.00    +0.000 HD
ENDBRANCH  19  20
ENDBRANCH  18  19
ENDBRANCH  15  17
ENDBRANCH   8  11
BRANCH   5  26
ATOM     26  C   UNL     1       2.350   4.068  20.829  0.00  0.00    +0.000 C 
ATOM     27  F   UNL     1       2.883   2.819  20.926  0.00  0.00    +0.000 F 
ATOM     28  F   UNL     1       2.522   4.642  22.051  0.00  0.00    +0.000 F 
ATOM     29  F   UNL     1       1.009   3.891  20.683  0.00  0.00    +0.000 F 
ENDBRANCH   5  26
BRANCH   1  30
ATOM     30  C   UNL     1       5.660   4.470  17.012  0.00  0.00    +0.000 C 
BRANCH  30  32
ATOM     31  C   UNL     1       7.544   5.388  18.184  0.00  0.00    +0.000 C 
ATOM     32  N   UNL     1       6.830   4.169  17.833  0.00  0.00    +0.000 NA
ATOM     33  H   UNL     1       6.535   3.703  18.689  0.00  0.00    +0.000 HD
ENDBRANCH  30  32
ENDBRANCH   1  30
TORSDOF 7
ENDMDL
MODEL 3
REMARK VINA RESULT:      -8.5      0.861      1.323
REMARK  Name = 
REMARK  8 active torsions:
REMARK  status: ('A' for Active; 'I' for Inactive)
REMARK    1  A    between atoms: C_1  and  N_2
REMARK    2  A    between atoms: N_2  and  C_3
REMARK    3  A    between atoms: C_3  and  C_4
REMARK    4  A    between atoms: C_8  and  C_9
REMARK    5  A    between atoms: N_15  and  C_16
REMARK    6  A    between atoms: C_20  and  C_21
REMARK    7  A    between atoms: C_22  and  C_23
REMARK    8  A    between atoms: C_23  and  C_24
REMARK                            x       y       z     vdW  Elec       q    Type
REMARK                         _______ _______ _______ _____ _____    ______ ____
ROOT
ATOM      1  C   UNL     1       0.640  11.798  19.423  0.00  0.00    +0.000 A 
ATOM      2  C   UNL     1       1.302  10.928  18.550  0.00  0.00    +0.000 A 
ATOM      3  C   UNL     1       1.519   9.629  18.972  0.00  0.00    +0.000 A 
ATOM      4  C   UNL     1       1.114   9.153  20.215  0.00  0.00    +0.000 A 
ATOM      5  C   UNL     1       0.473   9.997  21.114  0.00  0.00    +0.000 A 
ATOM      6  C   UNL     1       0.230  11.323  20.692  0.00  0.00    +0.000 A 
ATOM      7  C   UNL     1       1.470   7.703  20.329  0.00  0.00    +0.000 C 
ATOM      8  N   UNL     1       2.128   7.417  19.063  0.00  0.00    +0.000 N 
ATOM      9  C   UNL     1       2.165   8.541  18.236  0.00  0.00    +0.000 C 
ATOM     10  O   UNL     1       2.591   8.687  17.105  0.00  0.00    +0.000 OA
ENDROOT
BRANCH   8  11
ATOM     11  C   UNL     1       2.674   6.146  18.752  0.00  0.00    +0.000 A 
ATOM     12  C   UNL     1       2.353   5.020  19.523  0.00  0.00    +0.000 A 
ATOM     13  C   UNL     1       2.879   3.762  19.226  0.00  0.00    +0.000 A 
ATOM     14  C   UNL     1       3.758   3.613  18.163  0.00  0.00    +0.000 A 
ATOM     15  C   UNL     1       4.095   4.719  17.384  0.00  0.00    +0.000 A 
ATOM     16  C   UNL     1       3.544   5.977  17.664  0.00  0.00    +0.000 A 
BRANCH  15  17
ATOM     17  C   UNL     1       5.004   4.546  16.296  0.00  0.00    +0.000 C 
ATOM     18  C   UNL     1       5.734   4.451  15.345  0.00  0.00    +0.000 C 
BRANCH  18  19
ATOM     19  C   UNL     1       6.609   4.411  14.170  0.00  0.00    +0.000 C 
BRANCH  19  20
ATOM     20  C   UNL     1       5.939   3.675  13.068  0.00  0.00    +0.000 A 
ATOM     21  N   UNL     1       4.717   3.846  12.607  0.00  0.00    +0.000 NA
ATOM     22  N   UNL     1       4.523   2.955  11.577  0.00  0.00    +0.000 NA
ATOM     23  C   UNL     1       5.627   2.263  11.433  0.00  0.00    +0.000 A 
ATOM     24  N   UNL     1       6.545   2.678  12.347  0.00  0.00    +0.000 N 
ATOM     25  H   UNL     1       7.477   2.314  12.487  0.00  0.00    +0.000 HD
ENDBRANCH  19  20
ENDBRANCH  18  19
ENDBRANCH  15  17
ENDBRANCH   8  11
BRANCH   5  26
ATOM     26  C   UNL     1       0.043   9.559  22.488  0.00  0.00    +0.000 C 
ATOM     27  F   UNL     1      -0.669  10.502  23.165  0.00  0.00    +0.000 F 
ATOM     28  F   UNL     1      -0.746   8.450  22.455  0.00  0.00    +0.000 F 
ATOM     29  F   UNL     1       1.099   9.245  23.287  0.00  0.00    +0.000 F 
ENDBRANCH   5  26
BRANCH   1  30
ATOM     30  C   UNL     1       0.350  13.221  18.998  0.00  0.00    +0.000 C 
BRANCH  30  32
ATOM     31  C   UNL     1       0.946  15.106  20.361  0.00  0.00    +0.000 C 
ATOM     32  N   UNL     1       1.427  14.124  19.399  0.00  0.00    +0.000 NA
ATOM     33  H   UNL     1       2.180  13.588  19.826  0.00  0.00    +0.000 HD
ENDBRANCH  30  32
ENDBRANCH   1  30
TORSDOF 7
ENDMDL
MODEL 4
REMARK VINA RESULT:      -8.5      3.411      9.689
REMARK  Name = 
REMARK  8 active torsions:
REMARK  status: ('A' for Active; 'I' for Inactive)
REMARK    1  A    between atoms: C_1  and  N_2
REMARK    2  A    between atoms: N_2  and  C_3
REMARK    3  A    between atoms: C_3  and  C_4
REMARK    4  A    between atoms: C_8  and  C_9
REMARK    5  A    between atoms: N_15  and  C_16
REMARK    6  A    between atoms: C_20  and  C_21
REMARK    7  A    between atoms: C_22  and  C_23
REMARK    8  A    between atoms: C_23  and  C_24
REMARK                            x       y       z     vdW  Elec       q    Type
REMARK                         _______ _______ _______ _____ _____    ______ ____
ROOT
ATOM      1  C   UNL     1       4.066   6.005  17.400  0.00  0.00    +0.000 A 
ATOM      2  C   UNL     1       3.641   7.330  17.253  0.00  0.00    +0.000 A 
ATOM      3  C   UNL     1       2.744   7.829  18.178  0.00  0.00    +0.000 A 
ATOM      4  C   UNL     1       2.247   7.080  19.240  0.00  0.00    +0.000 A 
ATOM      5  C   UNL     1       2.632   5.755  19.404  0.00  0.00    +0.000 A 
ATOM      6  C   UNL     1       3.560   5.234  18.475  0.00  0.00    +0.000 A 
ATOM      7  C   UNL     1       1.335   7.934  20.065  0.00  0.00    +0.000 C 
ATOM      8  N   UNL     1       1.343   9.210  19.363  0.00  0.00    +0.000 N 
ATOM      9  C   UNL     1       2.176   9.177  18.244  0.00  0.00    +0.000 C 
ATOM     10  O   UNL     1       2.469  10.043  17.440  0.00  0.00    +0.000 OA
ENDROOT
BRANCH   8  11
ATOM     11  C   UNL     1       0.567  10.321  19.782  0.00  0.00    +0.000 A 
ATOM     12  C   UNL     1       1.102  11.279  20.654  0.00  0.00    +0.000 A 
ATOM     13  C   UNL     1       0.353  12.381  21.071  0.00  0.00    +0.000 A 
ATOM     14  C   UNL     1      -0.957  12.530  20.639  0.00  0.00    +0.000 A 
ATOM     15  C   UNL     1      -1.512  11.587  19.773  0.00  0.00    +0.000 A 
ATOM     16  C   UNL     1      -0.750  10.496  19.332  0.00  0.00    +0.000 A 
BRANCH  15  17
ATOM     17  C   UNL     1      -2.863  11.756  19.343  0.00  0.00    +0.000 C 
ATOM     18  C   UNL     1      -4.000  11.830  18.961  0.00  0.00    +0.000 C 
BRANCH  18  19
ATOM     19  C   UNL     1      -5.395  11.844  18.512  0.00  0.00    +0.000 C 
BRANCH  19  20
ATOM     20  C   UNL     1      -6.279  11.345  19.596  0.00  0.00    +0.000 A 
ATOM     21  N   UNL     1      -6.321  11.741  20.851  0.00  0.00    +0.000 NA
ATOM     22  N   UNL     1      -7.295  11.013  21.494  0.00  0.00    +0.000 NA
ATOM     23  C   UNL     1      -7.825  10.193  20.618  0.00  0.00    +0.000 A 
ATOM     24  N   UNL     1      -7.218  10.363  19.413  0.00  0.00    +0.000 N 
ATOM     25  H   UNL     1      -7.402   9.856  18.559  0.00  0.00    +0.000 HD
ENDBRANCH  19  20
ENDBRANCH  18  19
ENDBRANCH  15  17
ENDBRANCH   8  11
BRANCH   5  26
ATOM     26  C   UNL     1       2.104   4.876  20.506  0.00  0.00    +0.000 C 
ATOM     27  F   UNL     1       0.746   4.775  20.523  0.00  0.00    +0.000 F 
ATOM     28  F   UNL     1       2.570   3.600  20.418  0.00  0.00    +0.000 F 
ATOM     29  F   UNL     1       2.460   5.322  21.741  0.00  0.00    +0.000 F 
ENDBRANCH   5  26
BRANCH   1  30
ATOM     30  C   UNL     1       5.071   5.420  16.433  0.00  0.00    +0.000 C 
BRANCH  30  32
ATOM     31  C   UNL     1       7.084   6.244  17.449  0.00  0.00    +0.000 C 
ATOM     32  N   UNL     1       6.227   6.299  16.273  0.00  0.00    +0.000 NA
ATOM     33  H   UNL     1       6.766   6.009  15.459  0.00  0.00    +0.000 HD
ENDBRANCH  30  32
ENDBRANCH   1  30
TORSDOF 7
ENDMDL
MODEL 5
REMARK VINA RESULT:      -8.4      1.405      1.858
REMARK  Name = 
REMARK  8 active torsions:
REMARK  status: ('A' for Active; 'I' for Inactive)
REMARK    1  A    between atoms: C_1  and  N_2
REMARK    2  A    between atoms: N_2  and  C_3
REMARK    3  A    between atoms: C_3  and  C_4
REMARK    4  A    between atoms: C_8  and  C_9
REMARK    5  A    between atoms: N_15  and  C_16
REMARK    6  A    between atoms: C_20  and  C_21
REMARK    7  A    between atoms: C_22  and  C_23
REMARK    8  A    between atoms: C_23  and  C_24
REMARK                            x       y       z     vdW  Elec       q    Type
REMARK                         _______ _______ _______ _____ _____    ______ ____
ROOT
ATOM      1  C   UNL     1       0.285  11.732  19.425  0.00  0.00    +0.000 A 
ATOM      2  C   UNL     1       1.036  10.885  18.603  0.00  0.00    +0.000 A 
ATOM      3  C   UNL     1       1.374   9.639  19.096  0.00  0.00    +0.000 A 
ATOM      4  C   UNL     1       1.007   9.192  20.362  0.00  0.00    +0.000 A 
ATOM      5  C   UNL     1       0.279  10.016  21.211  0.00  0.00    +0.000 A 
ATOM      6  C   UNL     1      -0.088  11.288  20.717  0.00  0.00    +0.000 A 
ATOM      7  C   UNL     1       1.501   7.792  20.555  0.00  0.00    +0.000 C 
ATOM      8  N   UNL     1       2.195   7.504  19.309  0.00  0.00    +0.000 N 
ATOM      9  C   UNL     1       2.130   8.580  18.422  0.00  0.00    +0.000 C 
ATOM     10  O   UNL     1       2.550   8.707  17.286  0.00  0.00    +0.000 OA
ENDROOT
BRANCH   8  11
ATOM     11  C   UNL     1       2.866   6.278  19.069  0.00  0.00    +0.000 A 
ATOM     12  C   UNL     1       3.022   5.335  20.094  0.00  0.00    +0.000 A 
ATOM     13  C   UNL     1       3.676   4.122  19.873  0.00  0.00    +0.000 A 
ATOM     14  C   UNL     1       4.206   3.840  18.621  0.00  0.00    +0.000 A 
ATOM     15  C   UNL     1       4.065   4.765  17.587  0.00  0.00    +0.000 A 
ATOM     16  C   UNL     1       3.384   5.971  17.802  0.00  0.00    +0.000 A 
BRANCH  15  17
ATOM     17  C   UNL     1       4.621   4.458  16.307  0.00  0.00    +0.000 C 
ATOM     18  C   UNL     1       5.139   4.161  15.264  0.00  0.00    +0.000 C 
BRANCH  18  19
ATOM     19  C   UNL     1       5.795   3.733  14.026  0.00  0.00    +0.000 C 
BRANCH  19  20
ATOM     20  C   UNL     1       6.923   4.646  13.711  0.00  0.00    +0.000 A 
ATOM     21  N   UNL     1       7.675   5.322  14.554  0.00  0.00    +0.000 NA
ATOM     22  N   UNL     1       8.602   6.029  13.824  0.00  0.00    +0.000 NA
ATOM     23  C   UNL     1       8.397   5.767  12.556  0.00  0.00    +0.000 A 
ATOM     24  N   UNL     1       7.352   4.905  12.434  0.00  0.00    +0.000 N 
ATOM     25  H   UNL     1       6.954   4.543  11.579  0.00  0.00    +0.000 HD
ENDBRANCH  19  20
ENDBRANCH  18  19
ENDBRANCH  15  17
ENDBRANCH   8  11
BRANCH   5  26
ATOM     26  C   UNL     1      -0.119   9.613  22.606  0.00  0.00    +0.000 C 
ATOM     27  F   UNL     1      -0.959   8.542  22.646  0.00  0.00    +0.000 F 
ATOM     28  F   UNL     1       0.953   9.274  23.372  0.00  0.00    +0.000 F 
ATOM     29  F   UNL     1      -0.757  10.612  23.273  0.00  0.00    +0.000 F 
ENDBRANCH   5  26
BRANCH   1  30
ATOM     30  C   UNL     1      -0.138  13.095  18.923  0.00  0.00    +0.000 C 
BRANCH  30  32
ATOM     31  C   UNL     1       1.157  15.094  19.234  0.00  0.00    +0.000 C 
ATOM     32  N   UNL     1       1.011  13.869  18.459  0.00  0.00    +0.000 NA
ATOM     33  H   UNL     1       1.859  13.314  18.559  0.00  0.00    +0.000 HD
ENDBRANCH  30  32
ENDBRANCH   1  30
TORSDOF 7
ENDMDL
MODEL 6
REMARK VINA RESULT:      -8.4      0.670      1.319
REMARK  Name = 
REMARK  8 active torsions:
REMARK  status: ('A' for Active; 'I' for Inactive)
REMARK    1  A    between atoms: C_1  and  N_2
REMARK    2  A    between atoms: N_2  and  C_3
REMARK    3  A    between atoms: C_3  and  C_4
REMARK    4  A    between atoms: C_8  and  C_9
REMARK    5  A    between atoms: N_15  and  C_16
REMARK    6  A    between atoms: C_20  and  C_21
REMARK    7  A    between atoms: C_22  and  C_23
REMARK    8  A    between atoms: C_23  and  C_24
REMARK                            x       y       z     vdW  Elec       q    Type
REMARK                         _______ _______ _______ _____ _____    ______ ____
ROOT
ATOM      1  C   UNL     1       0.234  11.514  19.310  0.00  0.00    +0.000 A 
ATOM      2  C   UNL     1       0.986  10.687  18.469  0.00  0.00    +0.000 A 
ATOM      3  C   UNL     1       1.382   9.456  18.958  0.00  0.00    +0.000 A 
ATOM      4  C   UNL     1       1.070   9.006  20.238  0.00  0.00    +0.000 A 
ATOM      5  C   UNL     1       0.342   9.811  21.105  0.00  0.00    +0.000 A 
ATOM      6  C   UNL     1      -0.083  11.066  20.615  0.00  0.00    +0.000 A 
ATOM      7  C   UNL     1       1.617   7.625  20.424  0.00  0.00    +0.000 C 
ATOM      8  N   UNL     1       2.281   7.351  19.158  0.00  0.00    +0.000 N 
ATOM      9  C   UNL     1       2.151   8.419  18.267  0.00  0.00    +0.000 C 
ATOM     10  O   UNL     1       2.530   8.551  17.118  0.00  0.00    +0.000 OA
ENDROOT
BRANCH   8  11
ATOM     11  C   UNL     1       2.984   6.147  18.904  0.00  0.00    +0.000 A 
ATOM     12  C   UNL     1       2.942   5.087  19.821  0.00  0.00    +0.000 A 
ATOM     13  C   UNL     1       3.625   3.893  19.583  0.00  0.00    +0.000 A 
ATOM     14  C   UNL     1       4.385   3.748  18.430  0.00  0.00    +0.000 A 
ATOM     15  C   UNL     1       4.444   4.791  17.506  0.00  0.00    +0.000 A 
ATOM     16  C   UNL     1       3.735   5.979  17.731  0.00  0.00    +0.000 A 
BRANCH  15  17
ATOM     17  C   UNL     1       5.234   4.624  16.328  0.00  0.00    +0.000 C 
ATOM     18  C   UNL     1       5.891   4.553  15.324  0.00  0.00    +0.000 C 
BRANCH  18  19
ATOM     19  C   UNL     1       6.713   4.542  14.110  0.00  0.00    +0.000 C 
BRANCH  19  20
ATOM     20  C   UNL     1       6.031   3.760  13.047  0.00  0.00    +0.000 A 
ATOM     21  N   UNL     1       6.524   2.773  12.328  0.00  0.00    +0.000 NA
ATOM     22  N   UNL     1       5.538   2.337  11.473  0.00  0.00    +0.000 NA
ATOM     23  C   UNL     1       4.470   3.065  11.690  0.00  0.00    +0.000 A 
ATOM     24  N   UNL     1       4.731   3.973  12.669  0.00  0.00    +0.000 N 
ATOM     25  H   UNL     1       4.105   4.679  13.031  0.00  0.00    +0.000 HD
ENDBRANCH  19  20
ENDBRANCH  18  19
ENDBRANCH  15  17
ENDBRANCH   8  11
BRANCH   5  26
ATOM     26  C   UNL     1       0.002   9.405  22.514  0.00  0.00    +0.000 C 
ATOM     27  F   UNL     1       1.093   9.149  23.287  0.00  0.00    +0.000 F 
ATOM     28  F   UNL     1      -0.704  10.363  23.173  0.00  0.00    +0.000 F 
ATOM     29  F   UNL     1      -0.760   8.279  22.559  0.00  0.00    +0.000 F 
ENDBRANCH   5  26
BRANCH   1  30
ATOM     30  C   UNL     1      -0.251  12.858  18.813  0.00  0.00    +0.000 C 
BRANCH  30  32
ATOM     31  C   UNL     1       1.547  14.324  19.435  0.00  0.00    +0.000 C 
ATOM     32  N   UNL     1       0.859  13.676  18.327  0.00  0.00    +0.000 NA
ATOM     33  H   UNL     1       1.523  13.087  17.828  0.00  0.00    +0.000 HD
ENDBRANCH  30  32
ENDBRANCH   1  30
TORSDOF 7
ENDMDL
MODEL 7
REMARK VINA RESULT:      -8.3      4.260      9.977
REMARK  Name = 
REMARK  8 active torsions:
REMARK  status: ('A' for Active; 'I' for Inactive)
REMARK    1  A    between atoms: C_1  and  N_2
REMARK    2  A    between atoms: N_2  and  C_3
REMARK    3  A    between atoms: C_3  and  C_4
REMARK    4  A    between atoms: C_8  and  C_9
REMARK    5  A    between atoms: N_15  and  C_16
REMARK    6  A    between atoms: C_20  and  C_21
REMARK    7  A    between atoms: C_22  and  C_23
REMARK    8  A    between atoms: C_23  and  C_24
REMARK                            x       y       z     vdW  Elec       q    Type
REMARK                         _______ _______ _______ _____ _____    ______ ____
ROOT
ATOM      1  C   UNL     1       3.535   4.660  19.540  0.00  0.00    +0.000 A 
ATOM      2  C   UNL     1       2.589   5.535  20.083  0.00  0.00    +0.000 A 
ATOM      3  C   UNL     1       2.378   6.740  19.439  0.00  0.00    +0.000 A 
ATOM      4  C   UNL     1       3.060   7.119  18.286  0.00  0.00    +0.000 A 
ATOM      5  C   UNL     1       4.021   6.282  17.733  0.00  0.00    +0.000 A 
ATOM      6  C   UNL     1       4.237   5.040  18.370  0.00  0.00    +0.000 A 
ATOM      7  C   UNL     1       2.562   8.457  17.835  0.00  0.00    +0.000 C 
ATOM      8  N   UNL     1       1.570   8.806  18.841  0.00  0.00    +0.000 N 
ATOM      9  C   UNL     1       1.436   7.801  19.801  0.00  0.00    +0.000 C 
ATOM     10  O   UNL     1       0.696   7.708  20.763  0.00  0.00    +0.000 OA
ENDROOT
BRANCH   8  11
ATOM     11  C   UNL     1       0.862  10.034  18.830  0.00  0.00    +0.000 A 
ATOM     12  C   UNL     1       1.487  11.223  19.232  0.00  0.00    +0.000 A 
ATOM     13  C   UNL     1       0.805  12.441  19.222  0.00  0.00    +0.000 A 
ATOM     14  C   UNL     1      -0.526  12.486  18.830  0.00  0.00    +0.000 A 
ATOM     15  C   UNL     1      -1.168  11.315  18.428  0.00  0.00    +0.000 A 
ATOM     16  C   UNL     1      -0.475  10.097  18.411  0.00  0.00    +0.000 A 
BRANCH  15  17
ATOM     17  C   UNL     1      -2.538  11.381  18.031  0.00  0.00    +0.000 C 
ATOM     18  C   UNL     1      -3.709  11.436  17.766  0.00  0.00    +0.000 C 
BRANCH  18  19
ATOM     19  C   UNL     1      -5.149  11.538  17.511  0.00  0.00    +0.000 C 
BRANCH  19  20
ATOM     20  C   UNL     1      -5.901  11.312  18.771  0.00  0.00    +0.000 A 
ATOM     21  N   UNL     1      -5.711  11.888  19.940  0.00  0.00    +0.000 NA
ATOM     22  N   UNL     1      -6.643  11.385  20.819  0.00  0.00    +0.000 NA
ATOM     23  C   UNL     1      -7.379  10.518  20.167  0.00  0.00    +0.000 A 
ATOM     24  N   UNL     1      -6.951  10.437  18.879  0.00  0.00    +0.000 N 
ATOM     25  H   UNL     1      -7.313   9.837  18.150  0.00  0.00    +0.000 HD
ENDBRANCH  19  20
ENDBRANCH  18  19
ENDBRANCH  15  17
ENDBRANCH   8  11
BRANCH   5  26
ATOM     26  C   UNL     1       4.821   6.644  16.511  0.00  0.00    +0.000 C 
ATOM     27  F   UNL     1       4.130   7.391  15.606  0.00  0.00    +0.000 F 
ATOM     28  F   UNL     1       5.934   7.367  16.817  0.00  0.00    +0.000 F 
ATOM     29  F   UNL     1       5.259   5.549  15.834  0.00  0.00    +0.000 F 
ENDBRANCH   5  26
BRANCH   1  30
ATOM     30  C   UNL     1       3.782   3.315  20.188  0.00  0.00    +0.000 C 
BRANCH  30  32
ATOM     31  C   UNL     1       3.699   1.492  18.627  0.00  0.00    +0.000 C 
ATOM     32  N   UNL     1       4.563   2.441  19.315  0.00  0.00    +0.000 NA
ATOM     33  H   UNL     1       5.053   3.002  18.621  0.00  0.00    +0.000 HD
ENDBRANCH  30  32
ENDBRANCH   1  30
TORSDOF 7
ENDMDL
MODEL 8
REMARK VINA RESULT:      -8.3      4.169      9.750
REMARK  Name = 
REMARK  8 active torsions:
REMARK  status: ('A' for Active; 'I' for Inactive)
REMARK    1  A    between atoms: C_1  and  N_2
REMARK    2  A    between atoms: N_2  and  C_3
REMARK    3  A    between atoms: C_3  and  C_4
REMARK    4  A    between atoms: C_8  and  C_9
REMARK    5  A    between atoms: N_15  and  C_16
REMARK    6  A    between atoms: C_20  and  C_21
REMARK    7  A    between atoms: C_22  and  C_23
REMARK    8  A    between atoms: C_23  and  C_24
REMARK                            x       y       z     vdW  Elec       q    Type
REMARK                         _______ _______ _______ _____ _____    ______ ____
ROOT
ATOM      1  C   UNL     1       4.118   4.174  19.209  0.00  0.00    +0.000 A 
ATOM      2  C   UNL     1       3.162   4.949  19.873  0.00  0.00    +0.000 A 
ATOM      3  C   UNL     1       2.869   6.198  19.357  0.00  0.00    +0.000 A 
ATOM      4  C   UNL     1       3.478   6.716  18.218  0.00  0.00    +0.000 A 
ATOM      5  C   UNL     1       4.448   5.981  17.547  0.00  0.00    +0.000 A 
ATOM      6  C   UNL     1       4.748   4.696  18.053  0.00  0.00    +0.000 A 
ATOM      7  C   UNL     1       2.902   8.065  17.919  0.00  0.00    +0.000 C 
ATOM      8  N   UNL     1       1.944   8.269  18.996  0.00  0.00    +0.000 N 
ATOM      9  C   UNL     1       1.899   7.174  19.860  0.00  0.00    +0.000 C 
ATOM     10  O   UNL     1       1.209   6.956  20.839  0.00  0.00    +0.000 OA
ENDROOT
BRANCH   8  11
ATOM     11  C   UNL     1       1.184   9.459  19.132  0.00  0.00    +0.000 A 
ATOM     12  C   UNL     1       1.562  10.448  20.050  0.00  0.00    +0.000 A 
ATOM     13  C   UNL     1       0.827  11.626  20.193  0.00  0.00    +0.000 A 
ATOM     14  C   UNL     1      -0.317  11.824  19.432  0.00  0.00    +0.000 A 
ATOM     15  C   UNL     1      -0.714  10.851  18.515  0.00  0.00    +0.000 A 
ATOM     16  C   UNL     1       0.040   9.681  18.351  0.00  0.00    +0.000 A 
BRANCH  15  17
ATOM     17  C   UNL     1      -1.896  11.072  17.744  0.00  0.00    +0.000 C 
ATOM     18  C   UNL     1      -2.889  11.188  17.077  0.00  0.00    +0.000 C 
BRANCH  18  19
ATOM     19  C   UNL     1      -4.115  11.255  16.277  0.00  0.00    +0.000 C 
BRANCH  19  20
ATOM     20  C   UNL     1      -5.255  11.670  17.134  0.00  0.00    +0.000 A 
ATOM     21  N   UNL     1      -5.854  10.970  18.075  0.00  0.00    +0.000 NA
ATOM     22  N   UNL     1      -6.849  11.751  18.616  0.00  0.00    +0.000 NA
ATOM     23  C   UNL     1      -6.833  12.906  17.996  0.00  0.00    +0.000 A 
ATOM     24  N   UNL     1      -5.850  12.902  17.056  0.00  0.00    +0.000 N 
ATOM     25  H   UNL     1      -5.617  13.645  16.412  0.00  0.00    +0.000 HD
ENDBRANCH  19  20
ENDBRANCH  18  19
ENDBRANCH  15  17
ENDBRANCH   8  11
BRANCH   5  26
ATOM     26  C   UNL     1       5.174   6.494  16.333  0.00  0.00    +0.000 C 
ATOM     27  F   UNL     1       6.220   7.315  16.628  0.00  0.00    +0.000 F 
ATOM     28  F   UNL     1       5.692   5.489  15.576  0.00  0.00    +0.000 F 
ATOM     29  F   UNL     1       4.362   7.207  15.505  0.00  0.00    +0.000 F 
ENDBRANCH   5  26
BRANCH   1  30
ATOM     30  C   UNL     1       4.453   2.788  19.714  0.00  0.00    +0.000 C 
BRANCH  30  32
ATOM     31  C   UNL     1       2.708   1.778  18.410  0.00  0.00    +0.000 C 
ATOM     32  N   UNL     1       4.131   1.769  18.718  0.00  0.00    +0.000 NA
ATOM     33  H   UNL     1       4.653   1.950  17.863  0.00  0.00    +0.000 HD
ENDBRANCH  30  32
ENDBRANCH   1  30
TORSDOF 7
ENDMDL
MODEL 9
REMARK VINA RESULT:      -8.3      0.964      1.320
REMARK  Name = 
REMARK  8 active torsions:
REMARK  status: ('A' for Active; 'I' for Inactive)
REMARK    1  A    between atoms: C_1  and  N_2
REMARK    2  A    between atoms: N_2  and  C_3
REMARK    3  A    between atoms: C_3  and  C_4
REMARK    4  A    between atoms: C_8  and  C_9
REMARK    5  A    between atoms: N_15  and  C_16
REMARK    6  A    between atoms: C_20  and  C_21
REMARK    7  A    between atoms: C_22  and  C_23
REMARK    8  A    between atoms: C_23  and  C_24
REMARK                            x       y       z     vdW  Elec       q    Type
REMARK                         _______ _______ _______ _____ _____    ______ ____
ROOT
ATOM      1  C   UNL     1      -0.277  11.668  19.522  0.00  0.00    +0.000 A 
ATOM      2  C   UNL     1       0.506  10.865  18.686  0.00  0.00    +0.000 A 
ATOM      3  C   UNL     1       1.002   9.683  19.204  0.00  0.00    +0.000 A 
ATOM      4  C   UNL     1       0.762   9.260  20.507  0.00  0.00    +0.000 A 
ATOM      5  C   UNL     1       0.006  10.044  21.370  0.00  0.00    +0.000 A 
ATOM      6  C   UNL     1      -0.521  11.248  20.852  0.00  0.00    +0.000 A 
ATOM      7  C   UNL     1       1.410   7.928  20.723  0.00  0.00    +0.000 C 
ATOM      8  N   UNL     1       2.053   7.655  19.446  0.00  0.00    +0.000 N 
ATOM      9  C   UNL     1       1.821   8.677  18.524  0.00  0.00    +0.000 C 
ATOM     10  O   UNL     1       2.154   8.794  17.358  0.00  0.00    +0.000 OA
ENDROOT
BRANCH   8  11
ATOM     11  C   UNL     1       2.831   6.493  19.210  0.00  0.00    +0.000 A 
ATOM     12  C   UNL     1       2.576   5.307  19.912  0.00  0.00    +0.000 A 
ATOM     13  C   UNL     1       3.330   4.154  19.689  0.00  0.00    +0.000 A 
ATOM     14  C   UNL     1       4.372   4.176  18.772  0.00  0.00    +0.000 A 
ATOM     15  C   UNL     1       4.646   5.347  18.064  0.00  0.00    +0.000 A 
ATOM     16  C   UNL     1       3.870   6.496  18.268  0.00  0.00    +0.000 A 
BRANCH  15  17
ATOM     17  C   UNL     1       5.724   5.350  17.128  0.00  0.00    +0.000 C 
ATOM     18  C   UNL     1       6.613   5.286  16.320  0.00  0.00    +0.000 C 
BRANCH  18  19
ATOM     19  C   UNL     1       7.652   5.159  15.295  0.00  0.00    +0.000 C 
BRANCH  19  20
ATOM     20  C   UNL     1       7.074   4.567  14.062  0.00  0.00    +0.000 A 
ATOM     21  N   UNL     1       7.395   4.830  12.812  0.00  0.00    +0.000 NA
ATOM     22  N   UNL     1       6.613   4.043  11.998  0.00  0.00    +0.000 NA
ATOM     23  C   UNL     1       5.836   3.319  12.768  0.00  0.00    +0.000 A 
ATOM     24  N   UNL     1       6.088   3.614  14.071  0.00  0.00    +0.000 N 
ATOM     25  H   UNL     1       5.629   3.229  14.885  0.00  0.00    +0.000 HD
ENDBRANCH  19  20
ENDBRANCH  18  19
ENDBRANCH  15  17
ENDBRANCH   8  11
BRANCH   5  26
ATOM     26  C   UNL     1      -0.261   9.667  22.803  0.00  0.00    +0.000 C 
ATOM     27  F   UNL     1      -0.968  10.604  23.492  0.00  0.00    +0.000 F 
ATOM     28  F   UNL     1      -0.973   8.512  22.910  0.00  0.00    +0.000 F 
ATOM     29  F   UNL     1       0.884   9.470  23.510  0.00  0.00    +0.000 F 
ENDBRANCH   5  26
BRANCH   1  30
ATOM     30  C   UNL     1      -0.870  12.957  18.995  0.00  0.00    +0.000 C 
BRANCH  30  32
ATOM     31  C   UNL     1      -2.969  11.921  18.456  0.00  0.00    +0.000 C 
ATOM     32  N   UNL     1      -2.318  12.994  19.194  0.00  0.00    +0.000 NA
ATOM     33  H   UNL     1      -2.529  12.887  20.184  0.00  0.00    +0.000 HD
ENDBRANCH  30  32
ENDBRANCH   1  30
TORSDOF 7
ENDMDL
