MODEL 1
REMARK VINA RESULT:      -9.2      0.000      0.000
REMARK  Name = 
REMARK  5 active torsions:
REMARK  status: ('A' for Active; 'I' for Inactive)
REMARK    1  A    between atoms: C_4  and  N_5
REMARK    2  A    between atoms: N_5  and  C_23
REMARK    3  A    between atoms: C_6  and  C_8
REMARK    4  A    between atoms: C_11  and  C_12
REMARK    5  A    between atoms: C_16  and  C_17
REMARK                            x       y       z     vdW  Elec       q    Type
REMARK                         _______ _______ _______ _____ _____    ______ ____
ROOT
ATOM      1  C   UNL     1       5.276   4.269  17.892  0.00  0.00    +0.000 A 
ATOM      2  C   UNL     1       6.518   4.748  18.267  0.00  0.00    +0.000 A 
ATOM      3  C   UNL     1       7.248   4.990  17.075  0.00  0.00    +0.000 A 
ATOM      4  C   UNL     1       6.456   4.559  16.031  0.00  0.00    +0.000 A 
ATOM      5  O   UNL     1       5.264   4.106  16.528  0.00  0.00    +0.000 OA
ENDROOT
BRANCH   4   6
ATOM      6  C   UNL     1       6.619   4.474  14.579  0.00  0.00    +0.000 A 
ATOM      7  C   UNL     1       7.728   5.074  13.963  0.00  0.00    +0.000 A 
ATOM      8  C   UNL     1       7.880   5.063  12.576  0.00  0.00    +0.000 A 
ATOM      9  C   UNL     1       6.924   4.442  11.778  0.00  0.00    +0.000 A 
ATOM     10  C   UNL     1       5.814   3.809  12.358  0.00  0.00    +0.000 A 
ATOM     11  C   UNL     1       5.670   3.835  13.763  0.00  0.00    +0.000 A 
BRANCH  10  12
ATOM     12  C   UNL     1       4.790   3.115  11.494  0.00  0.00    +0.000 C 
ATOM     13  F   UNL     1       5.177   1.873  11.079  0.00  0.00    +0.000 F 
ATOM     14  F   UNL     1       3.601   2.939  12.135  0.00  0.00    +0.000 F 
ATOM     15  F   UNL     1       4.503   3.813  10.360  0.00  0.00    +0.000 F 
ENDBRANCH  10  12
ENDBRANCH   4   6
BRANCH   1  17
ATOM     16  N   UNL     1       2.948   4.754  18.560  0.00  0.00    +0.000 N 
ATOM     17  C   UNL     1       4.100   3.947  18.697  0.00  0.00    +0.000 C 
ATOM     18  O   UNL     1       4.126   3.036  19.528  0.00  0.00    +0.000 OA
BRANCH  16  22
ATOM     19  O   UNL     1       1.915   2.792  22.544  0.00  0.00    +0.000 OA
ATOM     20  C   UNL     1       1.780   3.173  21.393  0.00  0.00    +0.000 C 
ATOM     21  C   UNL     1       2.011   4.578  20.914  0.00  0.00    +0.000 C 
ATOM     22  C   UNL     1       1.765   4.501  19.407  0.00  0.00    +0.000 C 
ATOM     23  C   UNL     1       1.131   3.127  19.224  0.00  0.00    +0.000 C 
ATOM     24  O   UNL     1       0.555   2.725  18.227  0.00  0.00    +0.000 OA
ATOM     25  N   UNL     1       1.296   2.422  20.373  0.00  0.00    +0.000 N 
ATOM     26  H   UNL     1       0.999   1.466  20.491  0.00  0.00    +0.000 HD
ENDBRANCH  16  22
BRANCH  16  27
ATOM     27  C   UNL     1       2.925   5.952  17.742  0.00  0.00    +0.000 C 
ATOM     28  C   UNL     1       3.622   7.209  18.223  0.00  0.00    +0.000 C 
ATOM     29  C   UNL     1       2.138   7.187  18.078  0.00  0.00    +0.000 C 
ENDBRANCH  16  27
ENDBRANCH   1  17
TORSDOF 5
ENDMDL
MODEL 2
REMARK VINA RESULT:      -8.3      1.113      1.960
REMARK  Name = 
REMARK  5 active torsions:
REMARK  status: ('A' for Active; 'I' for Inactive)
REMARK    1  A    between atoms: C_4  and  N_5
REMARK    2  A    between atoms: N_5  and  C_23
REMARK    3  A    between atoms: C_6  and  C_8
REMARK    4  A    between atoms: C_11  and  C_12
REMARK    5  A    between atoms: C_16  and  C_17
REMARK                            x       y       z     vdW  Elec       q    Type
REMARK                         _______ _______ _______ _____ _____    ______ ____
ROOT
ATOM      1  C   UNL     1       4.836   5.770  17.581  0.00  0.00    +0.000 A 
ATOM      2  C   UNL     1       6.091   6.222  17.944  0.00  0.00    +0.000 A 
ATOM      3  C   UNL     1       6.929   6.082  16.808  0.00  0.00    +0.000 A 
ATOM      4  C   UNL     1       6.174   5.461  15.834  0.00  0.00    +0.000 A 
ATOM      5  O   UNL     1       4.907   5.258  16.309  0.00  0.00    +0.000 OA
ENDROOT
BRANCH   4   6
ATOM      6  C   UNL     1       6.434   4.987  14.474  0.00  0.00    +0.000 A 
ATOM      7  C   UNL     1       7.660   5.274  13.854  0.00  0.00    +0.000 A 
ATOM      8  C   UNL     1       7.913   4.888  12.538  0.00  0.00    +0.000 A 
ATOM      9  C   UNL     1       6.943   4.197  11.818  0.00  0.00    +0.000 A 
ATOM     10  C   UNL     1       5.715   3.869  12.411  0.00  0.00    +0.000 A 
ATOM     11  C   UNL     1       5.469   4.273  13.742  0.00  0.00    +0.000 A 
BRANCH  10  12
ATOM     12  C   UNL     1       4.673   3.099  11.638  0.00  0.00    +0.000 C 
ATOM     13  F   UNL     1       3.511   2.906  12.329  0.00  0.00    +0.000 F 
ATOM     14  F   UNL     1       4.317   3.721  10.480  0.00  0.00    +0.000 F 
ATOM     15  F   UNL     1       5.101   1.856  11.279  0.00  0.00    +0.000 F 
ENDBRANCH  10  12
ENDBRANCH   4   6
BRANCH   1  17
ATOM     16  N   UNL     1       3.134   4.559  18.900  0.00  0.00    +0.000 N 
ATOM     17  C   UNL     1       3.576   5.771  18.322  0.00  0.00    +0.000 C 
ATOM     18  O   UNL     1       2.876   6.783  18.387  0.00  0.00    +0.000 OA
BRANCH  16  22
ATOM     19  O   UNL     1       1.231   2.517  22.506  0.00  0.00    +0.000 OA
ATOM     20  C   UNL     1       1.321   3.027  21.401  0.00  0.00    +0.000 C 
ATOM     21  C   UNL     1       1.910   4.380  21.118  0.00  0.00    +0.000 C 
ATOM     22  C   UNL     1       1.833   4.507  19.597  0.00  0.00    +0.000 C 
ATOM     23  C   UNL     1       0.938   3.341  19.191  0.00  0.00    +0.000 C 
ATOM     24  O   UNL     1       0.410   3.180  18.104  0.00  0.00    +0.000 OA
ATOM     25  N   UNL     1       0.807   2.510  20.258  0.00  0.00    +0.000 N 
ATOM     26  H   UNL     1       0.296   1.642  20.231  0.00  0.00    +0.000 HD
ENDBRANCH  16  22
BRANCH  16  27
ATOM     27  C   UNL     1       3.819   3.297  18.693  0.00  0.00    +0.000 C 
ATOM     28  C   UNL     1       4.350   2.521  19.882  0.00  0.00    +0.000 C 
ATOM     29  C   UNL     1       5.297   3.099  18.884  0.00  0.00    +0.000 C 
ENDBRANCH  16  27
ENDBRANCH   1  17
TORSDOF 5
ENDMDL
MODEL 3
REMARK VINA RESULT:      -8.2      5.004      8.165
REMARK  Name = 
REMARK  5 active torsions:
REMARK  status: ('A' for Active; 'I' for Inactive)
REMARK    1  A    between atoms: C_4  and  N_5
REMARK    2  A    between atoms: N_5  and  C_23
REMARK    3  A    between atoms: C_6  and  C_8
REMARK    4  A    between atoms: C_11  and  C_12
REMARK    5  A    between atoms: C_16  and  C_17
REMARK                            x       y       z     vdW  Elec       q    Type
REMARK                         _______ _______ _______ _____ _____    ______ ____
ROOT
ATOM      1  C   UNL     1       2.145   7.418  19.697  0.00  0.00    +0.000 A 
ATOM      2  C   UNL     1       1.835   7.632  21.027  0.00  0.00    +0.000 A 
ATOM      3  C   UNL     1       0.955   8.744  21.075  0.00  0.00    +0.000 A 
ATOM      4  C   UNL     1       0.845   9.218  19.783  0.00  0.00    +0.000 A 
ATOM      5  O   UNL     1       1.580   8.421  18.948  0.00  0.00    +0.000 OA
ENDROOT
BRANCH   4   6
ATOM      6  C   UNL     1       0.153  10.343  19.153  0.00  0.00    +0.000 A 
ATOM      7  C   UNL     1       0.559  11.658  19.429  0.00  0.00    +0.000 A 
ATOM      8  C   UNL     1      -0.119  12.752  18.891  0.00  0.00    +0.000 A 
ATOM      9  C   UNL     1      -1.215  12.549  18.057  0.00  0.00    +0.000 A 
ATOM     10  C   UNL     1      -1.635  11.250  17.738  0.00  0.00    +0.000 A 
ATOM     11  C   UNL     1      -0.944  10.151  18.295  0.00  0.00    +0.000 A 
BRANCH  10  12
ATOM     12  C   UNL     1      -2.808  11.030  16.814  0.00  0.00    +0.000 C 
ATOM     13  F   UNL     1      -2.514  11.234  15.498  0.00  0.00    +0.000 F 
ATOM     14  F   UNL     1      -3.302   9.762  16.893  0.00  0.00    +0.000 F 
ATOM     15  F   UNL     1      -3.855  11.857  17.093  0.00  0.00    +0.000 F 
ENDBRANCH  10  12
ENDBRANCH   4   6
BRANCH   1  17
ATOM     16  N   UNL     1       2.640   5.016  19.399  0.00  0.00    +0.000 N 
ATOM     17  C   UNL     1       2.928   6.358  19.064  0.00  0.00    +0.000 C 
ATOM     18  O   UNL     1       3.863   6.623  18.305  0.00  0.00    +0.000 OA
BRANCH  16  22
ATOM     19  O   UNL     1       6.581   4.447  17.177  0.00  0.00    +0.000 OA
ATOM     20  C   UNL     1       5.430   4.243  17.526  0.00  0.00    +0.000 C 
ATOM     21  C   UNL     1       4.968   4.106  18.949  0.00  0.00    +0.000 C 
ATOM     22  C   UNL     1       3.455   3.923  18.832  0.00  0.00    +0.000 C 
ATOM     23  C   UNL     1       3.245   3.676  17.343  0.00  0.00    +0.000 C 
ATOM     24  O   UNL     1       2.231   3.248  16.818  0.00  0.00    +0.000 OA
ATOM     25  N   UNL     1       4.392   3.995  16.689  0.00  0.00    +0.000 N 
ATOM     26  H   UNL     1       4.494   3.958  15.687  0.00  0.00    +0.000 HD
ENDBRANCH  16  22
BRANCH  16  27
ATOM     27  C   UNL     1       1.682   4.655  20.428  0.00  0.00    +0.000 C 
ATOM     28  C   UNL     1       2.097   3.732  21.556  0.00  0.00    +0.000 C 
ATOM     29  C   UNL     1       1.071   3.289  20.568  0.00  0.00    +0.000 C 
ENDBRANCH  16  27
ENDBRANCH   1  17
TORSDOF 5
ENDMDL
MODEL 4
REMARK VINA RESULT:      -8.2      6.025      9.396
REMARK  Name = 
REMARK  5 active torsions:
REMARK  status: ('A' for Active; 'I' for Inactive)
REMARK    1  A    between atoms: C_4  and  N_5
REMARK    2  A    between atoms: N_5  and  C_23
REMARK    3  A    between atoms: C_6  and  C_8
REMARK    4  A    between atoms: C_11  and  C_12
REMARK    5  A    between atoms: C_16  and  C_17
REMARK                            x       y       z     vdW  Elec       q    Type
REMARK                         _______ _______ _______ _____ _____    ______ ____
ROOT
ATOM      1  C   UNL     1       2.472   7.863  18.357  0.00  0.00    +0.000 A 
ATOM      2  C   UNL     1       1.836   8.694  17.454  0.00  0.00    +0.000 A 
ATOM      3  C   UNL     1       1.025   9.582  18.206  0.00  0.00    +0.000 A 
ATOM      4  C   UNL     1       1.127   9.192  19.525  0.00  0.00    +0.000 A 
ATOM      5  O   UNL     1       1.995   8.137  19.616  0.00  0.00    +0.000 OA
ENDROOT
BRANCH   4   6
ATOM      6  C   UNL     1       0.524   9.637  20.782  0.00  0.00    +0.000 A 
ATOM      7  C   UNL     1       0.838   8.977  21.981  0.00  0.00    +0.000 A 
ATOM      8  C   UNL     1       0.233   9.339  23.185  0.00  0.00    +0.000 A 
ATOM      9  C   UNL     1      -0.694  10.377  23.213  0.00  0.00    +0.000 A 
ATOM     10  C   UNL     1      -1.015  11.076  22.040  0.00  0.00    +0.000 A 
ATOM     11  C   UNL     1      -0.400  10.694  20.826  0.00  0.00    +0.000 A 
BRANCH  10  12
ATOM     12  C   UNL     1      -2.002  12.217  22.074  0.00  0.00    +0.000 C 
ATOM     13  F   UNL     1      -1.445  13.412  22.424  0.00  0.00    +0.000 F 
ATOM     14  F   UNL     1      -2.601  12.424  20.868  0.00  0.00    +0.000 F 
ATOM     15  F   UNL     1      -3.014  12.006  22.962  0.00  0.00    +0.000 F 
ENDBRANCH  10  12
ENDBRANCH   4   6
BRANCH   1  17
ATOM     16  N   UNL     1       3.161   5.493  18.470  0.00  0.00    +0.000 N 
ATOM     17  C   UNL     1       3.485   6.831  18.147  0.00  0.00    +0.000 C 
ATOM     18  O   UNL     1       4.619   7.120  17.760  0.00  0.00    +0.000 OA
BRANCH  16  22
ATOM     19  O   UNL     1       7.673   4.980  18.876  0.00  0.00    +0.000 OA
ATOM     20  C   UNL     1       6.539   4.800  18.466  0.00  0.00    +0.000 C 
ATOM     21  C   UNL     1       5.342   4.514  19.327  0.00  0.00    +0.000 C 
ATOM     22  C   UNL     1       4.182   4.435  18.335  0.00  0.00    +0.000 C 
ATOM     23  C   UNL     1       4.879   4.388  16.981  0.00  0.00    +0.000 C 
ATOM     24  O   UNL     1       4.368   4.089  15.915  0.00  0.00    +0.000 OA
ATOM     25  N   UNL     1       6.184   4.720  17.160  0.00  0.00    +0.000 N 
ATOM     26  H   UNL     1       6.849   4.801  16.406  0.00  0.00    +0.000 HD
ENDBRANCH  16  22
BRANCH  16  27
ATOM     27  C   UNL     1       1.911   5.123  19.107  0.00  0.00    +0.000 C 
ATOM     28  C   UNL     1       1.863   4.900  20.605  0.00  0.00    +0.000 C 
ATOM     29  C   UNL     1       1.624   3.760  19.672  0.00  0.00    +0.000 C 
ENDBRANCH  16  27
ENDBRANCH   1  17
TORSDOF 5
ENDMDL
MODEL 5
REMARK VINA RESULT:      -8.2      6.124      9.435
REMARK  Name = 
REMARK  5 active torsions:
REMARK  status: ('A' for Active; 'I' for Inactive)
REMARK    1  A    between atoms: C_4  and  N_5
REMARK    2  A    between atoms: N_5  and  C_23
REMARK    3  A    between atoms: C_6  and  C_8
REMARK    4  A    between atoms: C_11  and  C_12
REMARK    5  A    between atoms: C_16  and  C_17
REMARK                            x       y       z     vdW  Elec       q    Type
REMARK                         _______ _______ _______ _____ _____    ______ ____
ROOT
ATOM      1  C   UNL     1       2.419   7.781  18.513  0.00  0.00    +0.000 A 
ATOM      2  C   UNL     1       1.900   8.647  17.569  0.00  0.00    +0.000 A 
ATOM      3  C   UNL     1       1.118   9.603  18.266  0.00  0.00    +0.000 A 
ATOM      4  C   UNL     1       1.117   9.222  19.593  0.00  0.00    +0.000 A 
ATOM      5  O   UNL     1       1.896   8.107  19.741  0.00  0.00    +0.000 OA
ENDROOT
BRANCH   4   6
ATOM      6  C   UNL     1       0.481   9.727  20.810  0.00  0.00    +0.000 A 
ATOM      7  C   UNL     1       0.081   8.831  21.814  0.00  0.00    +0.000 A 
ATOM      8  C   UNL     1      -0.582   9.276  22.958  0.00  0.00    +0.000 A 
ATOM      9  C   UNL     1      -0.852  10.631  23.122  0.00  0.00    +0.000 A 
ATOM     10  C   UNL     1      -0.446  11.560  22.153  0.00  0.00    +0.000 A 
ATOM     11  C   UNL     1       0.219  11.095  20.996  0.00  0.00    +0.000 A 
BRANCH  10  12
ATOM     12  C   UNL     1      -0.717  13.032  22.342  0.00  0.00    +0.000 C 
ATOM     13  F   UNL     1      -1.692  13.519  21.521  0.00  0.00    +0.000 F 
ATOM     14  F   UNL     1      -1.115  13.330  23.611  0.00  0.00    +0.000 F 
ATOM     15  F   UNL     1       0.384  13.801  22.107  0.00  0.00    +0.000 F 
ENDBRANCH  10  12
ENDBRANCH   4   6
BRANCH   1  17
ATOM     16  N   UNL     1       3.117   5.483  19.090  0.00  0.00    +0.000 N 
ATOM     17  C   UNL     1       3.361   6.673  18.368  0.00  0.00    +0.000 C 
ATOM     18  O   UNL     1       4.383   6.789  17.688  0.00  0.00    +0.000 OA
BRANCH  16  22
ATOM     19  O   UNL     1       7.355   4.676  17.617  0.00  0.00    +0.000 OA
ATOM     20  C   UNL     1       6.187   4.464  17.895  0.00  0.00    +0.000 C 
ATOM     21  C   UNL     1       5.547   4.758  19.222  0.00  0.00    +0.000 C 
ATOM     22  C   UNL     1       4.083   4.368  19.022  0.00  0.00    +0.000 C 
ATOM     23  C   UNL     1       4.097   3.615  17.698  0.00  0.00    +0.000 C 
ATOM     24  O   UNL     1       3.199   2.920  17.252  0.00  0.00    +0.000 OA
ATOM     25  N   UNL     1       5.295   3.831  17.094  0.00  0.00    +0.000 N 
ATOM     26  H   UNL     1       5.535   3.473  16.183  0.00  0.00    +0.000 HD
ENDBRANCH  16  22
BRANCH  16  27
ATOM     27  C   UNL     1       2.038   5.359  20.052  0.00  0.00    +0.000 C 
ATOM     28  C   UNL     1       2.184   4.424  21.236  0.00  0.00    +0.000 C 
ATOM     29  C   UNL     1       1.162   4.145  20.185  0.00  0.00    +0.000 C 
ENDBRANCH  16  27
ENDBRANCH   1  17
TORSDOF 5
ENDMDL
MODEL 6
REMARK VINA RESULT:      -7.9      5.994      9.204
REMARK  Name = 
REMARK  5 active torsions:
REMARK  status: ('A' for Active; 'I' for Inactive)
REMARK    1  A    between atoms: C_4  and  N_5
REMARK    2  A    between atoms: N_5  and  C_23
REMARK    3  A    between atoms: C_6  and  C_8
REMARK    4  A    between atoms: C_11  and  C_12
REMARK    5  A    between atoms: C_16  and  C_17
REMARK                            x       y       z     vdW  Elec       q    Type
REMARK                         _______ _______ _______ _____ _____    ______ ____
ROOT
ATOM      1  C   UNL     1       2.230   7.302  18.722  0.00  0.00    +0.000 A 
ATOM      2  C   UNL     1       2.130   8.324  17.797  0.00  0.00    +0.000 A 
ATOM      3  C   UNL     1       1.523   9.423  18.456  0.00  0.00    +0.000 A 
ATOM      4  C   UNL     1       1.192   8.992  19.724  0.00  0.00    +0.000 A 
ATOM      5  O   UNL     1       1.607   7.697  19.881  0.00  0.00    +0.000 OA
ENDROOT
BRANCH   4   6
ATOM      6  C   UNL     1       0.512   9.591  20.873  0.00  0.00    +0.000 A 
ATOM      7  C   UNL     1       0.693   9.049  22.155  0.00  0.00    +0.000 A 
ATOM      8  C   UNL     1       0.011   9.561  23.259  0.00  0.00    +0.000 A 
ATOM      9  C   UNL     1      -0.861  10.634  23.102  0.00  0.00    +0.000 A 
ATOM     10  C   UNL     1      -1.049  11.218  21.841  0.00  0.00    +0.000 A 
ATOM     11  C   UNL     1      -0.358  10.685  20.730  0.00  0.00    +0.000 A 
BRANCH  10  12
ATOM     12  C   UNL     1      -1.977  12.397  21.674  0.00  0.00    +0.000 C 
ATOM     13  F   UNL     1      -1.462  13.570  22.143  0.00  0.00    +0.000 F 
ATOM     14  F   UNL     1      -2.297  12.627  20.370  0.00  0.00    +0.000 F 
ATOM     15  F   UNL     1      -3.162  12.226  22.325  0.00  0.00    +0.000 F 
ENDBRANCH  10  12
ENDBRANCH   4   6
BRANCH   1  17
ATOM     16  N   UNL     1       4.052   5.862  17.878  0.00  0.00    +0.000 N 
ATOM     17  C   UNL     1       2.853   5.984  18.617  0.00  0.00    +0.000 C 
ATOM     18  O   UNL     1       2.317   4.984  19.102  0.00  0.00    +0.000 OA
BRANCH  16  22
ATOM     19  O   UNL     1       3.163   1.482  18.778  0.00  0.00    +0.000 OA
ATOM     20  C   UNL     1       3.812   2.499  18.597  0.00  0.00    +0.000 C 
ATOM     21  C   UNL     1       3.701   3.394  17.396  0.00  0.00    +0.000 C 
ATOM     22  C   UNL     1       4.673   4.536  17.693  0.00  0.00    +0.000 C 
ATOM     23  C   UNL     1       5.459   4.025  18.895  0.00  0.00    +0.000 C 
ATOM     24  O   UNL     1       6.495   4.495  19.333  0.00  0.00    +0.000 OA
ATOM     25  N   UNL     1       4.819   2.935  19.394  0.00  0.00    +0.000 N 
ATOM     26  H   UNL     1       5.119   2.438  20.218  0.00  0.00    +0.000 HD
ENDBRANCH  16  22
BRANCH  16  27
ATOM     27  C   UNL     1       4.623   6.965  17.128  0.00  0.00    +0.000 C 
ATOM     28  C   UNL     1       5.145   6.734  15.724  0.00  0.00    +0.000 C 
ATOM     29  C   UNL     1       6.088   7.105  16.819  0.00  0.00    +0.000 C 
ENDBRANCH  16  27
ENDBRANCH   1  17
TORSDOF 5
ENDMDL
MODEL 7
REMARK VINA RESULT:      -7.8      4.457      6.217
REMARK  Name = 
REMARK  5 active torsions:
REMARK  status: ('A' for Active; 'I' for Inactive)
REMARK    1  A    between atoms: C_4  and  N_5
REMARK    2  A    between atoms: N_5  and  C_23
REMARK    3  A    between atoms: C_6  and  C_8
REMARK    4  A    between atoms: C_11  and  C_12
REMARK    5  A    between atoms: C_16  and  C_17
REMARK                            x       y       z     vdW  Elec       q    Type
REMARK                         _______ _______ _______ _____ _____    ______ ____
ROOT
ATOM      1  C   UNL     1       2.179   7.596  19.180  0.00  0.00    +0.000 A 
ATOM      2  C   UNL     1       1.855   6.516  19.979  0.00  0.00    +0.000 A 
ATOM      3  C   UNL     1       2.893   5.561  19.829  0.00  0.00    +0.000 A 
ATOM      4  C   UNL     1       3.754   6.059  18.873  0.00  0.00    +0.000 A 
ATOM      5  O   UNL     1       3.312   7.289  18.467  0.00  0.00    +0.000 OA
ENDROOT
BRANCH   4   6
ATOM      6  C   UNL     1       4.971   5.569  18.225  0.00  0.00    +0.000 A 
ATOM      7  C   UNL     1       6.149   5.413  18.972  0.00  0.00    +0.000 A 
ATOM      8  C   UNL     1       7.339   5.005  18.370  0.00  0.00    +0.000 A 
ATOM      9  C   UNL     1       7.371   4.737  17.004  0.00  0.00    +0.000 A 
ATOM     10  C   UNL     1       6.208   4.857  16.229  0.00  0.00    +0.000 A 
ATOM     11  C   UNL     1       5.011   5.278  16.850  0.00  0.00    +0.000 A 
BRANCH  10  12
ATOM     12  C   UNL     1       6.237   4.544  14.752  0.00  0.00    +0.000 C 
ATOM     13  F   UNL     1       7.322   5.059  14.104  0.00  0.00    +0.000 F 
ATOM     14  F   UNL     1       6.257   3.204  14.505  0.00  0.00    +0.000 F 
ATOM     15  F   UNL     1       5.147   5.029  14.094  0.00  0.00    +0.000 F 
ENDBRANCH  10  12
ENDBRANCH   4   6
BRANCH   1  17
ATOM     16  N   UNL     1       0.986   9.520  20.168  0.00  0.00    +0.000 N 
ATOM     17  C   UNL     1       1.519   8.891  19.021  0.00  0.00    +0.000 C 
ATOM     18  O   UNL     1       1.368   9.397  17.907  0.00  0.00    +0.000 OA
BRANCH  16  22
ATOM     19  O   UNL     1      -1.972  11.521  17.333  0.00  0.00    +0.000 OA
ATOM     20  C   UNL     1      -1.064  11.411  18.140  0.00  0.00    +0.000 C 
ATOM     21  C   UNL     1      -1.155  10.684  19.451  0.00  0.00    +0.000 C 
ATOM     22  C   UNL     1       0.253  10.795  20.036  0.00  0.00    +0.000 C 
ATOM     23  C   UNL     1       0.925  11.828  19.140  0.00  0.00    +0.000 C 
ATOM     24  O   UNL     1       1.975  12.407  19.366  0.00  0.00    +0.000 OA
ATOM     25  N   UNL     1       0.145  12.017  18.043  0.00  0.00    +0.000 N 
ATOM     26  H   UNL     1       0.394  12.624  17.278  0.00  0.00    +0.000 HD
ENDBRANCH  16  22
BRANCH  16  27
ATOM     27  C   UNL     1       0.965   8.883  21.472  0.00  0.00    +0.000 C 
ATOM     28  C   UNL     1      -0.353   8.433  22.072  0.00  0.00    +0.000 C 
ATOM     29  C   UNL     1       0.426   9.530  22.718  0.00  0.00    +0.000 C 
ENDBRANCH  16  27
ENDBRANCH   1  17
TORSDOF 5
ENDMDL
MODEL 8
REMARK VINA RESULT:      -7.8      4.866      8.161
REMARK  Name = 
REMARK  5 active torsions:
REMARK  status: ('A' for Active; 'I' for Inactive)
REMARK    1  A    between atoms: C_4  and  N_5
REMARK    2  A    between atoms: N_5  and  C_23
REMARK    3  A    between atoms: C_6  and  C_8
REMARK    4  A    between atoms: C_11  and  C_12
REMARK    5  A    between atoms: C_16  and  C_17
REMARK                            x       y       z     vdW  Elec       q    Type
REMARK                         _______ _______ _______ _____ _____    ______ ____
ROOT
ATOM      1  C   UNL     1       2.711   7.621  18.746  0.00  0.00    +0.000 A 
ATOM      2  C   UNL     1       2.290   7.493  20.057  0.00  0.00    +0.000 A 
ATOM      3  C   UNL     1       1.167   8.345  20.218  0.00  0.00    +0.000 A 
ATOM      4  C   UNL     1       1.012   9.026  19.028  0.00  0.00    +0.000 A 
ATOM      5  O   UNL     1       1.959   8.597  18.138  0.00  0.00    +0.000 OA
ENDROOT
BRANCH   4   6
ATOM      6  C   UNL     1       0.103  10.066  18.547  0.00  0.00    +0.000 A 
ATOM      7  C   UNL     1       0.233  11.382  19.017  0.00  0.00    +0.000 A 
ATOM      8  C   UNL     1      -0.656  12.383  18.623  0.00  0.00    +0.000 A 
ATOM      9  C   UNL     1      -1.690  12.085  17.741  0.00  0.00    +0.000 A 
ATOM     10  C   UNL     1      -1.837  10.787  17.229  0.00  0.00    +0.000 A 
ATOM     11  C   UNL     1      -0.935   9.782  17.642  0.00  0.00    +0.000 A 
BRANCH  10  12
ATOM     12  C   UNL     1      -2.944  10.470  16.253  0.00  0.00    +0.000 C 
ATOM     13  F   UNL     1      -3.059  11.378  15.241  0.00  0.00    +0.000 F 
ATOM     14  F   UNL     1      -2.776   9.260  15.650  0.00  0.00    +0.000 F 
ATOM     15  F   UNL     1      -4.169  10.423  16.850  0.00  0.00    +0.000 F 
ENDBRANCH  10  12
ENDBRANCH   4   6
BRANCH   1  17
ATOM     16  N   UNL     1       3.477   5.615  17.524  0.00  0.00    +0.000 N 
ATOM     17  C   UNL     1       3.757   6.912  18.011  0.00  0.00    +0.000 C 
ATOM     18  O   UNL     1       4.881   7.399  17.874  0.00  0.00    +0.000 OA
BRANCH  16  22
ATOM     19  O   UNL     1       7.839   4.436  18.131  0.00  0.00    +0.000 OA
ATOM     20  C   UNL     1       6.810   4.731  17.547  0.00  0.00    +0.000 C 
ATOM     21  C   UNL     1       5.478   4.068  17.754  0.00  0.00    +0.000 C 
ATOM     22  C   UNL     1       4.532   4.843  16.837  0.00  0.00    +0.000 C 
ATOM     23  C   UNL     1       5.477   5.675  15.979  0.00  0.00    +0.000 C 
ATOM     24  O   UNL     1       5.187   6.270  14.954  0.00  0.00    +0.000 OA
ATOM     25  N   UNL     1       6.715   5.629  16.537  0.00  0.00    +0.000 N 
ATOM     26  H   UNL     1       7.509   6.136  16.178  0.00  0.00    +0.000 HD
ENDBRANCH  16  22
BRANCH  16  27
ATOM     27  C   UNL     1       2.240   4.918  17.821  0.00  0.00    +0.000 C 
ATOM     28  C   UNL     1       2.159   4.004  19.027  0.00  0.00    +0.000 C 
ATOM     29  C   UNL     1       2.046   3.437  17.652  0.00  0.00    +0.000 C 
ENDBRANCH  16  27
ENDBRANCH   1  17
TORSDOF 5
ENDMDL
MODEL 9
REMARK VINA RESULT:      -7.7      6.144      8.334
REMARK  Name = 
REMARK  5 active torsions:
REMARK  status: ('A' for Active; 'I' for Inactive)
REMARK    1  A    between atoms: C_4  and  N_5
REMARK    2  A    between atoms: N_5  and  C_23
REMARK    3  A    between atoms: C_6  and  C_8
REMARK    4  A    between atoms: C_11  and  C_12
REMARK    5  A    between atoms: C_16  and  C_17
REMARK                            x       y       z     vdW  Elec       q    Type
REMARK                         _______ _______ _______ _____ _____    ______ ____
ROOT
ATOM      1  C   UNL     1       1.345   9.599  19.405  0.00  0.00    +0.000 A 
ATOM      2  C   UNL     1       1.762   9.716  18.093  0.00  0.00    +0.000 A 
ATOM      3  C   UNL     1       2.315   8.464  17.719  0.00  0.00    +0.000 A 
ATOM      4  C   UNL     1       2.297   7.670  18.847  0.00  0.00    +0.000 A 
ATOM      5  O   UNL     1       1.721   8.365  19.876  0.00  0.00    +0.000 OA
ENDROOT
BRANCH   4   6
ATOM      6  C   UNL     1       2.754   6.316  19.163  0.00  0.00    +0.000 A 
ATOM      7  C   UNL     1       4.109   5.983  19.018  0.00  0.00    +0.000 A 
ATOM      8  C   UNL     1       4.564   4.685  19.253  0.00  0.00    +0.000 A 
ATOM      9  C   UNL     1       3.668   3.695  19.647  0.00  0.00    +0.000 A 
ATOM     10  C   UNL     1       2.310   3.996  19.827  0.00  0.00    +0.000 A 
ATOM     11  C   UNL     1       1.862   5.312  19.578  0.00  0.00    +0.000 A 
BRANCH  10  12
ATOM     12  C   UNL     1       1.342   2.929  20.277  0.00  0.00    +0.000 C 
ATOM     13  F   UNL     1       1.763   1.659  20.007  0.00  0.00    +0.000 F 
ATOM     14  F   UNL     1       1.112   2.967  21.619  0.00  0.00    +0.000 F 
ATOM     15  F   UNL     1       0.120   3.048  19.685  0.00  0.00    +0.000 F 
ENDBRANCH  10  12
ENDBRANCH   4   6
BRANCH   1  17
ATOM     16  N   UNL     1      -0.740  10.788  19.992  0.00  0.00    +0.000 N 
ATOM     17  C   UNL     1       0.626  10.541  20.260  0.00  0.00    +0.000 C 
ATOM     18  O   UNL     1       1.206  11.162  21.154  0.00  0.00    +0.000 OA
BRANCH  16  22
ATOM     19  O   UNL     1      -0.129  14.959  21.728  0.00  0.00    +0.000 OA
ATOM     20  C   UNL     1      -0.543  13.816  21.629  0.00  0.00    +0.000 C 
ATOM     21  C   UNL     1      -1.223  13.244  20.418  0.00  0.00    +0.000 C 
ATOM     22  C   UNL     1      -1.480  11.784  20.791  0.00  0.00    +0.000 C 
ATOM     23  C   UNL     1      -1.189  11.747  22.287  0.00  0.00    +0.000 C 
ATOM     24  O   UNL     1      -1.483  10.850  23.058  0.00  0.00    +0.000 OA
ATOM     25  N   UNL     1      -0.559  12.901  22.629  0.00  0.00    +0.000 N 
ATOM     26  H   UNL     1      -0.223  13.101  23.559  0.00  0.00    +0.000 HD
ENDBRANCH  16  22
BRANCH  16  27
ATOM     27  C   UNL     1      -1.423  10.233  18.838  0.00  0.00    +0.000 C 
ATOM     28  C   UNL     1      -1.543  11.050  17.567  0.00  0.00    +0.000 C 
ATOM     29  C   UNL     1      -2.765  10.700  18.348  0.00  0.00    +0.000 C 
ENDBRANCH  16  27
ENDBRANCH   1  17
TORSDOF 5
ENDMDL
