MODEL 1
REMARK VINA RESULT:      -8.8      0.000      0.000
REMARK  Name = 
REMARK  6 active torsions:
REMARK  status: ('A' for Active; 'I' for Inactive)
REMARK    1  A    between atoms: C_2  and  C_14
REMARK    2  A    between atoms: N_3  and  C_4
REMARK    3  A    between atoms: C_18  and  S_19
REMARK    4  A    between atoms: S_19  and  N_22
REMARK    5  A    between atoms: N_22  and  C_23
REMARK    6  A    between atoms: C_23  and  C_24
REMARK                            x       y       z     vdW  Elec       q    Type
REMARK                         _______ _______ _______ _____ _____    ______ ____
ROOT
ATOM      1  C   UNL     1       2.265   7.237  18.934  0.00  0.00    +0.000 A 
ATOM      2  C   UNL     1       1.902   6.904  20.249  0.00  0.00    +0.000 A 
ATOM      3  C   UNL     1       2.130   5.620  20.748  0.00  0.00    +0.000 A 
ATOM      4  C   UNL     1       2.697   4.646  19.929  0.00  0.00    +0.000 A 
ATOM      5  C   UNL     1       3.059   4.971  18.616  0.00  0.00    +0.000 A 
ATOM      6  C   UNL     1       2.855   6.268  18.116  0.00  0.00    +0.000 A 
ENDROOT
BRANCH   1   8
ATOM      7  O   UNL     1       2.327   8.972  17.351  0.00  0.00    +0.000 OA
ATOM      8  C   UNL     1       1.905   8.595  18.440  0.00  0.00    +0.000 C 
ATOM      9  N   UNL     1       1.081   9.364  19.233  0.00  0.00    +0.000 N 
ATOM     10  H   UNL     1       0.734   9.024  20.119  0.00  0.00    +0.000 HD
BRANCH   9  11
ATOM     11  C   UNL     1       0.689  10.708  18.821  0.00  0.00    +0.000 C 
ATOM     12  C   UNL     1       0.940  11.704  19.951  0.00  0.00    +0.000 C 
ATOM     13  C   UNL     1       0.369  13.043  19.524  0.00  0.00    +0.000 C 
ATOM     14  O   UNL     1      -1.053  12.988  19.391  0.00  0.00    +0.000 OA
ATOM     15  C   UNL     1      -1.521  11.916  18.676  0.00  0.00    +0.000 A 
ATOM     16  C   UNL     1      -2.851  12.001  18.263  0.00  0.00    +0.000 A 
ATOM     17  C   UNL     1      -3.421  10.972  17.516  0.00  0.00    +0.000 A 
ATOM     18  C   UNL     1      -2.657   9.858  17.176  0.00  0.00    +0.000 A 
ATOM     19  C   UNL     1      -1.329   9.766  17.597  0.00  0.00    +0.000 A 
ATOM     20  C   UNL     1      -0.752  10.783  18.377  0.00  0.00    +0.000 A 
ENDBRANCH   9  11
ENDBRANCH   1   8
BRANCH   5  21
ATOM     21  S   UNL     1       3.565   3.676  17.497  0.00  0.00    +0.000 S 
ATOM     22  O   UNL     1       4.338   2.719  18.255  0.00  0.00    +0.000 OA
ATOM     23  O   UNL     1       2.384   3.289  16.756  0.00  0.00    +0.000 OA
BRANCH  21  24
ATOM     24  N   UNL     1       4.582   4.466  16.412  0.00  0.00    +0.000 NA
ATOM     25  H   UNL     1       4.448   5.477  16.404  0.00  0.00    +0.000 HD
BRANCH  24  26
ATOM     26  C   UNL     1       5.999   4.087  16.482  0.00  0.00    +0.000 C 
BRANCH  26  27
ATOM     27  C   UNL     1       6.709   5.090  17.322  0.00  0.00    +0.000 A 
ATOM     28  C   UNL     1       7.088   6.400  17.119  0.00  0.00    +0.000 A 
ATOM     29  C   UNL     1       7.777   6.800  18.289  0.00  0.00    +0.000 A 
ATOM     30  C   UNL     1       7.764   5.715  19.133  0.00  0.00    +0.000 A 
ATOM     31  O   UNL     1       7.108   4.673  18.560  0.00  0.00    +0.000 OA
ENDBRANCH  26  27
ENDBRANCH  24  26
ENDBRANCH  21  24
ENDBRANCH   5  21
TORSDOF 6
ENDMDL
MODEL 2
REMARK VINA RESULT:      -8.4      2.551      3.751
REMARK  Name = 
REMARK  6 active torsions:
REMARK  status: ('A' for Active; 'I' for Inactive)
REMARK    1  A    between atoms: C_2  and  C_14
REMARK    2  A    between atoms: N_3  and  C_4
REMARK    3  A    between atoms: C_18  and  S_19
REMARK    4  A    between atoms: S_19  and  N_22
REMARK    5  A    between atoms: N_22  and  C_23
REMARK    6  A    between atoms: C_23  and  C_24
REMARK                            x       y       z     vdW  Elec       q    Type
REMARK                         _______ _______ _______ _____ _____    ______ ____
ROOT
ATOM      1  C   UNL     1       3.246   6.336  18.768  0.00  0.00    +0.000 A 
ATOM      2  C   UNL     1       2.820   5.182  19.446  0.00  0.00    +0.000 A 
ATOM      3  C   UNL     1       3.688   4.103  19.631  0.00  0.00    +0.000 A 
ATOM      4  C   UNL     1       4.981   4.153  19.115  0.00  0.00    +0.000 A 
ATOM      5  C   UNL     1       5.411   5.301  18.437  0.00  0.00    +0.000 A 
ATOM      6  C   UNL     1       4.552   6.399  18.268  0.00  0.00    +0.000 A 
ENDROOT
BRANCH   1   8
ATOM      7  O   UNL     1       1.644   7.441  17.453  0.00  0.00    +0.000 OA
ATOM      8  C   UNL     1       2.240   7.406  18.525  0.00  0.00    +0.000 C 
ATOM      9  N   UNL     1       2.007   8.305  19.543  0.00  0.00    +0.000 N 
ATOM     10  H   UNL     1       2.501   8.246  20.423  0.00  0.00    +0.000 HD
BRANCH   9  11
ATOM     11  C   UNL     1       1.041   9.386  19.378  0.00  0.00    +0.000 C 
ATOM     12  C   UNL     1       1.704  10.594  18.719  0.00  0.00    +0.000 C 
ATOM     13  C   UNL     1       0.701  11.733  18.721  0.00  0.00    +0.000 C 
ATOM     14  O   UNL     1       0.395  12.159  20.051  0.00  0.00    +0.000 OA
ATOM     15  C   UNL     1       0.106  11.146  20.927  0.00  0.00    +0.000 A 
ATOM     16  C   UNL     1      -0.494  11.536  22.124  0.00  0.00    +0.000 A 
ATOM     17  C   UNL     1      -0.844  10.582  23.077  0.00  0.00    +0.000 A 
ATOM     18  C   UNL     1      -0.597   9.233  22.830  0.00  0.00    +0.000 A 
ATOM     19  C   UNL     1       0.014   8.841  21.638  0.00  0.00    +0.000 A 
ATOM     20  C   UNL     1       0.399   9.797  20.682  0.00  0.00    +0.000 A 
ENDBRANCH   9  11
ENDBRANCH   1   8
BRANCH   5  21
ATOM     21  S   UNL     1       6.974   5.279  17.577  0.00  0.00    +0.000 S 
ATOM     22  O   UNL     1       7.134   6.559  16.926  0.00  0.00    +0.000 OA
ATOM     23  O   UNL     1       7.952   4.771  18.514  0.00  0.00    +0.000 OA
BRANCH  21  24
ATOM     24  N   UNL     1       6.763   4.090  16.404  0.00  0.00    +0.000 NA
ATOM     25  H   UNL     1       6.709   3.149  16.794  0.00  0.00    +0.000 HD
BRANCH  24  26
ATOM     26  C   UNL     1       5.704   4.352  15.419  0.00  0.00    +0.000 C 
BRANCH  26  27
ATOM     27  C   UNL     1       6.315   4.337  14.062  0.00  0.00    +0.000 A 
ATOM     28  C   UNL     1       6.121   3.556  12.943  0.00  0.00    +0.000 A 
ATOM     29  C   UNL     1       7.046   4.013  11.974  0.00  0.00    +0.000 A 
ATOM     30  C   UNL     1       7.734   5.050  12.558  0.00  0.00    +0.000 A 
ATOM     31  O   UNL     1       7.290   5.263  13.825  0.00  0.00    +0.000 OA
ENDBRANCH  26  27
ENDBRANCH  24  26
ENDBRANCH  21  24
ENDBRANCH   5  21
TORSDOF 6
ENDMDL
MODEL 3
REMARK VINA RESULT:      -8.3      0.993      1.101
REMARK  Name = 
REMARK  6 active torsions:
REMARK  status: ('A' for Active; 'I' for Inactive)
REMARK    1  A    between atoms: C_2  and  C_14
REMARK    2  A    between atoms: N_3  and  C_4
REMARK    3  A    between atoms: C_18  and  S_19
REMARK    4  A    between atoms: S_19  and  N_22
REMARK    5  A    between atoms: N_22  and  C_23
REMARK    6  A    between atoms: C_23  and  C_24
REMARK                            x       y       z     vdW  Elec       q    Type
REMARK                         _______ _______ _______ _____ _____    ______ ____
ROOT
ATOM      1  C   UNL     1       2.230   6.696  19.321  0.00  0.00    +0.000 A 
ATOM      2  C   UNL     1       1.815   6.365  20.620  0.00  0.00    +0.000 A 
ATOM      3  C   UNL     1       1.858   5.042  21.066  0.00  0.00    +0.000 A 
ATOM      4  C   UNL     1       2.288   4.032  20.209  0.00  0.00    +0.000 A 
ATOM      5  C   UNL     1       2.702   4.356  18.911  0.00  0.00    +0.000 A 
ATOM      6  C   UNL     1       2.685   5.688  18.464  0.00  0.00    +0.000 A 
ENDROOT
BRANCH   1   8
ATOM      7  O   UNL     1       2.693   8.515  17.908  0.00  0.00    +0.000 OA
ATOM      8  C   UNL     1       2.067   8.110  18.882  0.00  0.00    +0.000 C 
ATOM      9  N   UNL     1       1.186   8.899  19.590  0.00  0.00    +0.000 N 
ATOM     10  H   UNL     1       0.671   8.537  20.380  0.00  0.00    +0.000 HD
BRANCH   9  11
ATOM     11  C   UNL     1       0.978  10.297  19.226  0.00  0.00    +0.000 C 
ATOM     12  C   UNL     1       1.107  11.191  20.458  0.00  0.00    +0.000 C 
ATOM     13  C   UNL     1       0.724  12.601  20.049  0.00  0.00    +0.000 C 
ATOM     14  O   UNL     1      -0.654  12.683  19.677  0.00  0.00    +0.000 OA
ATOM     15  C   UNL     1      -1.073  11.706  18.812  0.00  0.00    +0.000 A 
ATOM     16  C   UNL     1      -2.302  11.938  18.192  0.00  0.00    +0.000 A 
ATOM     17  C   UNL     1      -2.813  11.014  17.282  0.00  0.00    +0.000 A 
ATOM     18  C   UNL     1      -2.091   9.861  16.986  0.00  0.00    +0.000 A 
ATOM     19  C   UNL     1      -0.867   9.622  17.613  0.00  0.00    +0.000 A 
ATOM     20  C   UNL     1      -0.355  10.530  18.556  0.00  0.00    +0.000 A 
ENDBRANCH   9  11
ENDBRANCH   1   8
BRANCH   5  21
ATOM     21  S   UNL     1       3.029   3.049  17.740  0.00  0.00    +0.000 S 
ATOM     22  O   UNL     1       2.710   1.796  18.383  0.00  0.00    +0.000 OA
ATOM     23  O   UNL     1       2.412   3.449  16.494  0.00  0.00    +0.000 OA
BRANCH  21  24
ATOM     24  N   UNL     1       4.695   3.136  17.507  0.00  0.00    +0.000 NA
ATOM     25  H   UNL     1       5.148   2.223  17.525  0.00  0.00    +0.000 HD
BRANCH  24  26
ATOM     26  C   UNL     1       5.133   3.959  16.371  0.00  0.00    +0.000 C 
BRANCH  26  27
ATOM     27  C   UNL     1       6.014   5.040  16.891  0.00  0.00    +0.000 A 
ATOM     28  C   UNL     1       7.215   5.042  17.569  0.00  0.00    +0.000 A 
ATOM     29  C   UNL     1       7.524   6.400  17.825  0.00  0.00    +0.000 A 
ATOM     30  C   UNL     1       6.501   7.137  17.279  0.00  0.00    +0.000 A 
ATOM     31  O   UNL     1       5.582   6.321  16.699  0.00  0.00    +0.000 OA
ENDBRANCH  26  27
ENDBRANCH  24  26
ENDBRANCH  21  24
ENDBRANCH   5  21
TORSDOF 6
ENDMDL
MODEL 4
REMARK VINA RESULT:      -8.2      2.693      8.574
REMARK  Name = 
REMARK  6 active torsions:
REMARK  status: ('A' for Active; 'I' for Inactive)
REMARK    1  A    between atoms: C_2  and  C_14
REMARK    2  A    between atoms: N_3  and  C_4
REMARK    3  A    between atoms: C_18  and  S_19
REMARK    4  A    between atoms: S_19  and  N_22
REMARK    5  A    between atoms: N_22  and  C_23
REMARK    6  A    between atoms: C_23  and  C_24
REMARK                            x       y       z     vdW  Elec       q    Type
REMARK                         _______ _______ _______ _____ _____    ______ ____
ROOT
ATOM      1  C   UNL     1       1.472   8.623  19.845  0.00  0.00    +0.000 A 
ATOM      2  C   UNL     1       1.000   8.504  21.162  0.00  0.00    +0.000 A 
ATOM      3  C   UNL     1       0.398   9.588  21.803  0.00  0.00    +0.000 A 
ATOM      4  C   UNL     1       0.289  10.812  21.147  0.00  0.00    +0.000 A 
ATOM      5  C   UNL     1       0.761  10.938  19.834  0.00  0.00    +0.000 A 
ATOM      6  C   UNL     1       1.345   9.844  19.174  0.00  0.00    +0.000 A 
ENDROOT
BRANCH   1   8
ATOM      7  O   UNL     1       2.125   7.254  18.050  0.00  0.00    +0.000 OA
ATOM      8  C   UNL     1       2.188   7.455  19.259  0.00  0.00    +0.000 C 
ATOM      9  N   UNL     1       2.916   6.659  20.116  0.00  0.00    +0.000 N 
ATOM     10  H   UNL     1       2.964   6.854  21.106  0.00  0.00    +0.000 HD
BRANCH   9  11
ATOM     11  C   UNL     1       3.638   5.492  19.618  0.00  0.00    +0.000 C 
ATOM     12  C   UNL     1       4.469   5.865  18.392  0.00  0.00    +0.000 C 
ATOM     13  C   UNL     1       5.065   4.588  17.829  0.00  0.00    +0.000 C 
ATOM     14  O   UNL     1       4.050   3.711  17.333  0.00  0.00    +0.000 OA
ATOM     15  C   UNL     1       2.993   3.519  18.184  0.00  0.00    +0.000 A 
ATOM     16  C   UNL     1       2.158   2.444  17.875  0.00  0.00    +0.000 A 
ATOM     17  C   UNL     1       1.063   2.151  18.685  0.00  0.00    +0.000 A 
ATOM     18  C   UNL     1       0.805   2.931  19.810  0.00  0.00    +0.000 A 
ATOM     19  C   UNL     1       1.632   4.013  20.115  0.00  0.00    +0.000 A 
ATOM     20  C   UNL     1       2.722   4.338  19.289  0.00  0.00    +0.000 A 
ENDBRANCH   9  11
ENDBRANCH   1   8
BRANCH   5  21
ATOM     21  S   UNL     1       0.837  12.552  19.078  0.00  0.00    +0.000 S 
ATOM     22  O   UNL     1       0.572  13.531  20.107  0.00  0.00    +0.000 OA
ATOM     23  O   UNL     1       2.050  12.581  18.290  0.00  0.00    +0.000 OA
BRANCH  21  24
ATOM     24  N   UNL     1      -0.448  12.539  17.990  0.00  0.00    +0.000 NA
ATOM     25  H   UNL     1      -0.197  12.153  17.080  0.00  0.00    +0.000 HD
BRANCH  24  26
ATOM     26  C   UNL     1      -1.709  11.989  18.505  0.00  0.00    +0.000 C 
BRANCH  26  27
ATOM     27  C   UNL     1      -2.329  11.162  17.435  0.00  0.00    +0.000 A 
ATOM     28  C   UNL     1      -1.988   9.964  16.844  0.00  0.00    +0.000 A 
ATOM     29  C   UNL     1      -2.964   9.720  15.848  0.00  0.00    +0.000 A 
ATOM     30  C   UNL     1      -3.842  10.775  15.903  0.00  0.00    +0.000 A 
ATOM     31  O   UNL     1      -3.472  11.653  16.871  0.00  0.00    +0.000 OA
ENDBRANCH  26  27
ENDBRANCH  24  26
ENDBRANCH  21  24
ENDBRANCH   5  21
TORSDOF 6
ENDMDL
MODEL 5
REMARK VINA RESULT:      -8.2      2.681      4.011
REMARK  Name = 
REMARK  6 active torsions:
REMARK  status: ('A' for Active; 'I' for Inactive)
REMARK    1  A    between atoms: C_2  and  C_14
REMARK    2  A    between atoms: N_3  and  C_4
REMARK    3  A    between atoms: C_18  and  S_19
REMARK    4  A    between atoms: S_19  and  N_22
REMARK    5  A    between atoms: N_22  and  C_23
REMARK    6  A    between atoms: C_23  and  C_24
REMARK                            x       y       z     vdW  Elec       q    Type
REMARK                         _______ _______ _______ _____ _____    ______ ____
ROOT
ATOM      1  C   UNL     1       3.536   7.006  18.383  0.00  0.00    +0.000 A 
ATOM      2  C   UNL     1       3.262   5.924  19.234  0.00  0.00    +0.000 A 
ATOM      3  C   UNL     1       4.167   4.867  19.356  0.00  0.00    +0.000 A 
ATOM      4  C   UNL     1       5.341   4.867  18.608  0.00  0.00    +0.000 A 
ATOM      5  C   UNL     1       5.619   5.943  17.756  0.00  0.00    +0.000 A 
ATOM      6  C   UNL     1       4.725   7.021  17.646  0.00  0.00    +0.000 A 
ENDROOT
BRANCH   1   8
ATOM      7  O   UNL     1       2.145   8.404  17.105  0.00  0.00    +0.000 OA
ATOM      8  C   UNL     1       2.483   8.049  18.229  0.00  0.00    +0.000 C 
ATOM      9  N   UNL     1       1.914   8.554  19.379  0.00  0.00    +0.000 N 
ATOM     10  H   UNL     1       2.200   8.234  20.294  0.00  0.00    +0.000 HD
BRANCH   9  11
ATOM     11  C   UNL     1       0.882   9.583  19.311  0.00  0.00    +0.000 C 
ATOM     12  C   UNL     1       1.445  10.859  18.688  0.00  0.00    +0.000 C 
ATOM     13  C   UNL     1       0.379  11.935  18.792  0.00  0.00    +0.000 C 
ATOM     14  O   UNL     1       0.111  12.277  20.153  0.00  0.00    +0.000 OA
ATOM     15  C   UNL     1      -0.079  11.206  20.987  0.00  0.00    +0.000 A 
ATOM     16  C   UNL     1      -0.646  11.501  22.227  0.00  0.00    +0.000 A 
ATOM     17  C   UNL     1      -0.897  10.482  23.144  0.00  0.00    +0.000 A 
ATOM     18  C   UNL     1      -0.586   9.164  22.818  0.00  0.00    +0.000 A 
ATOM     19  C   UNL     1      -0.008   8.868  21.582  0.00  0.00    +0.000 A 
ATOM     20  C   UNL     1       0.278   9.890  20.661  0.00  0.00    +0.000 A 
ENDBRANCH   9  11
ENDBRANCH   1   8
BRANCH   5  21
ATOM     21  S   UNL     1       6.998   5.838  16.627  0.00  0.00    +0.000 S 
ATOM     22  O   UNL     1       7.774   7.047  16.770  0.00  0.00    +0.000 OA
ATOM     23  O   UNL     1       7.582   4.528  16.813  0.00  0.00    +0.000 OA
BRANCH  21  24
ATOM     24  N   UNL     1       6.267   5.832  15.110  0.00  0.00    +0.000 NA
ATOM     25  H   UNL     1       6.930   5.962  14.347  0.00  0.00    +0.000 HD
BRANCH  24  26
ATOM     26  C   UNL     1       5.333   4.725  14.861  0.00  0.00    +0.000 C 
BRANCH  26  27
ATOM     27  C   UNL     1       5.732   4.055  13.593  0.00  0.00    +0.000 A 
ATOM     28  C   UNL     1       6.938   3.886  12.948  0.00  0.00    +0.000 A 
ATOM     29  C   UNL     1       6.653   3.192  11.747  0.00  0.00    +0.000 A 
ATOM     30  C   UNL     1       5.297   2.973  11.743  0.00  0.00    +0.000 A 
ATOM     31  O   UNL     1       4.727   3.484  12.866  0.00  0.00    +0.000 OA
ENDBRANCH  26  27
ENDBRANCH  24  26
ENDBRANCH  21  24
ENDBRANCH   5  21
TORSDOF 6
ENDMDL
MODEL 6
REMARK VINA RESULT:      -8.1      1.803      3.121
REMARK  Name = 
REMARK  6 active torsions:
REMARK  status: ('A' for Active; 'I' for Inactive)
REMARK    1  A    between atoms: C_2  and  C_14
REMARK    2  A    between atoms: N_3  and  C_4
REMARK    3  A    between atoms: C_18  and  S_19
REMARK    4  A    between atoms: S_19  and  N_22
REMARK    5  A    between atoms: N_22  and  C_23
REMARK    6  A    between atoms: C_23  and  C_24
REMARK                            x       y       z     vdW  Elec       q    Type
REMARK                         _______ _______ _______ _____ _____    ______ ____
ROOT
ATOM      1  C   UNL     1       2.311   8.143  18.748  0.00  0.00    +0.000 A 
ATOM      2  C   UNL     1       1.865   7.474  19.899  0.00  0.00    +0.000 A 
ATOM      3  C   UNL     1       2.380   6.221  20.239  0.00  0.00    +0.000 A 
ATOM      4  C   UNL     1       3.325   5.610  19.417  0.00  0.00    +0.000 A 
ATOM      5  C   UNL     1       3.772   6.272  18.266  0.00  0.00    +0.000 A 
ATOM      6  C   UNL     1       3.276   7.543  17.932  0.00  0.00    +0.000 A 
ENDROOT
BRANCH   1   8
ATOM      7  O   UNL     1       1.994  10.028  17.382  0.00  0.00    +0.000 OA
ATOM      8  C   UNL     1       1.649   9.430  18.396  0.00  0.00    +0.000 C 
ATOM      9  N   UNL     1       0.648   9.880  19.230  0.00  0.00    +0.000 N 
ATOM     10  H   UNL     1       0.372   9.361  20.051  0.00  0.00    +0.000 HD
BRANCH   9  11
ATOM     11  C   UNL     1      -0.043  11.136  18.956  0.00  0.00    +0.000 C 
ATOM     12  C   UNL     1      -0.048  12.021  20.202  0.00  0.00    +0.000 C 
ATOM     13  C   UNL     1      -0.913  13.232  19.906  0.00  0.00    +0.000 C 
ATOM     14  O   UNL     1      -2.280  12.865  19.709  0.00  0.00    +0.000 OA
ATOM     15  C   UNL     1      -2.473  11.808  18.858  0.00  0.00    +0.000 A 
ATOM     16  C   UNL     1      -3.780  11.631  18.403  0.00  0.00    +0.000 A 
ATOM     17  C   UNL     1      -4.082  10.595  17.521  0.00  0.00    +0.000 A 
ATOM     18  C   UNL     1      -3.073   9.737  17.089  0.00  0.00    +0.000 A 
ATOM     19  C   UNL     1      -1.766   9.906  17.551  0.00  0.00    +0.000 A 
ATOM     20  C   UNL     1      -1.455  10.928  18.465  0.00  0.00    +0.000 A 
ENDBRANCH   9  11
ENDBRANCH   1   8
BRANCH   5  21
ATOM     21  S   UNL     1       4.798   5.402  17.094  0.00  0.00    +0.000 S 
ATOM     22  O   UNL     1       5.060   6.297  15.991  0.00  0.00    +0.000 OA
ATOM     23  O   UNL     1       5.868   4.794  17.856  0.00  0.00    +0.000 OA
BRANCH  21  24
ATOM     24  N   UNL     1       3.810   4.147  16.560  0.00  0.00    +0.000 NA
ATOM     25  H   UNL     1       3.772   4.075  15.543  0.00  0.00    +0.000 HD
BRANCH  24  26
ATOM     26  C   UNL     1       4.030   2.847  17.208  0.00  0.00    +0.000 C 
BRANCH  26  27
ATOM     27  C   UNL     1       2.922   2.614  18.173  0.00  0.00    +0.000 A 
ATOM     28  C   UNL     1       2.874   2.133  19.464  0.00  0.00    +0.000 A 
ATOM     29  C   UNL     1       1.506   2.107  19.828  0.00  0.00    +0.000 A 
ATOM     30  C   UNL     1       0.810   2.583  18.743  0.00  0.00    +0.000 A 
ATOM     31  O   UNL     1       1.662   2.904  17.734  0.00  0.00    +0.000 OA
ENDBRANCH  26  27
ENDBRANCH  24  26
ENDBRANCH  21  24
ENDBRANCH   5  21
TORSDOF 6
ENDMDL
MODEL 7
REMARK VINA RESULT:      -8.1      1.495      2.083
REMARK  Name = 
REMARK  6 active torsions:
REMARK  status: ('A' for Active; 'I' for Inactive)
REMARK    1  A    between atoms: C_2  and  C_14
REMARK    2  A    between atoms: N_3  and  C_4
REMARK    3  A    between atoms: C_18  and  S_19
REMARK    4  A    between atoms: S_19  and  N_22
REMARK    5  A    between atoms: N_22  and  C_23
REMARK    6  A    between atoms: C_23  and  C_24
REMARK                            x       y       z     vdW  Elec       q    Type
REMARK                         _______ _______ _______ _____ _____    ______ ____
ROOT
ATOM      1  C   UNL     1       2.374   7.400  18.993  0.00  0.00    +0.000 A 
ATOM      2  C   UNL     1       1.651   6.900  20.088  0.00  0.00    +0.000 A 
ATOM      3  C   UNL     1       1.954   5.649  20.629  0.00  0.00    +0.000 A 
ATOM      4  C   UNL     1       2.961   4.871  20.064  0.00  0.00    +0.000 A 
ATOM      5  C   UNL     1       3.684   5.364  18.970  0.00  0.00    +0.000 A 
ATOM      6  C   UNL     1       3.402   6.632  18.436  0.00  0.00    +0.000 A 
ENDROOT
BRANCH   1   8
ATOM      7  O   UNL     1       2.300   9.005  17.279  0.00  0.00    +0.000 OA
ATOM      8  C   UNL     1       1.934   8.698  18.408  0.00  0.00    +0.000 C 
ATOM      9  N   UNL     1       1.103   9.490  19.171  0.00  0.00    +0.000 N 
ATOM     10  H   UNL     1       0.803   9.207  20.093  0.00  0.00    +0.000 HD
BRANCH   9  11
ATOM     11  C   UNL     1       0.635  10.779  18.670  0.00  0.00    +0.000 C 
ATOM     12  C   UNL     1       0.942  11.883  19.680  0.00  0.00    +0.000 C 
ATOM     13  C   UNL     1       0.294  13.161  19.180  0.00  0.00    +0.000 C 
ATOM     14  O   UNL     1      -1.132  13.057  19.171  0.00  0.00    +0.000 OA
ATOM     15  C   UNL     1      -1.619  11.911  18.598  0.00  0.00    +0.000 A 
ATOM     16  C   UNL     1      -2.980  11.923  18.290  0.00  0.00    +0.000 A 
ATOM     17  C   UNL     1      -3.573  10.813  17.690  0.00  0.00    +0.000 A 
ATOM     18  C   UNL     1      -2.801   9.692  17.392  0.00  0.00    +0.000 A 
ATOM     19  C   UNL     1      -1.442   9.674  17.708  0.00  0.00    +0.000 A 
ATOM     20  C   UNL     1      -0.839  10.775  18.342  0.00  0.00    +0.000 A 
ENDBRANCH   9  11
ENDBRANCH   1   8
BRANCH   5  21
ATOM     21  S   UNL     1       4.809   4.284  18.101  0.00  0.00    +0.000 S 
ATOM     22  O   UNL     1       5.804   3.835  19.047  0.00  0.00    +0.000 OA
ATOM     23  O   UNL     1       3.991   3.354  17.354  0.00  0.00    +0.000 OA
BRANCH  21  24
ATOM     24  N   UNL     1       5.541   5.300  16.975  0.00  0.00    +0.000 NA
ATOM     25  H   UNL     1       5.498   6.284  17.239  0.00  0.00    +0.000 HD
BRANCH  24  26
ATOM     26  C   UNL     1       6.882   4.895  16.534  0.00  0.00    +0.000 C 
BRANCH  26  27
ATOM     27  C   UNL     1       6.832   4.631  15.071  0.00  0.00    +0.000 A 
ATOM     28  C   UNL     1       7.454   5.204  13.982  0.00  0.00    +0.000 A 
ATOM     29  C   UNL     1       6.955   4.532  12.840  0.00  0.00    +0.000 A 
ATOM     30  C   UNL     1       6.073   3.586  13.306  0.00  0.00    +0.000 A 
ATOM     31  O   UNL     1       5.998   3.630  14.661  0.00  0.00    +0.000 OA
ENDBRANCH  26  27
ENDBRANCH  24  26
ENDBRANCH  21  24
ENDBRANCH   5  21
TORSDOF 6
ENDMDL
MODEL 8
REMARK VINA RESULT:      -8.0      2.284      3.361
REMARK  Name = 
REMARK  6 active torsions:
REMARK  status: ('A' for Active; 'I' for Inactive)
REMARK    1  A    between atoms: C_2  and  C_14
REMARK    2  A    between atoms: N_3  and  C_4
REMARK    3  A    between atoms: C_18  and  S_19
REMARK    4  A    between atoms: S_19  and  N_22
REMARK    5  A    between atoms: N_22  and  C_23
REMARK    6  A    between atoms: C_23  and  C_24
REMARK                            x       y       z     vdW  Elec       q    Type
REMARK                         _______ _______ _______ _____ _____    ______ ____
ROOT
ATOM      1  C   UNL     1       2.737   7.544  17.954  0.00  0.00    +0.000 A 
ATOM      2  C   UNL     1       1.870   6.462  18.174  0.00  0.00    +0.000 A 
ATOM      3  C   UNL     1       2.320   5.148  18.031  0.00  0.00    +0.000 A 
ATOM      4  C   UNL     1       3.633   4.901  17.638  0.00  0.00    +0.000 A 
ATOM      5  C   UNL     1       4.503   5.977  17.415  0.00  0.00    +0.000 A 
ATOM      6  C   UNL     1       4.063   7.300  17.581  0.00  0.00    +0.000 A 
ENDROOT
BRANCH   1   8
ATOM      7  O   UNL     1       2.516   9.764  17.218  0.00  0.00    +0.000 OA
ATOM      8  C   UNL     1       2.164   8.917  18.032  0.00  0.00    +0.000 C 
ATOM      9  N   UNL     1       1.231   9.162  19.016  0.00  0.00    +0.000 N 
ATOM     10  H   UNL     1       0.946   8.442  19.666  0.00  0.00    +0.000 HD
BRANCH   9  11
ATOM     11  C   UNL     1       0.629  10.484  19.161  0.00  0.00    +0.000 C 
ATOM     12  C   UNL     1       0.616  10.903  20.630  0.00  0.00    +0.000 C 
ATOM     13  C   UNL     1      -0.160  12.203  20.734  0.00  0.00    +0.000 C 
ATOM     14  O   UNL     1      -1.535  12.021  20.391  0.00  0.00    +0.000 OA
ATOM     15  C   UNL     1      -1.750  11.322  19.231  0.00  0.00    +0.000 A 
ATOM     16  C   UNL     1      -3.042  11.400  18.711  0.00  0.00    +0.000 A 
ATOM     17  C   UNL     1      -3.362  10.740  17.526  0.00  0.00    +0.000 A 
ATOM     18  C   UNL     1      -2.385  10.004  16.858  0.00  0.00    +0.000 A 
ATOM     19  C   UNL     1      -1.095   9.916  17.383  0.00  0.00    +0.000 A 
ATOM     20  C   UNL     1      -0.768  10.552  18.593  0.00  0.00    +0.000 A 
ENDBRANCH   9  11
ENDBRANCH   1   8
BRANCH   5  21
ATOM     21  S   UNL     1       6.105   5.676  16.689  0.00  0.00    +0.000 S 
ATOM     22  O   UNL     1       6.839   6.920  16.718  0.00  0.00    +0.000 OA
ATOM     23  O   UNL     1       6.617   4.472  17.307  0.00  0.00    +0.000 OA
BRANCH  21  24
ATOM     24  N   UNL     1       5.748   5.287  15.090  0.00  0.00    +0.000 NA
ATOM     25  H   UNL     1       5.331   6.062  14.575  0.00  0.00    +0.000 HD
BRANCH  24  26
ATOM     26  C   UNL     1       6.828   4.632  14.341  0.00  0.00    +0.000 C 
BRANCH  26  27
ATOM     27  C   UNL     1       6.221   3.878  13.211  0.00  0.00    +0.000 A 
ATOM     28  C   UNL     1       6.747   3.142  12.170  0.00  0.00    +0.000 A 
ATOM     29  C   UNL     1       5.646   2.707  11.394  0.00  0.00    +0.000 A 
ATOM     30  C   UNL     1       4.521   3.195  12.016  0.00  0.00    +0.000 A 
ATOM     31  O   UNL     1       4.858   3.899  13.128  0.00  0.00    +0.000 OA
ENDBRANCH  26  27
ENDBRANCH  24  26
ENDBRANCH  21  24
ENDBRANCH   5  21
TORSDOF 6
ENDMDL
MODEL 9
REMARK VINA RESULT:      -8.0      1.351      1.676
REMARK  Name = 
REMARK  6 active torsions:
REMARK  status: ('A' for Active; 'I' for Inactive)
REMARK    1  A    between atoms: C_2  and  C_14
REMARK    2  A    between atoms: N_3  and  C_4
REMARK    3  A    between atoms: C_18  and  S_19
REMARK    4  A    between atoms: S_19  and  N_22
REMARK    5  A    between atoms: N_22  and  C_23
REMARK    6  A    between atoms: C_23  and  C_24
REMARK                            x       y       z     vdW  Elec       q    Type
REMARK                         _______ _______ _______ _____ _____    ______ ____
ROOT
ATOM      1  C   UNL     1       2.175   6.940  19.027  0.00  0.00    +0.000 A 
ATOM      2  C   UNL     1       2.030   6.810  20.418  0.00  0.00    +0.000 A 
ATOM      3  C   UNL     1       2.167   5.565  21.035  0.00  0.00    +0.000 A 
ATOM      4  C   UNL     1       2.422   4.432  20.267  0.00  0.00    +0.000 A 
ATOM      5  C   UNL     1       2.566   4.555  18.879  0.00  0.00    +0.000 A 
ATOM      6  C   UNL     1       2.454   5.807  18.254  0.00  0.00    +0.000 A 
ENDROOT
BRANCH   1   8
ATOM      7  O   UNL     1       2.418   8.558  17.341  0.00  0.00    +0.000 OA
ATOM      8  C   UNL     1       1.921   8.280  18.427  0.00  0.00    +0.000 C 
ATOM      9  N   UNL     1       1.106   9.145  19.124  0.00  0.00    +0.000 N 
ATOM     10  H   UNL     1       0.696   8.886  20.010  0.00  0.00    +0.000 HD
BRANCH   9  11
ATOM     11  C   UNL     1       0.816  10.478  18.605  0.00  0.00    +0.000 C 
ATOM     12  C   UNL     1       1.247  11.545  19.609  0.00  0.00    +0.000 C 
ATOM     13  C   UNL     1       0.777  12.890  19.088  0.00  0.00    +0.000 C 
ATOM     14  O   UNL     1      -0.650  12.969  19.056  0.00  0.00    +0.000 OA
ATOM     15  C   UNL     1      -1.272  11.890  18.485  0.00  0.00    +0.000 A 
ATOM     16  C   UNL     1      -2.615  12.073  18.155  0.00  0.00    +0.000 A 
ATOM     17  C   UNL     1      -3.337  11.043  17.555  0.00  0.00    +0.000 A 
ATOM     18  C   UNL     1      -2.712   9.829  17.279  0.00  0.00    +0.000 A 
ATOM     19  C   UNL     1      -1.371   9.640  17.618  0.00  0.00    +0.000 A 
ATOM     20  C   UNL     1      -0.641  10.660  18.252  0.00  0.00    +0.000 A 
ENDBRANCH   9  11
ENDBRANCH   1   8
BRANCH   5  21
ATOM     21  S   UNL     1       2.658   3.084  17.872  0.00  0.00    +0.000 S 
ATOM     22  O   UNL     1       2.100   1.993  18.636  0.00  0.00    +0.000 OA
ATOM     23  O   UNL     1       2.144   3.446  16.569  0.00  0.00    +0.000 OA
BRANCH  21  24
ATOM     24  N   UNL     1       4.313   2.834  17.688  0.00  0.00    +0.000 NA
ATOM     25  H   UNL     1       4.545   2.298  16.852  0.00  0.00    +0.000 HD
BRANCH  24  26
ATOM     26  C   UNL     1       5.155   4.028  17.842  0.00  0.00    +0.000 C 
BRANCH  26  27
ATOM     27  C   UNL     1       5.838   4.288  16.546  0.00  0.00    +0.000 A 
ATOM     28  C   UNL     1       7.101   4.727  16.210  0.00  0.00    +0.000 A 
ATOM     29  C   UNL     1       7.129   4.814  14.797  0.00  0.00    +0.000 A 
ATOM     30  C   UNL     1       5.889   4.411  14.363  0.00  0.00    +0.000 A 
ATOM     31  O   UNL     1       5.099   4.079  15.417  0.00  0.00    +0.000 OA
ENDBRANCH  26  27
ENDBRANCH  24  26
ENDBRANCH  21  24
ENDBRANCH   5  21
TORSDOF 6
ENDMDL
