MODEL 1
REMARK VINA RESULT:      -8.9      0.000      0.000
REMARK  Name = 
REMARK  3 active torsions:
REMARK  status: ('A' for Active; 'I' for Inactive)
REMARK    1  A    between atoms: C_2  and  C_15
REMARK    2  A    between atoms: N_3  and  C_4
REMARK    3  A    between atoms: C_8  and  C_9
REMARK                            x       y       z     vdW  Elec       q    Type
REMARK                         _______ _______ _______ _____ _____    ______ ____
ROOT
ATOM      1  O   UNL     1       2.646   7.635  18.762  0.00  0.00    +0.000 OA
ATOM      2  C   UNL     1       2.029   7.460  19.806  0.00  0.00    +0.000 C 
ATOM      3  N   UNL     1       1.982   6.291  20.547  0.00  0.00    +0.000 N 
ATOM      4  H   UNL     1       1.275   6.219  21.267  0.00  0.00    +0.000 HD
ENDROOT
BRANCH   2   5
ATOM      5  C   UNL     1       1.225   8.601  20.321  0.00  0.00    +0.000 A 
ATOM      6  C   UNL     1       0.975   9.666  19.438  0.00  0.00    +0.000 A 
ATOM      7  C   UNL     1       0.359  10.849  19.863  0.00  0.00    +0.000 A 
ATOM      8  C   UNL     1       0.021  10.905  21.212  0.00  0.00    +0.000 A 
ATOM      9  N   UNL     1      -0.507  11.887  22.002  0.00  0.00    +0.000 N 
ATOM     10  N   UNL     1      -0.678  11.473  23.268  0.00  0.00    +0.000 NA
ATOM     11  N   UNL     1      -0.232  10.226  23.343  0.00  0.00    +0.000 NA
ATOM     12  C   UNL     1       0.219   9.859  22.104  0.00  0.00    +0.000 A 
ATOM     13  C   UNL     1       0.831   8.674  21.667  0.00  0.00    +0.000 A 
ATOM     14  H   UNL     1      -0.743  12.843  21.764  0.00  0.00    +0.000 HD
ENDBRANCH   2   5
BRANCH   3  15
ATOM     15  C   UNL     1       2.730   5.121  20.280  0.00  0.00    +0.000 A 
ATOM     16  C   UNL     1       2.386   3.862  20.775  0.00  0.00    +0.000 A 
ATOM     17  C   UNL     1       3.173   2.746  20.495  0.00  0.00    +0.000 A 
ATOM     18  C   UNL     1       4.305   2.876  19.695  0.00  0.00    +0.000 A 
ATOM     19  C   UNL     1       4.649   4.121  19.155  0.00  0.00    +0.000 A 
ATOM     20  C   UNL     1       3.858   5.241  19.460  0.00  0.00    +0.000 A 
BRANCH  19  21
ATOM     21  C   UNL     1       5.805   4.269  18.278  0.00  0.00    +0.000 A 
ATOM     22  N   UNL     1       7.024   4.651  18.611  0.00  0.00    +0.000 NA
ATOM     23  N   UNL     1       7.795   4.684  17.470  0.00  0.00    +0.000 NA
ATOM     24  C   UNL     1       7.028   4.342  16.465  0.00  0.00    +0.000 A 
ATOM     25  N   UNL     1       5.778   4.071  16.921  0.00  0.00    +0.000 N 
ATOM     26  H   UNL     1       4.971   3.819  16.370  0.00  0.00    +0.000 HD
ENDBRANCH  19  21
ENDBRANCH   3  15
TORSDOF 3
ENDMDL
MODEL 2
REMARK VINA RESULT:      -8.6      1.012      1.630
REMARK  Name = 
REMARK  3 active torsions:
REMARK  status: ('A' for Active; 'I' for Inactive)
REMARK    1  A    between atoms: C_2  and  C_15
REMARK    2  A    between atoms: N_3  and  C_4
REMARK    3  A    between atoms: C_8  and  C_9
REMARK                            x       y       z     vdW  Elec       q    Type
REMARK                         _______ _______ _______ _____ _____    ______ ____
ROOT
ATOM      1  O   UNL     1       2.081   8.270  18.967  0.00  0.00    +0.000 OA
ATOM      2  C   UNL     1       1.666   7.993  20.086  0.00  0.00    +0.000 C 
ATOM      3  N   UNL     1       1.686   6.744  20.683  0.00  0.00    +0.000 N 
ATOM      4  H   UNL     1       1.126   6.613  21.517  0.00  0.00    +0.000 HD
ENDROOT
BRANCH   2   5
ATOM      5  C   UNL     1       1.052   9.094  20.875  0.00  0.00    +0.000 A 
ATOM      6  C   UNL     1       0.701   8.816  22.209  0.00  0.00    +0.000 A 
ATOM      7  C   UNL     1      -0.014   9.731  22.989  0.00  0.00    +0.000 A 
ATOM      8  C   UNL     1      -0.362  10.924  22.361  0.00  0.00    +0.000 A 
ATOM      9  N   UNL     1      -1.104  12.002  22.751  0.00  0.00    +0.000 N 
ATOM     10  N   UNL     1      -1.156  12.945  21.796  0.00  0.00    +0.000 NA
ATOM     11  N   UNL     1      -0.481  12.489  20.748  0.00  0.00    +0.000 NA
ATOM     12  C   UNL     1       0.000  11.247  21.060  0.00  0.00    +0.000 A 
ATOM     13  C   UNL     1       0.724  10.325  20.286  0.00  0.00    +0.000 A 
ATOM     14  H   UNL     1      -1.614  12.151  23.613  0.00  0.00    +0.000 HD
ENDBRANCH   2   5
BRANCH   3  15
ATOM     15  C   UNL     1       2.291   5.586  20.143  0.00  0.00    +0.000 A 
ATOM     16  C   UNL     1       1.601   4.393  19.919  0.00  0.00    +0.000 A 
ATOM     17  C   UNL     1       2.257   3.276  19.402  0.00  0.00    +0.000 A 
ATOM     18  C   UNL     1       3.609   3.350  19.081  0.00  0.00    +0.000 A 
ATOM     19  C   UNL     1       4.314   4.547  19.261  0.00  0.00    +0.000 A 
ATOM     20  C   UNL     1       3.646   5.659  19.800  0.00  0.00    +0.000 A 
BRANCH  19  21
ATOM     21  C   UNL     1       5.720   4.656  18.889  0.00  0.00    +0.000 A 
ATOM     22  N   UNL     1       6.717   5.094  19.635  0.00  0.00    +0.000 NA
ATOM     23  N   UNL     1       7.870   5.058  18.882  0.00  0.00    +0.000 NA
ATOM     24  C   UNL     1       7.549   4.622  17.689  0.00  0.00    +0.000 A 
ATOM     25  N   UNL     1       6.219   4.355  17.648  0.00  0.00    +0.000 N 
ATOM     26  H   UNL     1       5.686   4.040  16.851  0.00  0.00    +0.000 HD
ENDBRANCH  19  21
ENDBRANCH   3  15
TORSDOF 3
ENDMDL
MODEL 3
REMARK VINA RESULT:      -8.6      3.050      8.633
REMARK  Name = 
REMARK  3 active torsions:
REMARK  status: ('A' for Active; 'I' for Inactive)
REMARK    1  A    between atoms: C_2  and  C_15
REMARK    2  A    between atoms: N_3  and  C_4
REMARK    3  A    between atoms: C_8  and  C_9
REMARK                            x       y       z     vdW  Elec       q    Type
REMARK                         _______ _______ _______ _____ _____    ______ ____
ROOT
ATOM      1  O   UNL     1       2.223   6.309  19.667  0.00  0.00    +0.000 OA
ATOM      2  C   UNL     1       2.838   6.891  18.780  0.00  0.00    +0.000 C 
ATOM      3  N   UNL     1       2.515   8.119  18.228  0.00  0.00    +0.000 N 
ATOM      4  H   UNL     1       2.979   8.384  17.368  0.00  0.00    +0.000 HD
ENDROOT
BRANCH   2   5
ATOM      5  C   UNL     1       4.030   6.205  18.216  0.00  0.00    +0.000 A 
ATOM      6  C   UNL     1       4.794   5.411  19.090  0.00  0.00    +0.000 A 
ATOM      7  C   UNL     1       6.012   4.845  18.699  0.00  0.00    +0.000 A 
ATOM      8  C   UNL     1       6.421   5.123  17.398  0.00  0.00    +0.000 A 
ATOM      9  N   UNL     1       7.552   4.827  16.691  0.00  0.00    +0.000 N 
ATOM     10  N   UNL     1       7.495   5.300  15.436  0.00  0.00    +0.000 NA
ATOM     11  N   UNL     1       6.344   5.947  15.305  0.00  0.00    +0.000 NA
ATOM     12  C   UNL     1       5.674   5.870  16.496  0.00  0.00    +0.000 A 
ATOM     13  C   UNL     1       4.450   6.430  16.895  0.00  0.00    +0.000 A 
ATOM     14  H   UNL     1       8.390   4.347  16.996  0.00  0.00    +0.000 HD
ENDBRANCH   2   5
BRANCH   3  15
ATOM     15  C   UNL     1       1.476   8.970  18.669  0.00  0.00    +0.000 A 
ATOM     16  C   UNL     1       1.459   9.570  19.930  0.00  0.00    +0.000 A 
ATOM     17  C   UNL     1       0.396  10.385  20.317  0.00  0.00    +0.000 A 
ATOM     18  C   UNL     1      -0.653  10.627  19.436  0.00  0.00    +0.000 A 
ATOM     19  C   UNL     1      -0.640  10.067  18.152  0.00  0.00    +0.000 A 
ATOM     20  C   UNL     1       0.427   9.233  17.780  0.00  0.00    +0.000 A 
BRANCH  19  21
ATOM     21  C   UNL     1      -1.708  10.344  17.198  0.00  0.00    +0.000 A 
ATOM     22  N   UNL     1      -2.485   9.471  16.584  0.00  0.00    +0.000 NA
ATOM     23  N   UNL     1      -3.335  10.161  15.747  0.00  0.00    +0.000 NA
ATOM     24  C   UNL     1      -3.045  11.434  15.852  0.00  0.00    +0.000 A 
ATOM     25  N   UNL     1      -2.039  11.597  16.748  0.00  0.00    +0.000 N 
ATOM     26  H   UNL     1      -1.586  12.462  17.003  0.00  0.00    +0.000 HD
ENDBRANCH  19  21
ENDBRANCH   3  15
TORSDOF 3
ENDMDL
MODEL 4
REMARK VINA RESULT:      -8.5      3.069      8.893
REMARK  Name = 
REMARK  3 active torsions:
REMARK  status: ('A' for Active; 'I' for Inactive)
REMARK    1  A    between atoms: C_2  and  C_15
REMARK    2  A    between atoms: N_3  and  C_4
REMARK    3  A    between atoms: C_8  and  C_9
REMARK                            x       y       z     vdW  Elec       q    Type
REMARK                         _______ _______ _______ _____ _____    ______ ____
ROOT
ATOM      1  O   UNL     1       2.411   7.113  19.694  0.00  0.00    +0.000 OA
ATOM      2  C   UNL     1       2.605   7.339  18.505  0.00  0.00    +0.000 C 
ATOM      3  N   UNL     1       2.027   8.349  17.757  0.00  0.00    +0.000 N 
ATOM      4  H   UNL     1       2.111   8.295  16.749  0.00  0.00    +0.000 HD
ENDROOT
BRANCH   2   5
ATOM      5  C   UNL     1       3.530   6.425  17.781  0.00  0.00    +0.000 A 
ATOM      6  C   UNL     1       3.198   5.059  17.752  0.00  0.00    +0.000 A 
ATOM      7  C   UNL     1       4.070   4.099  17.228  0.00  0.00    +0.000 A 
ATOM      8  C   UNL     1       5.285   4.580  16.748  0.00  0.00    +0.000 A 
ATOM      9  N   UNL     1       6.399   3.968  16.246  0.00  0.00    +0.000 N 
ATOM     10  N   UNL     1       7.339   4.858  15.888  0.00  0.00    +0.000 NA
ATOM     11  N   UNL     1       6.877   6.067  16.182  0.00  0.00    +0.000 NA
ATOM     12  C   UNL     1       5.630   5.926  16.726  0.00  0.00    +0.000 A 
ATOM     13  C   UNL     1       4.745   6.883  17.248  0.00  0.00    +0.000 A 
ATOM     14  H   UNL     1       6.597   2.981  16.147  0.00  0.00    +0.000 HD
ENDBRANCH   2   5
BRANCH   3  15
ATOM     15  C   UNL     1       1.187   9.368  18.264  0.00  0.00    +0.000 A 
ATOM     16  C   UNL     1       1.546  10.197  19.328  0.00  0.00    +0.000 A 
ATOM     17  C   UNL     1       0.668  11.174  19.798  0.00  0.00    +0.000 A 
ATOM     18  C   UNL     1      -0.573  11.345  19.191  0.00  0.00    +0.000 A 
ATOM     19  C   UNL     1      -0.939  10.551  18.096  0.00  0.00    +0.000 A 
ATOM     20  C   UNL     1      -0.053   9.559  17.644  0.00  0.00    +0.000 A 
BRANCH  19  21
ATOM     21  C   UNL     1      -2.215  10.745  17.418  0.00  0.00    +0.000 A 
ATOM     22  N   UNL     1      -3.418  10.422  17.858  0.00  0.00    +0.000 NA
ATOM     23  N   UNL     1      -4.337  10.753  16.887  0.00  0.00    +0.000 NA
ATOM     24  C   UNL     1      -3.678  11.248  15.870  0.00  0.00    +0.000 A 
ATOM     25  N   UNL     1      -2.351  11.266  16.157  0.00  0.00    +0.000 N 
ATOM     26  H   UNL     1      -1.601  11.561  15.549  0.00  0.00    +0.000 HD
ENDBRANCH  19  21
ENDBRANCH   3  15
TORSDOF 3
ENDMDL
MODEL 5
REMARK VINA RESULT:      -8.5      2.509      3.554
REMARK  Name = 
REMARK  3 active torsions:
REMARK  status: ('A' for Active; 'I' for Inactive)
REMARK    1  A    between atoms: C_2  and  C_15
REMARK    2  A    between atoms: N_3  and  C_4
REMARK    3  A    between atoms: C_8  and  C_9
REMARK                            x       y       z     vdW  Elec       q    Type
REMARK                         _______ _______ _______ _____ _____    ______ ____
ROOT
ATOM      1  O   UNL     1       3.007   5.380  18.810  0.00  0.00    +0.000 OA
ATOM      2  C   UNL     1       3.331   6.531  18.542  0.00  0.00    +0.000 C 
ATOM      3  N   UNL     1       4.551   6.944  18.035  0.00  0.00    +0.000 N 
ATOM      4  H   UNL     1       4.759   7.934  18.057  0.00  0.00    +0.000 HD
ENDROOT
BRANCH   2   5
ATOM      5  C   UNL     1       2.332   7.599  18.813  0.00  0.00    +0.000 A 
ATOM      6  C   UNL     1       2.009   8.466  17.754  0.00  0.00    +0.000 A 
ATOM      7  C   UNL     1       1.197   9.590  17.942  0.00  0.00    +0.000 A 
ATOM      8  C   UNL     1       0.740   9.798  19.240  0.00  0.00    +0.000 A 
ATOM      9  N   UNL     1       0.011  10.795  19.824  0.00  0.00    +0.000 N 
ATOM     10  N   UNL     1      -0.207  10.556  21.128  0.00  0.00    +0.000 NA
ATOM     11  N   UNL     1       0.404   9.419  21.433  0.00  0.00    +0.000 NA
ATOM     12  C   UNL     1       1.007   8.942  20.301  0.00  0.00    +0.000 A 
ATOM     13  C   UNL     1       1.818   7.813  20.102  0.00  0.00    +0.000 A 
ATOM     14  H   UNL     1      -0.338  11.655  19.420  0.00  0.00    +0.000 HD
ENDBRANCH   2   5
BRANCH   3  15
ATOM     15  C   UNL     1       5.604   6.089  17.634  0.00  0.00    +0.000 A 
ATOM     16  C   UNL     1       6.523   5.533  18.527  0.00  0.00    +0.000 A 
ATOM     17  C   UNL     1       7.553   4.712  18.071  0.00  0.00    +0.000 A 
ATOM     18  C   UNL     1       7.662   4.420  16.714  0.00  0.00    +0.000 A 
ATOM     19  C   UNL     1       6.730   4.934  15.804  0.00  0.00    +0.000 A 
ATOM     20  C   UNL     1       5.707   5.775  16.274  0.00  0.00    +0.000 A 
BRANCH  19  21
ATOM     21  C   UNL     1       6.800   4.603  14.385  0.00  0.00    +0.000 A 
ATOM     22  N   UNL     1       7.451   5.254  13.439  0.00  0.00    +0.000 NA
ATOM     23  N   UNL     1       7.223   4.617  12.239  0.00  0.00    +0.000 NA
ATOM     24  C   UNL     1       6.423   3.606  12.475  0.00  0.00    +0.000 A 
ATOM     25  N   UNL     1       6.135   3.557  13.800  0.00  0.00    +0.000 N 
ATOM     26  H   UNL     1       5.517   2.908  14.264  0.00  0.00    +0.000 HD
ENDBRANCH  19  21
ENDBRANCH   3  15
TORSDOF 3
ENDMDL
MODEL 6
REMARK VINA RESULT:      -8.5      1.726      2.034
REMARK  Name = 
REMARK  3 active torsions:
REMARK  status: ('A' for Active; 'I' for Inactive)
REMARK    1  A    between atoms: C_2  and  C_15
REMARK    2  A    between atoms: N_3  and  C_4
REMARK    3  A    between atoms: C_8  and  C_9
REMARK                            x       y       z     vdW  Elec       q    Type
REMARK                         _______ _______ _______ _____ _____    ______ ____
ROOT
ATOM      1  O   UNL     1       1.855   5.928  20.656  0.00  0.00    +0.000 OA
ATOM      2  C   UNL     1       1.993   6.840  19.849  0.00  0.00    +0.000 C 
ATOM      3  N   UNL     1       2.691   6.781  18.656  0.00  0.00    +0.000 N 
ATOM      4  H   UNL     1       2.902   7.656  18.191  0.00  0.00    +0.000 HD
ENDROOT
BRANCH   2   5
ATOM      5  C   UNL     1       1.378   8.150  20.192  0.00  0.00    +0.000 A 
ATOM      6  C   UNL     1       1.312   9.120  19.175  0.00  0.00    +0.000 A 
ATOM      7  C   UNL     1       0.890  10.429  19.431  0.00  0.00    +0.000 A 
ATOM      8  C   UNL     1       0.550  10.710  20.751  0.00  0.00    +0.000 A 
ATOM      9  N   UNL     1       0.177  11.856  21.395  0.00  0.00    +0.000 N 
ATOM     10  N   UNL     1      -0.073  11.639  22.696  0.00  0.00    +0.000 NA
ATOM     11  N   UNL     1       0.166  10.357  22.940  0.00  0.00    +0.000 NA
ATOM     12  C   UNL     1       0.566   9.768  21.772  0.00  0.00    +0.000 A 
ATOM     13  C   UNL     1       0.985   8.455  21.505  0.00  0.00    +0.000 A 
ATOM     14  H   UNL     1       0.101  12.799  21.032  0.00  0.00    +0.000 HD
ENDBRANCH   2   5
BRANCH   3  15
ATOM     15  C   UNL     1       3.280   5.619  18.106  0.00  0.00    +0.000 A 
ATOM     16  C   UNL     1       2.866   4.325  18.426  0.00  0.00    +0.000 A 
ATOM     17  C   UNL     1       3.497   3.215  17.866  0.00  0.00    +0.000 A 
ATOM     18  C   UNL     1       4.539   3.390  16.960  0.00  0.00    +0.000 A 
ATOM     19  C   UNL     1       4.947   4.679  16.593  0.00  0.00    +0.000 A 
ATOM     20  C   UNL     1       4.314   5.789  17.178  0.00  0.00    +0.000 A 
BRANCH  19  21
ATOM     21  C   UNL     1       6.006   4.884  15.611  0.00  0.00    +0.000 A 
ATOM     22  N   UNL     1       7.116   5.584  15.759  0.00  0.00    +0.000 NA
ATOM     23  N   UNL     1       7.817   5.538  14.575  0.00  0.00    +0.000 NA
ATOM     24  C   UNL     1       7.113   4.833  13.725  0.00  0.00    +0.000 A 
ATOM     25  N   UNL     1       5.976   4.401  14.329  0.00  0.00    +0.000 N 
ATOM     26  H   UNL     1       5.229   3.868  13.908  0.00  0.00    +0.000 HD
ENDBRANCH  19  21
ENDBRANCH   3  15
TORSDOF 3
ENDMDL
MODEL 7
REMARK VINA RESULT:      -8.5      3.082      8.633
REMARK  Name = 
REMARK  3 active torsions:
REMARK  status: ('A' for Active; 'I' for Inactive)
REMARK    1  A    between atoms: C_2  and  C_15
REMARK    2  A    between atoms: N_3  and  C_4
REMARK    3  A    between atoms: C_8  and  C_9
REMARK                            x       y       z     vdW  Elec       q    Type
REMARK                         _______ _______ _______ _____ _____    ______ ____
ROOT
ATOM      1  O   UNL     1       2.237   9.019  17.206  0.00  0.00    +0.000 OA
ATOM      2  C   UNL     1       2.138   8.459  18.292  0.00  0.00    +0.000 C 
ATOM      3  N   UNL     1       1.396   8.896  19.376  0.00  0.00    +0.000 N 
ATOM      4  H   UNL     1       1.568   8.456  20.272  0.00  0.00    +0.000 HD
ENDROOT
BRANCH   2   5
ATOM      5  C   UNL     1       2.912   7.203  18.483  0.00  0.00    +0.000 A 
ATOM      6  C   UNL     1       2.515   6.352  19.530  0.00  0.00    +0.000 A 
ATOM      7  C   UNL     1       3.262   5.225  19.888  0.00  0.00    +0.000 A 
ATOM      8  C   UNL     1       4.422   5.006  19.149  0.00  0.00    +0.000 A 
ATOM      9  N   UNL     1       5.428   4.086  19.241  0.00  0.00    +0.000 N 
ATOM     10  N   UNL     1       6.352   4.258  18.282  0.00  0.00    +0.000 NA
ATOM     11  N   UNL     1       5.991   5.314  17.565  0.00  0.00    +0.000 NA
ATOM     12  C   UNL     1       4.823   5.803  18.085  0.00  0.00    +0.000 A 
ATOM     13  C   UNL     1       4.064   6.929  17.729  0.00  0.00    +0.000 A 
ATOM     14  H   UNL     1       5.564   3.352  19.926  0.00  0.00    +0.000 HD
ENDBRANCH   2   5
BRANCH   3  15
ATOM     15  C   UNL     1       0.531  10.015  19.381  0.00  0.00    +0.000 A 
ATOM     16  C   UNL     1       0.667  11.085  20.267  0.00  0.00    +0.000 A 
ATOM     17  C   UNL     1      -0.229  12.153  20.238  0.00  0.00    +0.000 A 
ATOM     18  C   UNL     1      -1.260  12.172  19.303  0.00  0.00    +0.000 A 
ATOM     19  C   UNL     1      -1.393  11.128  18.378  0.00  0.00    +0.000 A 
ATOM     20  C   UNL     1      -0.495  10.049  18.430  0.00  0.00    +0.000 A 
BRANCH  19  21
ATOM     21  C   UNL     1      -2.439  11.152  17.362  0.00  0.00    +0.000 A 
ATOM     22  N   UNL     1      -3.700  11.514  17.513  0.00  0.00    +0.000 NA
ATOM     23  N   UNL     1      -4.345  11.353  16.307  0.00  0.00    +0.000 NA
ATOM     24  C   UNL     1      -3.472  10.877  15.453  0.00  0.00    +0.000 A 
ATOM     25  N   UNL     1      -2.269  10.738  16.066  0.00  0.00    +0.000 N 
ATOM     26  H   UNL     1      -1.423  10.361  15.665  0.00  0.00    +0.000 HD
ENDBRANCH  19  21
ENDBRANCH   3  15
TORSDOF 3
ENDMDL
MODEL 8
REMARK VINA RESULT:      -8.4      3.167      8.476
REMARK  Name = 
REMARK  3 active torsions:
REMARK  status: ('A' for Active; 'I' for Inactive)
REMARK    1  A    between atoms: C_2  and  C_15
REMARK    2  A    between atoms: N_3  and  C_4
REMARK    3  A    between atoms: C_8  and  C_9
REMARK                            x       y       z     vdW  Elec       q    Type
REMARK                         _______ _______ _______ _____ _____    ______ ____
ROOT
ATOM      1  O   UNL     1       2.307   9.053  17.166  0.00  0.00    +0.000 OA
ATOM      2  C   UNL     1       2.234   8.428  18.219  0.00  0.00    +0.000 C 
ATOM      3  N   UNL     1       1.495   8.782  19.334  0.00  0.00    +0.000 N 
ATOM      4  H   UNL     1       1.688   8.294  20.200  0.00  0.00    +0.000 HD
ENDROOT
BRANCH   2   5
ATOM      5  C   UNL     1       3.039   7.182  18.326  0.00  0.00    +0.000 A 
ATOM      6  C   UNL     1       4.058   6.985  17.377  0.00  0.00    +0.000 A 
ATOM      7  C   UNL     1       4.772   5.785  17.298  0.00  0.00    +0.000 A 
ATOM      8  C   UNL     1       4.405   4.800  18.211  0.00  0.00    +0.000 A 
ATOM      9  N   UNL     1       4.800   3.505  18.396  0.00  0.00    +0.000 N 
ATOM     10  N   UNL     1       4.168   2.933  19.434  0.00  0.00    +0.000 NA
ATOM     11  N   UNL     1       3.320   3.827  19.927  0.00  0.00    +0.000 NA
ATOM     12  C   UNL     1       3.431   4.973  19.186  0.00  0.00    +0.000 A 
ATOM     13  C   UNL     1       2.724   6.183  19.262  0.00  0.00    +0.000 A 
ATOM     14  H   UNL     1       5.452   2.951  17.855  0.00  0.00    +0.000 HD
ENDBRANCH   2   5
BRANCH   3  15
ATOM     15  C   UNL     1       0.605   9.877  19.415  0.00  0.00    +0.000 A 
ATOM     16  C   UNL     1       0.706  10.878  20.383  0.00  0.00    +0.000 A 
ATOM     17  C   UNL     1      -0.214  11.926  20.425  0.00  0.00    +0.000 A 
ATOM     18  C   UNL     1      -1.235  11.993  19.482  0.00  0.00    +0.000 A 
ATOM     19  C   UNL     1      -1.334  11.022  18.477  0.00  0.00    +0.000 A 
ATOM     20  C   UNL     1      -0.412   9.963  18.457  0.00  0.00    +0.000 A 
BRANCH  19  21
ATOM     21  C   UNL     1      -2.370  11.101  17.453  0.00  0.00    +0.000 A 
ATOM     22  N   UNL     1      -3.625  11.482  17.606  0.00  0.00    +0.000 NA
ATOM     23  N   UNL     1      -4.261  11.375  16.388  0.00  0.00    +0.000 NA
ATOM     24  C   UNL     1      -3.389  10.912  15.526  0.00  0.00    +0.000 A 
ATOM     25  N   UNL     1      -2.195  10.728  16.145  0.00  0.00    +0.000 N 
ATOM     26  H   UNL     1      -1.352  10.349  15.740  0.00  0.00    +0.000 HD
ENDBRANCH  19  21
ENDBRANCH   3  15
TORSDOF 3
ENDMDL
MODEL 9
REMARK VINA RESULT:      -8.4      1.640      1.817
REMARK  Name = 
REMARK  3 active torsions:
REMARK  status: ('A' for Active; 'I' for Inactive)
REMARK    1  A    between atoms: C_2  and  C_15
REMARK    2  A    between atoms: N_3  and  C_4
REMARK    3  A    between atoms: C_8  and  C_9
REMARK                            x       y       z     vdW  Elec       q    Type
REMARK                         _______ _______ _______ _____ _____    ______ ____
ROOT
ATOM      1  O   UNL     1       2.529   8.568  17.206  0.00  0.00    +0.000 OA
ATOM      2  C   UNL     1       1.968   8.299  18.262  0.00  0.00    +0.000 C 
ATOM      3  N   UNL     1       1.801   7.037  18.805  0.00  0.00    +0.000 N 
ATOM      4  H   UNL     1       1.143   6.936  19.568  0.00  0.00    +0.000 HD
ENDROOT
BRANCH   2   5
ATOM      5  C   UNL     1       1.381   9.431  19.028  0.00  0.00    +0.000 A 
ATOM      6  C   UNL     1       1.412  10.703  18.429  0.00  0.00    +0.000 A 
ATOM      7  C   UNL     1       1.024  11.855  19.121  0.00  0.00    +0.000 A 
ATOM      8  C   UNL     1       0.614  11.662  20.438  0.00  0.00    +0.000 A 
ATOM      9  N   UNL     1       0.245  12.520  21.436  0.00  0.00    +0.000 N 
ATOM     10  N   UNL     1      -0.091  11.864  22.558  0.00  0.00    +0.000 NA
ATOM     11  N   UNL     1       0.086  10.569  22.333  0.00  0.00    +0.000 NA
ATOM     12  C   UNL     1       0.535  10.417  21.049  0.00  0.00    +0.000 A 
ATOM     13  C   UNL     1       0.921   9.266  20.344  0.00  0.00    +0.000 A 
ATOM     14  H   UNL     1       0.226  13.532  21.435  0.00  0.00    +0.000 HD
ENDBRANCH   2   5
BRANCH   3  15
ATOM     15  C   UNL     1       2.346   5.841  18.283  0.00  0.00    +0.000 A 
ATOM     16  C   UNL     1       1.571   4.733  17.934  0.00  0.00    +0.000 A 
ATOM     17  C   UNL     1       2.167   3.572  17.442  0.00  0.00    +0.000 A 
ATOM     18  C   UNL     1       3.547   3.517  17.273  0.00  0.00    +0.000 A 
ATOM     19  C   UNL     1       4.342   4.629  17.579  0.00  0.00    +0.000 A 
ATOM     20  C   UNL     1       3.731   5.785  18.092  0.00  0.00    +0.000 A 
BRANCH  19  21
ATOM     21  C   UNL     1       5.785   4.605  17.367  0.00  0.00    +0.000 A 
ATOM     22  N   UNL     1       6.432   4.743  16.224  0.00  0.00    +0.000 NA
ATOM     23  N   UNL     1       7.781   4.625  16.474  0.00  0.00    +0.000 NA
ATOM     24  C   UNL     1       7.928   4.396  17.756  0.00  0.00    +0.000 A 
ATOM     25  N   UNL     1       6.709   4.378  18.354  0.00  0.00    +0.000 N 
ATOM     26  H   UNL     1       6.511   4.189  19.325  0.00  0.00    +0.000 HD
ENDBRANCH  19  21
ENDBRANCH   3  15
TORSDOF 3
ENDMDL
