MODEL 1
REMARK VINA RESULT:      -8.3      0.000      0.000
REMARK  Name = 
REMARK  4 active torsions:
REMARK  status: ('A' for Active; 'I' for Inactive)
REMARK    1  A    between atoms: C_2  and  C_18
REMARK    2  A    between atoms: N_3  and  C_4
REMARK    3  A    between atoms: C_8  and  S_9
REMARK    4  A    between atoms: S_9  and  C_12
REMARK                            x       y       z     vdW  Elec       q    Type
REMARK                         _______ _______ _______ _____ _____    ______ ____
ROOT
ATOM      1  C   UNL     1       2.630   6.555  18.659  0.00  0.00    +0.000 A 
ATOM      2  C   UNL     1       2.038   5.305  18.867  0.00  0.00    +0.000 A 
ATOM      3  C   UNL     1       2.526   4.161  18.229  0.00  0.00    +0.000 A 
ATOM      4  C   UNL     1       3.614   4.254  17.370  0.00  0.00    +0.000 A 
ATOM      5  C   UNL     1       4.208   5.500  17.149  0.00  0.00    +0.000 A 
ATOM      6  C   UNL     1       3.708   6.654  17.770  0.00  0.00    +0.000 A 
ENDROOT
BRANCH   1   9
ATOM      7  O   UNL     1       1.132   8.798  17.522  0.00  0.00    +0.000 OA
ATOM      8  C   UNL     1       1.492   8.777  18.696  0.00  0.00    +0.000 C 
ATOM      9  N   UNL     1       2.183   7.735  19.298  0.00  0.00    +0.000 N 
ATOM     10  H   UNL     1       2.299   7.769  20.307  0.00  0.00    +0.000 HD
BRANCH   8  11
ATOM     11  C   UNL     1       1.115   9.925  19.557  0.00  0.00    +0.000 A 
ATOM     12  C   UNL     1       0.310   9.777  20.685  0.00  0.00    +0.000 A 
ATOM     13  F   UNL     1      -0.122   8.565  21.068  0.00  0.00    +0.000 F 
ATOM     14  C   UNL     1      -0.082  10.881  21.446  0.00  0.00    +0.000 A 
ATOM     15  C   UNL     1       0.336  12.160  21.083  0.00  0.00    +0.000 A 
ATOM     16  C   UNL     1       1.148  12.324  19.964  0.00  0.00    +0.000 A 
ATOM     17  C   UNL     1       1.531  11.214  19.211  0.00  0.00    +0.000 A 
ATOM     18  F   UNL     1       2.332  11.433  18.156  0.00  0.00    +0.000 F 
ENDBRANCH   8  11
ENDBRANCH   1   9
BRANCH   5  19
ATOM     19  S   UNL     1       5.512   5.633  15.945  0.00  0.00    +0.000 S 
ATOM     20  O   UNL     1       5.589   4.357  15.260  0.00  0.00    +0.000 OA
ATOM     21  O   UNL     1       5.256   6.852  15.194  0.00  0.00    +0.000 OA
BRANCH  19  22
ATOM     22  C   UNL     1       7.016   5.879  16.873  0.00  0.00    +0.000 C 
ATOM     23  C   UNL     1       6.999   5.063  18.166  0.00  0.00    +0.000 C 
ATOM     24  C   UNL     1       7.900   5.803  19.147  0.00  0.00    +0.000 C 
ATOM     25  C   UNL     1       8.153   7.183  18.555  0.00  0.00    +0.000 C 
ATOM     26  C   UNL     1       7.236   7.308  17.345  0.00  0.00    +0.000 C 
ENDBRANCH  19  22
ENDBRANCH   5  19
TORSDOF 4
ENDMDL
MODEL 2
REMARK VINA RESULT:      -8.0      0.276      1.669
REMARK  Name = 
REMARK  4 active torsions:
REMARK  status: ('A' for Active; 'I' for Inactive)
REMARK    1  A    between atoms: C_2  and  C_18
REMARK    2  A    between atoms: N_3  and  C_4
REMARK    3  A    between atoms: C_8  and  S_9
REMARK    4  A    between atoms: S_9  and  C_12
REMARK                            x       y       z     vdW  Elec       q    Type
REMARK                         _______ _______ _______ _____ _____    ______ ____
ROOT
ATOM      1  C   UNL     1       2.664   6.394  18.504  0.00  0.00    +0.000 A 
ATOM      2  C   UNL     1       2.083   5.132  18.665  0.00  0.00    +0.000 A 
ATOM      3  C   UNL     1       2.606   4.009  18.018  0.00  0.00    +0.000 A 
ATOM      4  C   UNL     1       3.720   4.135  17.196  0.00  0.00    +0.000 A 
ATOM      5  C   UNL     1       4.303   5.393  17.022  0.00  0.00    +0.000 A 
ATOM      6  C   UNL     1       3.768   6.526  17.652  0.00  0.00    +0.000 A 
ENDROOT
BRANCH   1   9
ATOM      7  O   UNL     1       1.679   8.883  17.319  0.00  0.00    +0.000 OA
ATOM      8  C   UNL     1       1.745   8.715  18.534  0.00  0.00    +0.000 C 
ATOM      9  N   UNL     1       2.180   7.552  19.154  0.00  0.00    +0.000 N 
ATOM     10  H   UNL     1       2.054   7.481  20.160  0.00  0.00    +0.000 HD
BRANCH   8  11
ATOM     11  C   UNL     1       1.275   9.815  19.411  0.00  0.00    +0.000 A 
ATOM     12  C   UNL     1       1.523  11.155  19.122  0.00  0.00    +0.000 A 
ATOM     13  F   UNL     1       2.165  11.510  17.998  0.00  0.00    +0.000 F 
ATOM     14  C   UNL     1       1.124  12.171  19.994  0.00  0.00    +0.000 A 
ATOM     15  C   UNL     1       0.460  11.851  21.177  0.00  0.00    +0.000 A 
ATOM     16  C   UNL     1       0.197  10.518  21.477  0.00  0.00    +0.000 A 
ATOM     17  C   UNL     1       0.603   9.512  20.599  0.00  0.00    +0.000 A 
ATOM     18  F   UNL     1       0.302   8.247  20.932  0.00  0.00    +0.000 F 
ENDBRANCH   8  11
ENDBRANCH   1   9
BRANCH   5  19
ATOM     19  S   UNL     1       5.643   5.571  15.865  0.00  0.00    +0.000 S 
ATOM     20  O   UNL     1       5.803   4.291  15.200  0.00  0.00    +0.000 OA
ATOM     21  O   UNL     1       5.360   6.767  15.088  0.00  0.00    +0.000 OA
BRANCH  19  22
ATOM     22  C   UNL     1       7.100   5.896  16.843  0.00  0.00    +0.000 C 
ATOM     23  C   UNL     1       7.079   5.085  18.139  0.00  0.00    +0.000 C 
ATOM     24  C   UNL     1       7.906   5.873  19.147  0.00  0.00    +0.000 C 
ATOM     25  C   UNL     1       8.110   7.263  18.556  0.00  0.00    +0.000 C 
ATOM     26  C   UNL     1       7.230   7.336  17.314  0.00  0.00    +0.000 C 
ENDBRANCH  19  22
ENDBRANCH   5  19
TORSDOF 4
ENDMDL
MODEL 3
REMARK VINA RESULT:      -7.9      1.041      1.932
REMARK  Name = 
REMARK  4 active torsions:
REMARK  status: ('A' for Active; 'I' for Inactive)
REMARK    1  A    between atoms: C_2  and  C_18
REMARK    2  A    between atoms: N_3  and  C_4
REMARK    3  A    between atoms: C_8  and  S_9
REMARK    4  A    between atoms: S_9  and  C_12
REMARK                            x       y       z     vdW  Elec       q    Type
REMARK                         _______ _______ _______ _____ _____    ______ ____
ROOT
ATOM      1  C   UNL     1       2.593   6.205  17.961  0.00  0.00    +0.000 A 
ATOM      2  C   UNL     1       2.095   4.976  18.405  0.00  0.00    +0.000 A 
ATOM      3  C   UNL     1       2.771   3.783  18.133  0.00  0.00    +0.000 A 
ATOM      4  C   UNL     1       3.956   3.805  17.408  0.00  0.00    +0.000 A 
ATOM      5  C   UNL     1       4.458   5.028  16.953  0.00  0.00    +0.000 A 
ATOM      6  C   UNL     1       3.771   6.225  17.205  0.00  0.00    +0.000 A 
ENDROOT
BRANCH   1   9
ATOM      7  O   UNL     1       2.224   7.552  20.534  0.00  0.00    +0.000 OA
ATOM      8  C   UNL     1       1.791   8.016  19.482  0.00  0.00    +0.000 C 
ATOM      9  N   UNL     1       1.953   7.437  18.231  0.00  0.00    +0.000 N 
ATOM     10  H   UNL     1       1.677   7.985  17.421  0.00  0.00    +0.000 HD
BRANCH   8  11
ATOM     11  C   UNL     1       1.087   9.321  19.538  0.00  0.00    +0.000 A 
ATOM     12  C   UNL     1       1.438  10.391  18.718  0.00  0.00    +0.000 A 
ATOM     13  F   UNL     1       2.408  10.266  17.798  0.00  0.00    +0.000 F 
ATOM     14  C   UNL     1       0.802  11.630  18.830  0.00  0.00    +0.000 A 
ATOM     15  C   UNL     1      -0.207  11.810  19.775  0.00  0.00    +0.000 A 
ATOM     16  C   UNL     1      -0.575  10.749  20.597  0.00  0.00    +0.000 A 
ATOM     17  C   UNL     1       0.069   9.517  20.476  0.00  0.00    +0.000 A 
ATOM     18  F   UNL     1      -0.344   8.526  21.281  0.00  0.00    +0.000 F 
ENDBRANCH   8  11
ENDBRANCH   1   9
BRANCH   5  19
ATOM     19  S   UNL     1       5.901   5.035  15.911  0.00  0.00    +0.000 S 
ATOM     20  O   UNL     1       6.116   3.668  15.475  0.00  0.00    +0.000 OA
ATOM     21  O   UNL     1       5.697   6.091  14.932  0.00  0.00    +0.000 OA
BRANCH  19  22
ATOM     22  C   UNL     1       7.261   5.525  16.956  0.00  0.00    +0.000 C 
ATOM     23  C   UNL     1       7.153   4.872  18.335  0.00  0.00    +0.000 C 
ATOM     24  C   UNL     1       7.872   5.803  19.303  0.00  0.00    +0.000 C 
ATOM     25  C   UNL     1       8.089   7.119  18.568  0.00  0.00    +0.000 C 
ATOM     26  C   UNL     1       7.315   7.014  17.260  0.00  0.00    +0.000 C 
ENDBRANCH  19  22
ENDBRANCH   5  19
TORSDOF 4
ENDMDL
MODEL 4
REMARK VINA RESULT:      -7.9      1.088      1.103
REMARK  Name = 
REMARK  4 active torsions:
REMARK  status: ('A' for Active; 'I' for Inactive)
REMARK    1  A    between atoms: C_2  and  C_18
REMARK    2  A    between atoms: N_3  and  C_4
REMARK    3  A    between atoms: C_8  and  S_9
REMARK    4  A    between atoms: S_9  and  C_12
REMARK                            x       y       z     vdW  Elec       q    Type
REMARK                         _______ _______ _______ _____ _____    ______ ____
ROOT
ATOM      1  C   UNL     1       2.607   6.128  17.981  0.00  0.00    +0.000 A 
ATOM      2  C   UNL     1       2.095   4.882  18.357  0.00  0.00    +0.000 A 
ATOM      3  C   UNL     1       2.761   3.699  18.027  0.00  0.00    +0.000 A 
ATOM      4  C   UNL     1       3.951   3.746  17.312  0.00  0.00    +0.000 A 
ATOM      5  C   UNL     1       4.468   4.986  16.924  0.00  0.00    +0.000 A 
ATOM      6  C   UNL     1       3.791   6.174  17.234  0.00  0.00    +0.000 A 
ENDROOT
BRANCH   1   9
ATOM      7  O   UNL     1       2.275   7.365  20.613  0.00  0.00    +0.000 OA
ATOM      8  C   UNL     1       1.833   7.875  19.587  0.00  0.00    +0.000 C 
ATOM      9  N   UNL     1       1.978   7.350  18.311  0.00  0.00    +0.000 N 
ATOM     10  H   UNL     1       1.695   7.934  17.528  0.00  0.00    +0.000 HD
BRANCH   8  11
ATOM     11  C   UNL     1       1.137   9.180  19.707  0.00  0.00    +0.000 A 
ATOM     12  C   UNL     1       0.151   9.412  20.664  0.00  0.00    +0.000 A 
ATOM     13  F   UNL     1      -0.178   8.466  21.557  0.00  0.00    +0.000 F 
ATOM     14  C   UNL     1      -0.534  10.628  20.719  0.00  0.00    +0.000 A 
ATOM     15  C   UNL     1      -0.232  11.639  19.808  0.00  0.00    +0.000 A 
ATOM     16  C   UNL     1       0.757  11.427  18.851  0.00  0.00    +0.000 A 
ATOM     17  C   UNL     1       1.432  10.207  18.804  0.00  0.00    +0.000 A 
ATOM     18  F   UNL     1       2.389  10.069  17.874  0.00  0.00    +0.000 F 
ENDBRANCH   8  11
ENDBRANCH   1   9
BRANCH   5  19
ATOM     19  S   UNL     1       5.918   5.033  15.893  0.00  0.00    +0.000 S 
ATOM     20  O   UNL     1       6.151   3.679  15.427  0.00  0.00    +0.000 OA
ATOM     21  O   UNL     1       5.709   6.108  14.938  0.00  0.00    +0.000 OA
BRANCH  19  22
ATOM     22  C   UNL     1       7.265   5.513  16.960  0.00  0.00    +0.000 C 
ATOM     23  C   UNL     1       7.125   4.870  18.340  0.00  0.00    +0.000 C 
ATOM     24  C   UNL     1       7.838   5.798  19.315  0.00  0.00    +0.000 C 
ATOM     25  C   UNL     1       8.083   7.107  18.576  0.00  0.00    +0.000 C 
ATOM     26  C   UNL     1       7.330   7.004  17.256  0.00  0.00    +0.000 C 
ENDBRANCH  19  22
ENDBRANCH   5  19
TORSDOF 4
ENDMDL
MODEL 5
REMARK VINA RESULT:      -7.6      3.285      4.720
REMARK  Name = 
REMARK  4 active torsions:
REMARK  status: ('A' for Active; 'I' for Inactive)
REMARK    1  A    between atoms: C_2  and  C_18
REMARK    2  A    between atoms: N_3  and  C_4
REMARK    3  A    between atoms: C_8  and  S_9
REMARK    4  A    between atoms: S_9  and  C_12
REMARK                            x       y       z     vdW  Elec       q    Type
REMARK                         _______ _______ _______ _____ _____    ______ ____
ROOT
ATOM      1  C   UNL     1       0.998   9.295  19.475  0.00  0.00    +0.000 A 
ATOM      2  C   UNL     1       1.588   9.780  18.304  0.00  0.00    +0.000 A 
ATOM      3  C   UNL     1       2.498   9.005  17.580  0.00  0.00    +0.000 A 
ATOM      4  C   UNL     1       2.834   7.731  18.022  0.00  0.00    +0.000 A 
ATOM      5  C   UNL     1       2.255   7.240  19.196  0.00  0.00    +0.000 A 
ATOM      6  C   UNL     1       1.358   8.023  19.937  0.00  0.00    +0.000 A 
ENDROOT
BRANCH   1   9
ATOM      7  O   UNL     1       1.468  11.551  21.281  0.00  0.00    +0.000 OA
ATOM      8  C   UNL     1       0.347  11.087  21.087  0.00  0.00    +0.000 C 
ATOM      9  N   UNL     1       0.058  10.036  20.228  0.00  0.00    +0.000 N 
ATOM     10  H   UNL     1      -0.921   9.837  20.043  0.00  0.00    +0.000 HD
BRANCH   8  11
ATOM     11  C   UNL     1      -0.797  11.729  21.780  0.00  0.00    +0.000 A 
ATOM     12  C   UNL     1      -1.363  11.193  22.935  0.00  0.00    +0.000 A 
ATOM     13  F   UNL     1      -0.858  10.086  23.501  0.00  0.00    +0.000 F 
ATOM     14  C   UNL     1      -2.480  11.781  23.535  0.00  0.00    +0.000 A 
ATOM     15  C   UNL     1      -3.044  12.928  22.980  0.00  0.00    +0.000 A 
ATOM     16  C   UNL     1      -2.486  13.481  21.831  0.00  0.00    +0.000 A 
ATOM     17  C   UNL     1      -1.373  12.883  21.239  0.00  0.00    +0.000 A 
ATOM     18  F   UNL     1      -0.866  13.474  20.146  0.00  0.00    +0.000 F 
ENDBRANCH   8  11
ENDBRANCH   1   9
BRANCH   5  19
ATOM     19  S   UNL     1       2.790   5.664  19.828  0.00  0.00    +0.000 S 
ATOM     20  O   UNL     1       4.236   5.629  19.710  0.00  0.00    +0.000 OA
ATOM     21  O   UNL     1       2.159   5.507  21.129  0.00  0.00    +0.000 OA
BRANCH  19  22
ATOM     22  C   UNL     1       2.095   4.434  18.739  0.00  0.00    +0.000 C 
ATOM     23  C   UNL     1       1.115   3.532  19.490  0.00  0.00    +0.000 C 
ATOM     24  C   UNL     1       1.111   2.200  18.750  0.00  0.00    +0.000 C 
ATOM     25  C   UNL     1       2.308   2.218  17.808  0.00  0.00    +0.000 C 
ATOM     26  C   UNL     1       3.112   3.465  18.157  0.00  0.00    +0.000 C 
ENDBRANCH  19  22
ENDBRANCH   5  19
TORSDOF 4
ENDMDL
MODEL 6
REMARK VINA RESULT:      -7.5      2.305      2.983
REMARK  Name = 
REMARK  4 active torsions:
REMARK  status: ('A' for Active; 'I' for Inactive)
REMARK    1  A    between atoms: C_2  and  C_18
REMARK    2  A    between atoms: N_3  and  C_4
REMARK    3  A    between atoms: C_8  and  S_9
REMARK    4  A    between atoms: S_9  and  C_12
REMARK                            x       y       z     vdW  Elec       q    Type
REMARK                         _______ _______ _______ _____ _____    ______ ____
ROOT
ATOM      1  C   UNL     1       3.220   5.947  17.706  0.00  0.00    +0.000 A 
ATOM      2  C   UNL     1       2.725   4.650  17.871  0.00  0.00    +0.000 A 
ATOM      3  C   UNL     1       3.493   3.535  17.521  0.00  0.00    +0.000 A 
ATOM      4  C   UNL     1       4.768   3.705  16.995  0.00  0.00    +0.000 A 
ATOM      5  C   UNL     1       5.268   4.998  16.819  0.00  0.00    +0.000 A 
ATOM      6  C   UNL     1       4.493   6.120  17.149  0.00  0.00    +0.000 A 
ENDROOT
BRANCH   1   9
ATOM      7  O   UNL     1       2.567   6.942  20.380  0.00  0.00    +0.000 OA
ATOM      8  C   UNL     1       2.191   7.510  19.358  0.00  0.00    +0.000 C 
ATOM      9  N   UNL     1       2.487   7.102  18.065  0.00  0.00    +0.000 N 
ATOM     10  H   UNL     1       2.243   7.731  17.307  0.00  0.00    +0.000 HD
BRANCH   8  11
ATOM     11  C   UNL     1       1.407   8.761  19.510  0.00  0.00    +0.000 A 
ATOM     12  C   UNL     1       0.519   8.958  20.566  0.00  0.00    +0.000 A 
ATOM     13  F   UNL     1       0.374   8.032  21.527  0.00  0.00    +0.000 F 
ATOM     14  C   UNL     1      -0.255  10.118  20.655  0.00  0.00    +0.000 A 
ATOM     15  C   UNL     1      -0.143  11.105  19.678  0.00  0.00    +0.000 A 
ATOM     16  C   UNL     1       0.745  10.927  18.621  0.00  0.00    +0.000 A 
ATOM     17  C   UNL     1       1.511   9.764  18.541  0.00  0.00    +0.000 A 
ATOM     18  F   UNL     1       2.364   9.658  17.511  0.00  0.00    +0.000 F 
ENDBRANCH   8  11
ENDBRANCH   1   9
BRANCH   5  19
ATOM     19  S   UNL     1       6.845   5.212  16.022  0.00  0.00    +0.000 S 
ATOM     20  O   UNL     1       7.304   6.551  16.343  0.00  0.00    +0.000 OA
ATOM     21  O   UNL     1       7.650   4.057  16.385  0.00  0.00    +0.000 OA
BRANCH  19  22
ATOM     22  C   UNL     1       6.528   5.119  14.269  0.00  0.00    +0.000 C 
ATOM     23  C   UNL     1       5.918   3.768  13.896  0.00  0.00    +0.000 C 
ATOM     24  C   UNL     1       6.303   3.513  12.444  0.00  0.00    +0.000 C 
ATOM     25  C   UNL     1       7.391   4.522  12.096  0.00  0.00    +0.000 C 
ATOM     26  C   UNL     1       7.773   5.210  13.400  0.00  0.00    +0.000 C 
ENDBRANCH  19  22
ENDBRANCH   5  19
TORSDOF 4
ENDMDL
MODEL 7
REMARK VINA RESULT:      -7.5      3.740      8.135
REMARK  Name = 
REMARK  4 active torsions:
REMARK  status: ('A' for Active; 'I' for Inactive)
REMARK    1  A    between atoms: C_2  and  C_18
REMARK    2  A    between atoms: N_3  and  C_4
REMARK    3  A    between atoms: C_8  and  S_9
REMARK    4  A    between atoms: S_9  and  C_12
REMARK                            x       y       z     vdW  Elec       q    Type
REMARK                         _______ _______ _______ _____ _____    ______ ____
ROOT
ATOM      1  C   UNL     1       1.467   8.338  20.239  0.00  0.00    +0.000 A 
ATOM      2  C   UNL     1       1.533   8.389  21.635  0.00  0.00    +0.000 A 
ATOM      3  C   UNL     1       0.818   9.350  22.356  0.00  0.00    +0.000 A 
ATOM      4  C   UNL     1       0.028  10.278  21.686  0.00  0.00    +0.000 A 
ATOM      5  C   UNL     1      -0.038  10.240  20.291  0.00  0.00    +0.000 A 
ATOM      6  C   UNL     1       0.695   9.291  19.562  0.00  0.00    +0.000 A 
ENDROOT
BRANCH   1   9
ATOM      7  O   UNL     1       1.668   5.452  20.682  0.00  0.00    +0.000 OA
ATOM      8  C   UNL     1       2.232   6.013  19.746  0.00  0.00    +0.000 C 
ATOM      9  N   UNL     1       2.157   7.371  19.471  0.00  0.00    +0.000 N 
ATOM     10  H   UNL     1       2.547   7.694  18.590  0.00  0.00    +0.000 HD
BRANCH   8  11
ATOM     11  C   UNL     1       3.012   5.174  18.803  0.00  0.00    +0.000 A 
ATOM     12  C   UNL     1       2.404   4.432  17.792  0.00  0.00    +0.000 A 
ATOM     13  F   UNL     1       1.077   4.488  17.598  0.00  0.00    +0.000 F 
ATOM     14  C   UNL     1       3.152   3.601  16.954  0.00  0.00    +0.000 A 
ATOM     15  C   UNL     1       4.532   3.506  17.120  0.00  0.00    +0.000 A 
ATOM     16  C   UNL     1       5.156   4.246  18.121  0.00  0.00    +0.000 A 
ATOM     17  C   UNL     1       4.398   5.071  18.953  0.00  0.00    +0.000 A 
ATOM     18  F   UNL     1       5.057   5.777  19.885  0.00  0.00    +0.000 F 
ENDBRANCH   8  11
ENDBRANCH   1   9
BRANCH   5  19
ATOM     19  S   UNL     1      -0.941  11.511  19.434  0.00  0.00    +0.000 S 
ATOM     20  O   UNL     1      -1.549  12.355  20.446  0.00  0.00    +0.000 OA
ATOM     21  O   UNL     1      -0.025  12.083  18.461  0.00  0.00    +0.000 OA
BRANCH  19  22
ATOM     22  C   UNL     1      -2.234  10.675  18.532  0.00  0.00    +0.000 C 
ATOM     23  C   UNL     1      -1.718  10.169  17.184  0.00  0.00    +0.000 C 
ATOM     24  C   UNL     1      -2.929  10.110  16.261  0.00  0.00    +0.000 C 
ATOM     25  C   UNL     1      -4.044  10.886  16.951  0.00  0.00    +0.000 C 
ATOM     26  C   UNL     1      -3.414  11.561  18.163  0.00  0.00    +0.000 C 
ENDBRANCH  19  22
ENDBRANCH   5  19
TORSDOF 4
ENDMDL
MODEL 8
REMARK VINA RESULT:      -7.5      1.611      1.807
REMARK  Name = 
REMARK  4 active torsions:
REMARK  status: ('A' for Active; 'I' for Inactive)
REMARK    1  A    between atoms: C_2  and  C_18
REMARK    2  A    between atoms: N_3  and  C_4
REMARK    3  A    between atoms: C_8  and  S_9
REMARK    4  A    between atoms: S_9  and  C_12
REMARK                            x       y       z     vdW  Elec       q    Type
REMARK                         _______ _______ _______ _____ _____    ______ ____
ROOT
ATOM      1  C   UNL     1       2.413   7.747  18.481  0.00  0.00    +0.000 A 
ATOM      2  C   UNL     1       2.173   6.835  19.513  0.00  0.00    +0.000 A 
ATOM      3  C   UNL     1       2.897   5.643  19.605  0.00  0.00    +0.000 A 
ATOM      4  C   UNL     1       3.872   5.346  18.660  0.00  0.00    +0.000 A 
ATOM      5  C   UNL     1       4.114   6.247  17.620  0.00  0.00    +0.000 A 
ATOM      6  C   UNL     1       3.374   7.435  17.512  0.00  0.00    +0.000 A 
ENDROOT
BRANCH   1   9
ATOM      7  O   UNL     1       1.037   9.283  20.558  0.00  0.00    +0.000 OA
ATOM      8  C   UNL     1       1.066   9.645  19.384  0.00  0.00    +0.000 C 
ATOM      9  N   UNL     1       1.719   8.974  18.360  0.00  0.00    +0.000 N 
ATOM     10  H   UNL     1       1.793   9.444  17.463  0.00  0.00    +0.000 HD
BRANCH   8  11
ATOM     11  C   UNL     1       0.399  10.924  19.037  0.00  0.00    +0.000 A 
ATOM     12  C   UNL     1      -0.869  10.970  18.461  0.00  0.00    +0.000 A 
ATOM     13  F   UNL     1      -1.566   9.844  18.239  0.00  0.00    +0.000 F 
ATOM     14  C   UNL     1      -1.451  12.183  18.086  0.00  0.00    +0.000 A 
ATOM     15  C   UNL     1      -0.763  13.378  18.290  0.00  0.00    +0.000 A 
ATOM     16  C   UNL     1       0.501  13.350  18.873  0.00  0.00    +0.000 A 
ATOM     17  C   UNL     1       1.073  12.132  19.241  0.00  0.00    +0.000 A 
ATOM     18  F   UNL     1       2.285  12.171  19.817  0.00  0.00    +0.000 F 
ENDBRANCH   8  11
ENDBRANCH   1   9
BRANCH   5  19
ATOM     19  S   UNL     1       5.266   5.799  16.339  0.00  0.00    +0.000 S 
ATOM     20  O   UNL     1       5.077   4.386  16.074  0.00  0.00    +0.000 OA
ATOM     21  O   UNL     1       5.094   6.772  15.272  0.00  0.00    +0.000 OA
BRANCH  19  22
ATOM     22  C   UNL     1       6.892   6.042  17.032  0.00  0.00    +0.000 C 
ATOM     23  C   UNL     1       7.076   5.205  18.299  0.00  0.00    +0.000 C 
ATOM     24  C   UNL     1       8.111   5.936  19.145  0.00  0.00    +0.000 C 
ATOM     25  C   UNL     1       8.265   7.328  18.544  0.00  0.00    +0.000 C 
ATOM     26  C   UNL     1       7.173   7.465  17.490  0.00  0.00    +0.000 C 
ENDBRANCH  19  22
ENDBRANCH   5  19
TORSDOF 4
ENDMDL
MODEL 9
REMARK VINA RESULT:      -7.5      3.285      4.959
REMARK  Name = 
REMARK  4 active torsions:
REMARK  status: ('A' for Active; 'I' for Inactive)
REMARK    1  A    between atoms: C_2  and  C_18
REMARK    2  A    between atoms: N_3  and  C_4
REMARK    3  A    between atoms: C_8  and  S_9
REMARK    4  A    between atoms: S_9  and  C_12
REMARK                            x       y       z     vdW  Elec       q    Type
REMARK                         _______ _______ _______ _____ _____    ______ ____
ROOT
ATOM      1  C   UNL     1       0.963   9.322  19.347  0.00  0.00    +0.000 A 
ATOM      2  C   UNL     1       1.624   9.813  18.216  0.00  0.00    +0.000 A 
ATOM      3  C   UNL     1       2.584   9.044  17.552  0.00  0.00    +0.000 A 
ATOM      4  C   UNL     1       2.898   7.771  18.013  0.00  0.00    +0.000 A 
ATOM      5  C   UNL     1       2.248   7.275  19.147  0.00  0.00    +0.000 A 
ATOM      6  C   UNL     1       1.300   8.052  19.829  0.00  0.00    +0.000 A 
ENDROOT
BRANCH   1   9
ATOM      7  O   UNL     1       1.302  11.305  21.473  0.00  0.00    +0.000 OA
ATOM      8  C   UNL     1       0.195  10.972  21.056  0.00  0.00    +0.000 C 
ATOM      9  N   UNL     1      -0.029  10.057  20.038  0.00  0.00    +0.000 N 
ATOM     10  H   UNL     1      -0.977   9.971  19.684  0.00  0.00    +0.000 HD
BRANCH   8  11
ATOM     11  C   UNL     1      -0.995  11.634  21.645  0.00  0.00    +0.000 A 
ATOM     12  C   UNL     1      -1.665  12.670  20.999  0.00  0.00    +0.000 A 
ATOM     13  F   UNL     1      -1.284  13.083  19.780  0.00  0.00    +0.000 F 
ATOM     14  C   UNL     1      -2.746  13.320  21.600  0.00  0.00    +0.000 A 
ATOM     15  C   UNL     1      -3.174  12.931  22.867  0.00  0.00    +0.000 A 
ATOM     16  C   UNL     1      -2.521  11.892  23.523  0.00  0.00    +0.000 A 
ATOM     17  C   UNL     1      -1.441  11.252  22.914  0.00  0.00    +0.000 A 
ATOM     18  F   UNL     1      -0.865  10.243  23.586  0.00  0.00    +0.000 F 
ENDBRANCH   8  11
ENDBRANCH   1   9
BRANCH   5  19
ATOM     19  S   UNL     1       2.751   5.702  19.811  0.00  0.00    +0.000 S 
ATOM     20  O   UNL     1       4.197   5.640  19.707  0.00  0.00    +0.000 OA
ATOM     21  O   UNL     1       2.106   5.577  21.108  0.00  0.00    +0.000 OA
BRANCH  19  22
ATOM     22  C   UNL     1       2.044   4.465  18.736  0.00  0.00    +0.000 C 
ATOM     23  C   UNL     1       1.146   3.509  19.522  0.00  0.00    +0.000 C 
ATOM     24  C   UNL     1       1.153   2.192  18.755  0.00  0.00    +0.000 C 
ATOM     25  C   UNL     1       2.294   2.277  17.749  0.00  0.00    +0.000 C 
ATOM     26  C   UNL     1       3.065   3.549  18.078  0.00  0.00    +0.000 C 
ENDBRANCH  19  22
ENDBRANCH   5  19
TORSDOF 4
ENDMDL
