MODEL 1
REMARK VINA RESULT:      -8.0      0.000      0.000
REMARK  Name = 
REMARK  4 active torsions:
REMARK  status: ('A' for Active; 'I' for Inactive)
REMARK    1  A    between atoms: C_2  and  C_14
REMARK    2  A    between atoms: N_3  and  C_4
REMARK    3  A    between atoms: C_19  and  C_20
REMARK    4  A    between atoms: C_20  and  N_21
REMARK                            x       y       z     vdW  Elec       q    Type
REMARK                         _______ _______ _______ _____ _____    ______ ____
ROOT
ATOM      1  O   UNL     1       5.224   7.664  17.832  0.00  0.00    +0.000 OA
ATOM      2  C   UNL     1       4.432   6.849  17.360  0.00  0.00    +0.000 C 
ATOM      3  N   UNL     1       3.059   6.888  17.497  0.00  0.00    +0.000 N 
ATOM      4  H   UNL     1       2.506   6.175  17.012  0.00  0.00    +0.000 HD
ENDROOT
BRANCH   3   5
ATOM      5  C   UNL     1       2.319   7.759  18.332  0.00  0.00    +0.000 A 
ATOM      6  C   UNL     1       1.704   8.936  17.843  0.00  0.00    +0.000 A 
ATOM      7  C   UNL     1       1.051   9.836  18.697  0.00  0.00    +0.000 A 
ATOM      8  C   UNL     1       1.022   9.511  20.028  0.00  0.00    +0.000 A 
ATOM      9  N   UNL     1       0.476  10.208  21.100  0.00  0.00    +0.000 N 
ATOM     10  C   UNL     1       0.713   9.482  22.276  0.00  0.00    +0.000 A 
ATOM     11  O   UNL     1       0.388   9.798  23.406  0.00  0.00    +0.000 OA
ATOM     12  N   UNL     1       1.405   8.320  21.897  0.00  0.00    +0.000 N 
ATOM     13  C   UNL     1       1.606   8.347  20.519  0.00  0.00    +0.000 A 
ATOM     14  C   UNL     1       2.265   7.455  19.703  0.00  0.00    +0.000 A 
ATOM     15  H   UNL     1       0.007  11.097  21.073  0.00  0.00    +0.000 HD
ATOM     16  H   UNL     1       1.712   7.616  22.547  0.00  0.00    +0.000 HD
ENDBRANCH   3   5
BRANCH   2  17
ATOM     17  C   UNL     1       5.006   5.700  16.598  0.00  0.00    +0.000 A 
ATOM     18  C   UNL     1       5.237   5.957  15.231  0.00  0.00    +0.000 A 
ATOM     19  C   UNL     1       5.769   4.981  14.393  0.00  0.00    +0.000 A 
ATOM     20  C   UNL     1       6.100   3.736  14.916  0.00  0.00    +0.000 A 
ATOM     21  C   UNL     1       5.854   3.455  16.261  0.00  0.00    +0.000 A 
ATOM     22  C   UNL     1       5.267   4.415  17.116  0.00  0.00    +0.000 A 
BRANCH  22  23
ATOM     23  C   UNL     1       4.868   3.975  18.506  0.00  0.00    +0.000 C 
BRANCH  23  24
ATOM     24  N   UNL     1       3.442   3.699  18.666  0.00  0.00    +0.000 N 
ATOM     25  C   UNL     1       2.580   3.322  17.671  0.00  0.00    +0.000 A 
ATOM     26  C   UNL     1       1.324   3.321  18.230  0.00  0.00    +0.000 A 
ATOM     27  C   UNL     1       1.523   3.718  19.563  0.00  0.00    +0.000 A 
ATOM     28  N   UNL     1       2.804   3.999  19.821  0.00  0.00    +0.000 NA
ENDBRANCH  23  24
ENDBRANCH  22  23
ENDBRANCH   2  17
TORSDOF 4
ENDMDL
MODEL 2
REMARK VINA RESULT:      -7.8      2.622      3.470
REMARK  Name = 
REMARK  4 active torsions:
REMARK  status: ('A' for Active; 'I' for Inactive)
REMARK    1  A    between atoms: C_2  and  C_14
REMARK    2  A    between atoms: N_3  and  C_4
REMARK    3  A    between atoms: C_19  and  C_20
REMARK    4  A    between atoms: C_20  and  N_21
REMARK                            x       y       z     vdW  Elec       q    Type
REMARK                         _______ _______ _______ _____ _____    ______ ____
ROOT
ATOM      1  O   UNL     1       2.176   7.694  19.743  0.00  0.00    +0.000 OA
ATOM      2  C   UNL     1       2.411   7.769  18.537  0.00  0.00    +0.000 C 
ATOM      3  N   UNL     1       1.973   8.770  17.693  0.00  0.00    +0.000 N 
ATOM      4  H   UNL     1       2.281   8.745  16.716  0.00  0.00    +0.000 HD
ENDROOT
BRANCH   3   5
ATOM      5  C   UNL     1       1.045   9.791  18.006  0.00  0.00    +0.000 A 
ATOM      6  C   UNL     1       1.437  11.018  18.592  0.00  0.00    +0.000 A 
ATOM      7  C   UNL     1       0.498  11.984  18.980  0.00  0.00    +0.000 A 
ATOM      8  C   UNL     1      -0.820  11.689  18.747  0.00  0.00    +0.000 A 
ATOM      9  N   UNL     1      -1.960  12.430  19.039  0.00  0.00    +0.000 N 
ATOM     10  C   UNL     1      -3.086  11.703  18.627  0.00  0.00    +0.000 A 
ATOM     11  O   UNL     1      -4.251  12.039  18.738  0.00  0.00    +0.000 OA
ATOM     12  N   UNL     1      -2.608  10.508  18.065  0.00  0.00    +0.000 N 
ATOM     13  C   UNL     1      -1.218  10.495  18.153  0.00  0.00    +0.000 A 
ATOM     14  C   UNL     1      -0.316   9.525  17.777  0.00  0.00    +0.000 A 
ATOM     15  H   UNL     1      -2.004  13.327  19.491  0.00  0.00    +0.000 HD
ATOM     16  H   UNL     1      -3.204   9.789  17.692  0.00  0.00    +0.000 HD
ENDBRANCH   3   5
BRANCH   2  17
ATOM     17  C   UNL     1       3.216   6.669  17.926  0.00  0.00    +0.000 A 
ATOM     18  C   UNL     1       4.394   7.093  17.279  0.00  0.00    +0.000 A 
ATOM     19  C   UNL     1       5.247   6.179  16.662  0.00  0.00    +0.000 A 
ATOM     20  C   UNL     1       4.943   4.824  16.705  0.00  0.00    +0.000 A 
ATOM     21  C   UNL     1       3.767   4.390  17.319  0.00  0.00    +0.000 A 
ATOM     22  C   UNL     1       2.864   5.304  17.905  0.00  0.00    +0.000 A 
BRANCH  22  23
ATOM     23  C   UNL     1       1.533   4.775  18.387  0.00  0.00    +0.000 C 
BRANCH  23  24
ATOM     24  N   UNL     1       1.584   4.101  19.683  0.00  0.00    +0.000 N 
ATOM     25  C   UNL     1       2.301   4.512  20.775  0.00  0.00    +0.000 A 
ATOM     26  C   UNL     1       2.184   3.513  21.712  0.00  0.00    +0.000 A 
ATOM     27  C   UNL     1       1.385   2.535  21.095  0.00  0.00    +0.000 A 
ATOM     28  N   UNL     1       1.059   2.864  19.841  0.00  0.00    +0.000 NA
ENDBRANCH  23  24
ENDBRANCH  22  23
ENDBRANCH   2  17
TORSDOF 4
ENDMDL
MODEL 3
REMARK VINA RESULT:      -7.8      1.483      2.026
REMARK  Name = 
REMARK  4 active torsions:
REMARK  status: ('A' for Active; 'I' for Inactive)
REMARK    1  A    between atoms: C_2  and  C_14
REMARK    2  A    between atoms: N_3  and  C_4
REMARK    3  A    between atoms: C_19  and  C_20
REMARK    4  A    between atoms: C_20  and  N_21
REMARK                            x       y       z     vdW  Elec       q    Type
REMARK                         _______ _______ _______ _____ _____    ______ ____
ROOT
ATOM      1  O   UNL     1       2.893   6.434  19.921  0.00  0.00    +0.000 OA
ATOM      2  C   UNL     1       2.958   6.761  18.736  0.00  0.00    +0.000 C 
ATOM      3  N   UNL     1       2.375   7.881  18.177  0.00  0.00    +0.000 N 
ATOM      4  H   UNL     1       2.546   8.068  17.185  0.00  0.00    +0.000 HD
ENDROOT
BRANCH   3   5
ATOM      5  C   UNL     1       1.464   8.761  18.808  0.00  0.00    +0.000 A 
ATOM      6  C   UNL     1       0.697   9.704  18.084  0.00  0.00    +0.000 A 
ATOM      7  C   UNL     1      -0.133  10.631  18.729  0.00  0.00    +0.000 A 
ATOM      8  C   UNL     1      -0.179  10.567  20.097  0.00  0.00    +0.000 A 
ATOM      9  N   UNL     1      -0.883  11.357  21.000  0.00  0.00    +0.000 N 
ATOM     10  C   UNL     1      -0.595  10.921  22.300  0.00  0.00    +0.000 A 
ATOM     11  O   UNL     1      -1.025  11.390  23.339  0.00  0.00    +0.000 OA
ATOM     12  N   UNL     1       0.290   9.838  22.173  0.00  0.00    +0.000 N 
ATOM     13  C   UNL     1       0.555   9.632  20.821  0.00  0.00    +0.000 A 
ATOM     14  C   UNL     1       1.388   8.722  20.211  0.00  0.00    +0.000 A 
ATOM     15  H   UNL     1      -1.486  12.134  20.788  0.00  0.00    +0.000 HD
ATOM     16  H   UNL     1       0.671   9.333  22.955  0.00  0.00    +0.000 HD
ENDBRANCH   3   5
BRANCH   2  17
ATOM     17  C   UNL     1       3.708   5.855  17.816  0.00  0.00    +0.000 A 
ATOM     18  C   UNL     1       4.855   6.429  17.231  0.00  0.00    +0.000 A 
ATOM     19  C   UNL     1       5.656   5.704  16.351  0.00  0.00    +0.000 A 
ATOM     20  C   UNL     1       5.332   4.384  16.060  0.00  0.00    +0.000 A 
ATOM     21  C   UNL     1       4.185   3.809  16.609  0.00  0.00    +0.000 A 
ATOM     22  C   UNL     1       3.332   4.542  17.464  0.00  0.00    +0.000 A 
BRANCH  22  23
ATOM     23  C   UNL     1       2.021   3.909  17.870  0.00  0.00    +0.000 C 
BRANCH  23  24
ATOM     24  N   UNL     1       1.998   3.389  19.236  0.00  0.00    +0.000 N 
ATOM     25  C   UNL     1       0.943   3.460  20.105  0.00  0.00    +0.000 A 
ATOM     26  C   UNL     1       1.405   2.992  21.312  0.00  0.00    +0.000 A 
ATOM     27  C   UNL     1       2.753   2.670  21.080  0.00  0.00    +0.000 A 
ATOM     28  N   UNL     1       3.134   2.958  19.831  0.00  0.00    +0.000 NA
ENDBRANCH  23  24
ENDBRANCH  22  23
ENDBRANCH   2  17
TORSDOF 4
ENDMDL
MODEL 4
REMARK VINA RESULT:      -7.8      2.542      3.399
REMARK  Name = 
REMARK  4 active torsions:
REMARK  status: ('A' for Active; 'I' for Inactive)
REMARK    1  A    between atoms: C_2  and  C_14
REMARK    2  A    between atoms: N_3  and  C_4
REMARK    3  A    between atoms: C_19  and  C_20
REMARK    4  A    between atoms: C_20  and  N_21
REMARK                            x       y       z     vdW  Elec       q    Type
REMARK                         _______ _______ _______ _____ _____    ______ ____
ROOT
ATOM      1  O   UNL     1       2.194   7.698  19.781  0.00  0.00    +0.000 OA
ATOM      2  C   UNL     1       2.415   7.790  18.574  0.00  0.00    +0.000 C 
ATOM      3  N   UNL     1       1.970   8.804  17.749  0.00  0.00    +0.000 N 
ATOM      4  H   UNL     1       2.266   8.792  16.769  0.00  0.00    +0.000 HD
ENDROOT
BRANCH   3   5
ATOM      5  C   UNL     1       1.050   9.825  18.089  0.00  0.00    +0.000 A 
ATOM      6  C   UNL     1      -0.349   9.660  17.949  0.00  0.00    +0.000 A 
ATOM      7  C   UNL     1      -1.243  10.709  18.203  0.00  0.00    +0.000 A 
ATOM      8  C   UNL     1      -0.698  11.898  18.612  0.00  0.00    +0.000 A 
ATOM      9  N   UNL     1      -1.321  13.104  18.912  0.00  0.00    +0.000 N 
ATOM     10  C   UNL     1      -0.341  14.041  19.266  0.00  0.00    +0.000 A 
ATOM     11  O   UNL     1      -0.523  15.205  19.577  0.00  0.00    +0.000 OA
ATOM     12  N   UNL     1       0.895  13.378  19.188  0.00  0.00    +0.000 N 
ATOM     13  C   UNL     1       0.674  12.067  18.773  0.00  0.00    +0.000 A 
ATOM     14  C   UNL     1       1.574  11.057  18.515  0.00  0.00    +0.000 A 
ATOM     15  H   UNL     1      -2.305  13.309  18.868  0.00  0.00    +0.000 HD
ATOM     16  H   UNL     1       1.778  13.818  19.384  0.00  0.00    +0.000 HD
ENDBRANCH   3   5
BRANCH   2  17
ATOM     17  C   UNL     1       3.208   6.696  17.937  0.00  0.00    +0.000 A 
ATOM     18  C   UNL     1       4.344   7.131  17.225  0.00  0.00    +0.000 A 
ATOM     19  C   UNL     1       5.181   6.225  16.577  0.00  0.00    +0.000 A 
ATOM     20  C   UNL     1       4.905   4.865  16.653  0.00  0.00    +0.000 A 
ATOM     21  C   UNL     1       3.770   4.418  17.333  0.00  0.00    +0.000 A 
ATOM     22  C   UNL     1       2.881   5.325  17.953  0.00  0.00    +0.000 A 
BRANCH  22  23
ATOM     23  C   UNL     1       1.586   4.778  18.509  0.00  0.00    +0.000 C 
BRANCH  23  24
ATOM     24  N   UNL     1       1.736   4.008  19.742  0.00  0.00    +0.000 N 
ATOM     25  C   UNL     1       1.073   2.850  20.051  0.00  0.00    +0.000 A 
ATOM     26  C   UNL     1       1.398   2.556  21.355  0.00  0.00    +0.000 A 
ATOM     27  C   UNL     1       2.253   3.597  21.755  0.00  0.00    +0.000 A 
ATOM     28  N   UNL     1       2.422   4.511  20.794  0.00  0.00    +0.000 NA
ENDBRANCH  23  24
ENDBRANCH  22  23
ENDBRANCH   2  17
TORSDOF 4
ENDMDL
MODEL 5
REMARK VINA RESULT:      -7.6      1.277      1.834
REMARK  Name = 
REMARK  4 active torsions:
REMARK  status: ('A' for Active; 'I' for Inactive)
REMARK    1  A    between atoms: C_2  and  C_14
REMARK    2  A    between atoms: N_3  and  C_4
REMARK    3  A    between atoms: C_19  and  C_20
REMARK    4  A    between atoms: C_20  and  N_21
REMARK                            x       y       z     vdW  Elec       q    Type
REMARK                         _______ _______ _______ _____ _____    ______ ____
ROOT
ATOM      1  O   UNL     1       5.262   7.723  17.735  0.00  0.00    +0.000 OA
ATOM      2  C   UNL     1       4.464   6.868  17.355  0.00  0.00    +0.000 C 
ATOM      3  N   UNL     1       3.101   6.882  17.579  0.00  0.00    +0.000 N 
ATOM      4  H   UNL     1       2.537   6.135  17.164  0.00  0.00    +0.000 HD
ENDROOT
BRANCH   3   5
ATOM      5  C   UNL     1       2.395   7.774  18.421  0.00  0.00    +0.000 A 
ATOM      6  C   UNL     1       2.166   7.503  19.790  0.00  0.00    +0.000 A 
ATOM      7  C   UNL     1       1.387   8.351  20.590  0.00  0.00    +0.000 A 
ATOM      8  C   UNL     1       0.874   9.467  19.984  0.00  0.00    +0.000 A 
ATOM      9  N   UNL     1       0.059  10.466  20.507  0.00  0.00    +0.000 N 
ATOM     10  C   UNL     1      -0.223  11.393  19.494  0.00  0.00    +0.000 A 
ATOM     11  O   UNL     1      -0.917  12.389  19.590  0.00  0.00    +0.000 OA
ATOM     12  N   UNL     1       0.448  10.946  18.344  0.00  0.00    +0.000 N 
ATOM     13  C   UNL     1       1.108   9.757  18.643  0.00  0.00    +0.000 A 
ATOM     14  C   UNL     1       1.856   8.932  17.834  0.00  0.00    +0.000 A 
ATOM     15  H   UNL     1      -0.304  10.528  21.443  0.00  0.00    +0.000 HD
ATOM     16  H   UNL     1       0.413  11.421  17.458  0.00  0.00    +0.000 HD
ENDBRANCH   3   5
BRANCH   2  17
ATOM     17  C   UNL     1       5.017   5.698  16.609  0.00  0.00    +0.000 A 
ATOM     18  C   UNL     1       5.256   5.933  15.240  0.00  0.00    +0.000 A 
ATOM     19  C   UNL     1       5.771   4.935  14.415  0.00  0.00    +0.000 A 
ATOM     20  C   UNL     1       6.076   3.692  14.956  0.00  0.00    +0.000 A 
ATOM     21  C   UNL     1       5.822   3.434  16.303  0.00  0.00    +0.000 A 
ATOM     22  C   UNL     1       5.252   4.416  17.145  0.00  0.00    +0.000 A 
BRANCH  22  23
ATOM     23  C   UNL     1       4.841   4.002  18.539  0.00  0.00    +0.000 C 
BRANCH  23  24
ATOM     24  N   UNL     1       3.488   3.458  18.634  0.00  0.00    +0.000 N 
ATOM     25  C   UNL     1       3.065   2.262  18.118  0.00  0.00    +0.000 A 
ATOM     26  C   UNL     1       1.703   2.222  18.303  0.00  0.00    +0.000 A 
ATOM     27  C   UNL     1       1.390   3.441  18.929  0.00  0.00    +0.000 A 
ATOM     28  N   UNL     1       2.466   4.219  19.087  0.00  0.00    +0.000 NA
ENDBRANCH  23  24
ENDBRANCH  22  23
ENDBRANCH   2  17
TORSDOF 4
ENDMDL
MODEL 6
REMARK VINA RESULT:      -7.5      1.560      1.944
REMARK  Name = 
REMARK  4 active torsions:
REMARK  status: ('A' for Active; 'I' for Inactive)
REMARK    1  A    between atoms: C_2  and  C_14
REMARK    2  A    between atoms: N_3  and  C_4
REMARK    3  A    between atoms: C_19  and  C_20
REMARK    4  A    between atoms: C_20  and  N_21
REMARK                            x       y       z     vdW  Elec       q    Type
REMARK                         _______ _______ _______ _____ _____    ______ ____
ROOT
ATOM      1  O   UNL     1       2.982   8.250  16.905  0.00  0.00    +0.000 OA
ATOM      2  C   UNL     1       3.128   7.441  17.821  0.00  0.00    +0.000 C 
ATOM      3  N   UNL     1       2.444   7.450  19.020  0.00  0.00    +0.000 N 
ATOM      4  H   UNL     1       2.622   6.689  19.681  0.00  0.00    +0.000 HD
ENDROOT
BRANCH   3   5
ATOM      5  C   UNL     1       1.583   8.470  19.492  0.00  0.00    +0.000 A 
ATOM      6  C   UNL     1       1.110   9.509  18.656  0.00  0.00    +0.000 A 
ATOM      7  C   UNL     1       0.332  10.561  19.157  0.00  0.00    +0.000 A 
ATOM      8  C   UNL     1       0.035  10.525  20.495  0.00  0.00    +0.000 A 
ATOM      9  N   UNL     1      -0.687  11.427  21.269  0.00  0.00    +0.000 N 
ATOM     10  C   UNL     1      -0.704  10.969  22.594  0.00  0.00    +0.000 A 
ATOM     11  O   UNL     1      -1.233  11.513  23.546  0.00  0.00    +0.000 OA
ATOM     12  N   UNL     1       0.012   9.761  22.610  0.00  0.00    +0.000 N 
ATOM     13  C   UNL     1       0.477   9.498  21.324  0.00  0.00    +0.000 A 
ATOM     14  C   UNL     1       1.255   8.462  20.858  0.00  0.00    +0.000 A 
ATOM     15  H   UNL     1      -1.115  12.284  20.964  0.00  0.00    +0.000 HD
ATOM     16  H   UNL     1       0.166   9.215  23.440  0.00  0.00    +0.000 HD
ENDBRANCH   3   5
BRANCH   2  17
ATOM     17  C   UNL     1       4.154   6.372  17.632  0.00  0.00    +0.000 A 
ATOM     18  C   UNL     1       5.442   6.843  17.307  0.00  0.00    +0.000 A 
ATOM     19  C   UNL     1       6.502   5.963  17.101  0.00  0.00    +0.000 A 
ATOM     20  C   UNL     1       6.293   4.596  17.240  0.00  0.00    +0.000 A 
ATOM     21  C   UNL     1       5.018   4.110  17.536  0.00  0.00    +0.000 A 
ATOM     22  C   UNL     1       3.919   4.983  17.698  0.00  0.00    +0.000 A 
BRANCH  22  23
ATOM     23  C   UNL     1       2.543   4.372  17.837  0.00  0.00    +0.000 C 
BRANCH  23  24
ATOM     24  N   UNL     1       2.213   3.926  19.189  0.00  0.00    +0.000 N 
ATOM     25  C   UNL     1       1.287   2.972  19.517  0.00  0.00    +0.000 A 
ATOM     26  C   UNL     1       1.193   2.981  20.888  0.00  0.00    +0.000 A 
ATOM     27  C   UNL     1       2.092   3.978  21.303  0.00  0.00    +0.000 A 
ATOM     28  N   UNL     1       2.678   4.593  20.270  0.00  0.00    +0.000 NA
ENDBRANCH  23  24
ENDBRANCH  22  23
ENDBRANCH   2  17
TORSDOF 4
ENDMDL
MODEL 7
REMARK VINA RESULT:      -7.5      2.033      2.687
REMARK  Name = 
REMARK  4 active torsions:
REMARK  status: ('A' for Active; 'I' for Inactive)
REMARK    1  A    between atoms: C_2  and  C_14
REMARK    2  A    between atoms: N_3  and  C_4
REMARK    3  A    between atoms: C_19  and  C_20
REMARK    4  A    between atoms: C_20  and  N_21
REMARK                            x       y       z     vdW  Elec       q    Type
REMARK                         _______ _______ _______ _____ _____    ______ ____
ROOT
ATOM      1  O   UNL     1       3.119   6.095  19.756  0.00  0.00    +0.000 OA
ATOM      2  C   UNL     1       3.284   6.488  18.602  0.00  0.00    +0.000 C 
ATOM      3  N   UNL     1       2.767   7.652  18.066  0.00  0.00    +0.000 N 
ATOM      4  H   UNL     1       3.021   7.893  17.104  0.00  0.00    +0.000 HD
ENDROOT
BRANCH   3   5
ATOM      5  C   UNL     1       1.825   8.515  18.675  0.00  0.00    +0.000 A 
ATOM      6  C   UNL     1       1.628   8.553  20.076  0.00  0.00    +0.000 A 
ATOM      7  C   UNL     1       0.630   9.346  20.659  0.00  0.00    +0.000 A 
ATOM      8  C   UNL     1      -0.135  10.098  19.805  0.00  0.00    +0.000 A 
ATOM      9  N   UNL     1      -1.198  10.951  20.083  0.00  0.00    +0.000 N 
ATOM     10  C   UNL     1      -1.675  11.482  18.877  0.00  0.00    +0.000 A 
ATOM     11  O   UNL     1      -2.606  12.255  18.739  0.00  0.00    +0.000 OA
ATOM     12  N   UNL     1      -0.873  10.945  17.857  0.00  0.00    +0.000 N 
ATOM     13  C   UNL     1       0.062  10.085  18.428  0.00  0.00    +0.000 A 
ATOM     14  C   UNL     1       1.026   9.303  17.831  0.00  0.00    +0.000 A 
ATOM     15  H   UNL     1      -1.596  11.154  20.984  0.00  0.00    +0.000 HD
ATOM     16  H   UNL     1      -0.999  11.151  16.881  0.00  0.00    +0.000 HD
ENDBRANCH   3   5
BRANCH   2  17
ATOM     17  C   UNL     1       4.089   5.621  17.691  0.00  0.00    +0.000 A 
ATOM     18  C   UNL     1       5.270   6.215  17.204  0.00  0.00    +0.000 A 
ATOM     19  C   UNL     1       6.123   5.527  16.343  0.00  0.00    +0.000 A 
ATOM     20  C   UNL     1       5.816   4.222  15.976  0.00  0.00    +0.000 A 
ATOM     21  C   UNL     1       4.638   3.627  16.428  0.00  0.00    +0.000 A 
ATOM     22  C   UNL     1       3.734   4.326  17.260  0.00  0.00    +0.000 A 
BRANCH  22  23
ATOM     23  C   UNL     1       2.400   3.680  17.557  0.00  0.00    +0.000 C 
BRANCH  23  24
ATOM     24  N   UNL     1       2.252   3.202  18.930  0.00  0.00    +0.000 N 
ATOM     25  C   UNL     1       1.121   3.295  19.696  0.00  0.00    +0.000 A 
ATOM     26  C   UNL     1       1.470   2.866  20.954  0.00  0.00    +0.000 A 
ATOM     27  C   UNL     1       2.834   2.543  20.857  0.00  0.00    +0.000 A 
ATOM     28  N   UNL     1       3.329   2.794  19.640  0.00  0.00    +0.000 NA
ENDBRANCH  23  24
ENDBRANCH  22  23
ENDBRANCH   2  17
TORSDOF 4
ENDMDL
MODEL 8
REMARK VINA RESULT:      -7.4      1.344      1.355
REMARK  Name = 
REMARK  4 active torsions:
REMARK  status: ('A' for Active; 'I' for Inactive)
REMARK    1  A    between atoms: C_2  and  C_14
REMARK    2  A    between atoms: N_3  and  C_4
REMARK    3  A    between atoms: C_19  and  C_20
REMARK    4  A    between atoms: C_20  and  N_21
REMARK                            x       y       z     vdW  Elec       q    Type
REMARK                         _______ _______ _______ _____ _____    ______ ____
ROOT
ATOM      1  O   UNL     1       2.238   5.417  17.681  0.00  0.00    +0.000 OA
ATOM      2  C   UNL     1       3.269   6.078  17.800  0.00  0.00    +0.000 C 
ATOM      3  N   UNL     1       3.367   7.312  18.412  0.00  0.00    +0.000 N 
ATOM      4  H   UNL     1       4.296   7.738  18.491  0.00  0.00    +0.000 HD
ENDROOT
BRANCH   3   5
ATOM      5  C   UNL     1       2.295   8.119  18.861  0.00  0.00    +0.000 A 
ATOM      6  C   UNL     1       1.607   9.010  18.005  0.00  0.00    +0.000 A 
ATOM      7  C   UNL     1       0.607   9.868  18.482  0.00  0.00    +0.000 A 
ATOM      8  C   UNL     1       0.315   9.789  19.819  0.00  0.00    +0.000 A 
ATOM      9  N   UNL     1      -0.599  10.517  20.574  0.00  0.00    +0.000 N 
ATOM     10  C   UNL     1      -0.523  10.090  21.906  0.00  0.00    +0.000 A 
ATOM     11  O   UNL     1      -1.169  10.517  22.846  0.00  0.00    +0.000 OA
ATOM     12  N   UNL     1       0.447   9.075  21.948  0.00  0.00    +0.000 N 
ATOM     13  C   UNL     1       0.970   8.902  20.669  0.00  0.00    +0.000 A 
ATOM     14  C   UNL     1       1.965   8.060  20.226  0.00  0.00    +0.000 A 
ATOM     15  H   UNL     1      -1.207  11.250  20.251  0.00  0.00    +0.000 HD
ATOM     16  H   UNL     1       0.713   8.591  22.789  0.00  0.00    +0.000 HD
ENDBRANCH   3   5
BRANCH   2  17
ATOM     17  C   UNL     1       4.517   5.513  17.207  0.00  0.00    +0.000 A 
ATOM     18  C   UNL     1       4.745   5.872  15.862  0.00  0.00    +0.000 A 
ATOM     19  C   UNL     1       5.869   5.420  15.175  0.00  0.00    +0.000 A 
ATOM     20  C   UNL     1       6.796   4.619  15.831  0.00  0.00    +0.000 A 
ATOM     21  C   UNL     1       6.573   4.232  17.154  0.00  0.00    +0.000 A 
ATOM     22  C   UNL     1       5.414   4.638  17.853  0.00  0.00    +0.000 A 
BRANCH  22  23
ATOM     23  C   UNL     1       5.159   4.032  19.214  0.00  0.00    +0.000 C 
BRANCH  23  24
ATOM     24  N   UNL     1       3.992   3.154  19.276  0.00  0.00    +0.000 N 
ATOM     25  C   UNL     1       3.616   2.249  18.320  0.00  0.00    +0.000 A 
ATOM     26  C   UNL     1       2.393   1.759  18.712  0.00  0.00    +0.000 A 
ATOM     27  C   UNL     1       2.105   2.433  19.911  0.00  0.00    +0.000 A 
ATOM     28  N   UNL     1       3.051   3.321  20.233  0.00  0.00    +0.000 NA
ENDBRANCH  23  24
ENDBRANCH  22  23
ENDBRANCH   2  17
TORSDOF 4
ENDMDL
MODEL 9
REMARK VINA RESULT:      -7.4      2.466      4.083
REMARK  Name = 
REMARK  4 active torsions:
REMARK  status: ('A' for Active; 'I' for Inactive)
REMARK    1  A    between atoms: C_2  and  C_14
REMARK    2  A    between atoms: N_3  and  C_4
REMARK    3  A    between atoms: C_19  and  C_20
REMARK    4  A    between atoms: C_20  and  N_21
REMARK                            x       y       z     vdW  Elec       q    Type
REMARK                         _______ _______ _______ _____ _____    ______ ____
ROOT
ATOM      1  O   UNL     1       1.170   5.419  20.676  0.00  0.00    +0.000 OA
ATOM      2  C   UNL     1       1.966   5.593  19.753  0.00  0.00    +0.000 C 
ATOM      3  N   UNL     1       2.376   6.817  19.263  0.00  0.00    +0.000 N 
ATOM      4  H   UNL     1       3.084   6.827  18.524  0.00  0.00    +0.000 HD
ENDROOT
BRANCH   3   5
ATOM      5  C   UNL     1       1.843   8.083  19.604  0.00  0.00    +0.000 A 
ATOM      6  C   UNL     1       1.512   8.432  20.935  0.00  0.00    +0.000 A 
ATOM      7  C   UNL     1       0.901   9.655  21.246  0.00  0.00    +0.000 A 
ATOM      8  C   UNL     1       0.656  10.504  20.199  0.00  0.00    +0.000 A 
ATOM      9  N   UNL     1       0.051  11.757  20.194  0.00  0.00    +0.000 N 
ATOM     10  C   UNL     1       0.007  12.231  18.876  0.00  0.00    +0.000 A 
ATOM     11  O   UNL     1      -0.464  13.287  18.495  0.00  0.00    +0.000 OA
ATOM     12  N   UNL     1       0.610  11.246  18.076  0.00  0.00    +0.000 N 
ATOM     13  C   UNL     1       0.995  10.182  18.888  0.00  0.00    +0.000 A 
ATOM     14  C   UNL     1       1.581   8.981  18.556  0.00  0.00    +0.000 A 
ATOM     15  H   UNL     1      -0.325  12.255  20.983  0.00  0.00    +0.000 HD
ATOM     16  H   UNL     1       0.709  11.321  17.078  0.00  0.00    +0.000 HD
ENDBRANCH   3   5
BRANCH   2  17
ATOM     17  C   UNL     1       2.516   4.376  19.085  0.00  0.00    +0.000 A 
ATOM     18  C   UNL     1       1.542   3.464  18.629  0.00  0.00    +0.000 A 
ATOM     19  C   UNL     1       1.905   2.282  17.986  0.00  0.00    +0.000 A 
ATOM     20  C   UNL     1       3.249   2.006  17.770  0.00  0.00    +0.000 A 
ATOM     21  C   UNL     1       4.228   2.885  18.237  0.00  0.00    +0.000 A 
ATOM     22  C   UNL     1       3.883   4.063  18.937  0.00  0.00    +0.000 A 
BRANCH  22  23
ATOM     23  C   UNL     1       4.999   4.866  19.566  0.00  0.00    +0.000 C 
BRANCH  23  24
ATOM     24  N   UNL     1       5.790   5.648  18.618  0.00  0.00    +0.000 N 
ATOM     25  C   UNL     1       7.139   5.868  18.687  0.00  0.00    +0.000 A 
ATOM     26  C   UNL     1       7.434   6.771  17.693  0.00  0.00    +0.000 A 
ATOM     27  C   UNL     1       6.200   7.047  17.081  0.00  0.00    +0.000 A 
ATOM     28  N   UNL     1       5.187   6.405  17.672  0.00  0.00    +0.000 NA
ENDBRANCH  23  24
ENDBRANCH  22  23
ENDBRANCH   2  17
TORSDOF 4
ENDMDL
