MODEL 1
REMARK VINA RESULT:      -9.2      0.000      0.000
REMARK  Name = 
REMARK  5 active torsions:
REMARK  status: ('A' for Active; 'I' for Inactive)
REMARK    1  A    between atoms: C_1  and  C_2
REMARK    2  A    between atoms: C_8  and  C_10
REMARK    3  A    between atoms: C_13  and  N_14
REMARK    4  A    between atoms: N_14  and  S_15
REMARK    5  A    between atoms: S_15  and  C_18
REMARK                            x       y       z     vdW  Elec       q    Type
REMARK                         _______ _______ _______ _____ _____    ______ ____
ROOT
ATOM      1  C   UNL     1       2.578   6.961  18.640  0.00  0.00    +0.000 A 
ATOM      2  C   UNL     1       2.208   7.349  19.932  0.00  0.00    +0.000 A 
ATOM      3  C   UNL     1       1.592   8.584  20.160  0.00  0.00    +0.000 A 
ATOM      4  C   UNL     1       1.407   9.474  19.105  0.00  0.00    +0.000 A 
ATOM      5  C   UNL     1       1.844   9.140  17.826  0.00  0.00    +0.000 A 
ATOM      6  C   UNL     1       2.421   7.886  17.594  0.00  0.00    +0.000 A 
ENDROOT
BRANCH   1  14
ATOM      7  C   UNL     1       2.136   3.893  21.258  0.00  0.00    +0.000 C 
ATOM      8  C   UNL     1       1.698   4.239  19.828  0.00  0.00    +0.000 C 
ATOM      9  C   UNL     1       0.775   3.168  19.230  0.00  0.00    +0.000 C 
ATOM     10  C   UNL     1       1.516   1.880  18.888  0.00  0.00    +0.000 C 
ATOM     11  C   UNL     1       2.724   2.175  18.003  0.00  0.00    +0.000 C 
ATOM     12  C   UNL     1       3.625   3.248  18.612  0.00  0.00    +0.000 C 
ATOM     13  N   UNL     1       2.868   4.460  18.955  0.00  0.00    +0.000 N 
ATOM     14  C   UNL     1       3.235   5.657  18.324  0.00  0.00    +0.000 C 
ATOM     15  O   UNL     1       4.115   5.692  17.461  0.00  0.00    +0.000 OA
ENDBRANCH   1  14
BRANCH   4  16
ATOM     16  N   UNL     1       0.883  10.779  19.353  0.00  0.00    +0.000 N 
ATOM     17  H   UNL     1       0.655  11.299  18.505  0.00  0.00    +0.000 HD
BRANCH  16  18
ATOM     18  S   UNL     1      -0.483  10.846  20.368  0.00  0.00    +0.000 S 
ATOM     19  O   UNL     1      -0.818   9.475  20.687  0.00  0.00    +0.000 OA
ATOM     20  O   UNL     1      -0.254  11.822  21.411  0.00  0.00    +0.000 OA
BRANCH  18  21
ATOM     21  C   UNL     1      -1.824  11.426  19.451  0.00  0.00    +0.000 A 
ATOM     22  C   UNL     1      -2.729  12.384  19.876  0.00  0.00    +0.000 A 
ATOM     23  N   UNL     1      -3.677  12.522  18.898  0.00  0.00    +0.000 N 
ATOM     24  C   UNL     1      -3.414  11.655  17.873  0.00  0.00    +0.000 A 
ATOM     25  N   UNL     1      -4.189  11.529  16.782  0.00  0.00    +0.000 NA
ATOM     26  C   UNL     1      -3.730  10.600  15.914  0.00  0.00    +0.000 A 
ATOM     27  C   UNL     1      -2.582   9.835  16.077  0.00  0.00    +0.000 A 
ATOM     28  C   UNL     1      -1.810  10.013  17.226  0.00  0.00    +0.000 A 
ATOM     29  C   UNL     1      -2.245  10.958  18.173  0.00  0.00    +0.000 A 
ATOM     30  H   UNL     1      -4.473  13.143  18.910  0.00  0.00    +0.000 HD
ENDBRANCH  18  21
ENDBRANCH  16  18
ENDBRANCH   4  16
TORSDOF 4
ENDMDL
MODEL 2
REMARK VINA RESULT:      -9.1      3.323      8.687
REMARK  Name = 
REMARK  5 active torsions:
REMARK  status: ('A' for Active; 'I' for Inactive)
REMARK    1  A    between atoms: C_1  and  C_2
REMARK    2  A    between atoms: C_8  and  C_10
REMARK    3  A    between atoms: C_13  and  N_14
REMARK    4  A    between atoms: N_14  and  S_15
REMARK    5  A    between atoms: S_15  and  C_18
REMARK                            x       y       z     vdW  Elec       q    Type
REMARK                         _______ _______ _______ _____ _____    ______ ____
ROOT
ATOM      1  C   UNL     1       1.659   7.502  20.407  0.00  0.00    +0.000 A 
ATOM      2  C   UNL     1       1.263   6.240  20.861  0.00  0.00    +0.000 A 
ATOM      3  C   UNL     1       1.604   5.083  20.152  0.00  0.00    +0.000 A 
ATOM      4  C   UNL     1       2.282   5.185  18.941  0.00  0.00    +0.000 A 
ATOM      5  C   UNL     1       2.612   6.438  18.430  0.00  0.00    +0.000 A 
ATOM      6  C   UNL     1       2.307   7.590  19.163  0.00  0.00    +0.000 A 
ENDROOT
BRANCH   1  14
ATOM      7  C   UNL     1       1.310  10.895  18.210  0.00  0.00    +0.000 C 
ATOM      8  C   UNL     1       0.399   9.978  19.037  0.00  0.00    +0.000 C 
ATOM      9  C   UNL     1      -1.074  10.408  18.968  0.00  0.00    +0.000 C 
ATOM     10  C   UNL     1      -1.347  11.689  19.749  0.00  0.00    +0.000 C 
ATOM     11  C   UNL     1      -0.839  11.563  21.183  0.00  0.00    +0.000 C 
ATOM     12  C   UNL     1       0.625  11.126  21.229  0.00  0.00    +0.000 C 
ATOM     13  N   UNL     1       0.851   9.907  20.441  0.00  0.00    +0.000 N 
ATOM     14  C   UNL     1       1.334   8.776  21.115  0.00  0.00    +0.000 C 
ATOM     15  O   UNL     1       1.503   8.773  22.336  0.00  0.00    +0.000 OA
ENDBRANCH   1  14
BRANCH   4  16
ATOM     16  N   UNL     1       2.532   4.017  18.159  0.00  0.00    +0.000 N 
ATOM     17  H   UNL     1       2.526   4.186  17.153  0.00  0.00    +0.000 HD
BRANCH  16  18
ATOM     18  S   UNL     1       3.970   3.179  18.522  0.00  0.00    +0.000 S 
ATOM     19  O   UNL     1       4.096   3.195  19.963  0.00  0.00    +0.000 OA
ATOM     20  O   UNL     1       3.994   1.935  17.784  0.00  0.00    +0.000 OA
BRANCH  18  21
ATOM     21  C   UNL     1       5.308   4.105  17.951  0.00  0.00    +0.000 A 
ATOM     22  C   UNL     1       6.094   4.938  18.730  0.00  0.00    +0.000 A 
ATOM     23  N   UNL     1       7.005   5.540  17.903  0.00  0.00    +0.000 N 
ATOM     24  C   UNL     1       6.800   5.132  16.614  0.00  0.00    +0.000 A 
ATOM     25  N   UNL     1       7.514   5.579  15.567  0.00  0.00    +0.000 NA
ATOM     26  C   UNL     1       7.119   5.039  14.391  0.00  0.00    +0.000 A 
ATOM     27  C   UNL     1       6.098   4.112  14.228  0.00  0.00    +0.000 A 
ATOM     28  C   UNL     1       5.395   3.677  15.352  0.00  0.00    +0.000 A 
ATOM     29  C   UNL     1       5.753   4.214  16.602  0.00  0.00    +0.000 A 
ATOM     30  H   UNL     1       7.717   6.204  18.170  0.00  0.00    +0.000 HD
ENDBRANCH  18  21
ENDBRANCH  16  18
ENDBRANCH   4  16
TORSDOF 4
ENDMDL
MODEL 3
REMARK VINA RESULT:      -9.0      0.716      1.152
REMARK  Name = 
REMARK  5 active torsions:
REMARK  status: ('A' for Active; 'I' for Inactive)
REMARK    1  A    between atoms: C_1  and  C_2
REMARK    2  A    between atoms: C_8  and  C_10
REMARK    3  A    between atoms: C_13  and  N_14
REMARK    4  A    between atoms: N_14  and  S_15
REMARK    5  A    between atoms: S_15  and  C_18
REMARK                            x       y       z     vdW  Elec       q    Type
REMARK                         _______ _______ _______ _____ _____    ______ ____
ROOT
ATOM      1  C   UNL     1       3.029   6.840  19.016  0.00  0.00    +0.000 A 
ATOM      2  C   UNL     1       2.981   7.556  17.815  0.00  0.00    +0.000 A 
ATOM      3  C   UNL     1       2.295   8.773  17.733  0.00  0.00    +0.000 A 
ATOM      4  C   UNL     1       1.587   9.247  18.834  0.00  0.00    +0.000 A 
ATOM      5  C   UNL     1       1.554   8.506  20.013  0.00  0.00    +0.000 A 
ATOM      6  C   UNL     1       2.277   7.312  20.104  0.00  0.00    +0.000 A 
ENDROOT
BRANCH   1  14
ATOM      7  C   UNL     1       1.016   3.716  20.641  0.00  0.00    +0.000 C 
ATOM      8  C   UNL     1       1.613   4.098  19.281  0.00  0.00    +0.000 C 
ATOM      9  C   UNL     1       1.313   3.048  18.201  0.00  0.00    +0.000 C 
ATOM     10  C   UNL     1       2.110   1.763  18.396  0.00  0.00    +0.000 C 
ATOM     11  C   UNL     1       3.601   2.069  18.520  0.00  0.00    +0.000 C 
ATOM     12  C   UNL     1       3.875   3.121  19.593  0.00  0.00    +0.000 C 
ATOM     13  N   UNL     1       3.067   4.330  19.387  0.00  0.00    +0.000 N 
ATOM     14  C   UNL     1       3.745   5.539  19.175  0.00  0.00    +0.000 C 
ATOM     15  O   UNL     1       4.975   5.587  19.097  0.00  0.00    +0.000 OA
ENDBRANCH   1  14
BRANCH   4  16
ATOM     16  N   UNL     1       0.794  10.428  18.721  0.00  0.00    +0.000 N 
ATOM     17  H   UNL     1       0.362  10.547  17.804  0.00  0.00    +0.000 HD
BRANCH  16  18
ATOM     18  S   UNL     1      -0.436  10.608  19.885  0.00  0.00    +0.000 S 
ATOM     19  O   UNL     1      -0.828   9.269  20.270  0.00  0.00    +0.000 OA
ATOM     20  O   UNL     1      -0.018  11.577  20.874  0.00  0.00    +0.000 OA
BRANCH  18  21
ATOM     21  C   UNL     1      -1.831  11.272  19.118  0.00  0.00    +0.000 A 
ATOM     22  C   UNL     1      -2.667  12.228  19.668  0.00  0.00    +0.000 A 
ATOM     23  N   UNL     1      -3.689  12.445  18.783  0.00  0.00    +0.000 N 
ATOM     24  C   UNL     1      -3.539  11.630  17.695  0.00  0.00    +0.000 A 
ATOM     25  N   UNL     1      -4.406  11.585  16.669  0.00  0.00    +0.000 NA
ATOM     26  C   UNL     1      -4.049  10.693  15.717  0.00  0.00    +0.000 A 
ATOM     27  C   UNL     1      -2.916   9.891  15.740  0.00  0.00    +0.000 A 
ATOM     28  C   UNL     1      -2.046   9.985  16.828  0.00  0.00    +0.000 A 
ATOM     29  C   UNL     1      -2.371  10.887  17.857  0.00  0.00    +0.000 A 
ATOM     30  H   UNL     1      -4.461  13.085  18.895  0.00  0.00    +0.000 HD
ENDBRANCH  18  21
ENDBRANCH  16  18
ENDBRANCH   4  16
TORSDOF 4
ENDMDL
MODEL 4
REMARK VINA RESULT:      -8.9      2.465      8.338
REMARK  Name = 
REMARK  5 active torsions:
REMARK  status: ('A' for Active; 'I' for Inactive)
REMARK    1  A    between atoms: C_1  and  C_2
REMARK    2  A    between atoms: C_8  and  C_10
REMARK    3  A    between atoms: C_13  and  N_14
REMARK    4  A    between atoms: N_14  and  S_15
REMARK    5  A    between atoms: S_15  and  C_18
REMARK                            x       y       z     vdW  Elec       q    Type
REMARK                         _______ _______ _______ _____ _____    ______ ____
ROOT
ATOM      1  C   UNL     1       0.411   9.742  19.308  0.00  0.00    +0.000 A 
ATOM      2  C   UNL     1       1.260   9.321  18.280  0.00  0.00    +0.000 A 
ATOM      3  C   UNL     1       2.103   8.218  18.453  0.00  0.00    +0.000 A 
ATOM      4  C   UNL     1       2.157   7.571  19.684  0.00  0.00    +0.000 A 
ATOM      5  C   UNL     1       1.380   8.027  20.746  0.00  0.00    +0.000 A 
ATOM      6  C   UNL     1       0.507   9.104  20.556  0.00  0.00    +0.000 A 
ENDROOT
BRANCH   1  14
ATOM      7  C   UNL     1      -2.095   9.902  16.122  0.00  0.00    +0.000 C 
ATOM      8  C   UNL     1      -2.200   9.724  17.642  0.00  0.00    +0.000 C 
ATOM      9  C   UNL     1      -3.644   9.462  18.097  0.00  0.00    +0.000 C 
ATOM     10  C   UNL     1      -4.524  10.703  17.995  0.00  0.00    +0.000 C 
ATOM     11  C   UNL     1      -3.882  11.878  18.728  0.00  0.00    +0.000 C 
ATOM     12  C   UNL     1      -2.445  12.116  18.267  0.00  0.00    +0.000 C 
ATOM     13  N   UNL     1      -1.639  10.891  18.352  0.00  0.00    +0.000 N 
ATOM     14  C   UNL     1      -0.516  10.907  19.191  0.00  0.00    +0.000 C 
ATOM     15  O   UNL     1      -0.243  11.887  19.889  0.00  0.00    +0.000 OA
ENDBRANCH   1  14
BRANCH   4  16
ATOM     16  N   UNL     1       3.097   6.518  19.899  0.00  0.00    +0.000 N 
ATOM     17  H   UNL     1       3.538   6.541  20.819  0.00  0.00    +0.000 HD
BRANCH  16  18
ATOM     18  S   UNL     1       2.504   4.939  19.664  0.00  0.00    +0.000 S 
ATOM     19  O   UNL     1       2.787   4.214  20.884  0.00  0.00    +0.000 OA
ATOM     20  O   UNL     1       1.161   5.008  19.132  0.00  0.00    +0.000 OA
BRANCH  18  21
ATOM     21  C   UNL     1       3.462   4.162  18.458  0.00  0.00    +0.000 A 
ATOM     22  C   UNL     1       3.721   2.803  18.395  0.00  0.00    +0.000 A 
ATOM     23  N   UNL     1       4.567   2.591  17.339  0.00  0.00    +0.000 N 
ATOM     24  C   UNL     1       4.874   3.784  16.746  0.00  0.00    +0.000 A 
ATOM     25  N   UNL     1       5.714   3.907  15.704  0.00  0.00    +0.000 NA
ATOM     26  C   UNL     1       5.869   5.188  15.300  0.00  0.00    +0.000 A 
ATOM     27  C   UNL     1       5.245   6.295  15.859  0.00  0.00    +0.000 A 
ATOM     28  C   UNL     1       4.377   6.109  16.935  0.00  0.00    +0.000 A 
ATOM     29  C   UNL     1       4.186   4.798  17.408  0.00  0.00    +0.000 A 
ATOM     30  H   UNL     1       4.941   1.705  17.032  0.00  0.00    +0.000 HD
ENDBRANCH  18  21
ENDBRANCH  16  18
ENDBRANCH   4  16
TORSDOF 4
ENDMDL
MODEL 5
REMARK VINA RESULT:      -8.8      2.487      3.250
REMARK  Name = 
REMARK  5 active torsions:
REMARK  status: ('A' for Active; 'I' for Inactive)
REMARK    1  A    between atoms: C_1  and  C_2
REMARK    2  A    between atoms: C_8  and  C_10
REMARK    3  A    between atoms: C_13  and  N_14
REMARK    4  A    between atoms: N_14  and  S_15
REMARK    5  A    between atoms: S_15  and  C_18
REMARK                            x       y       z     vdW  Elec       q    Type
REMARK                         _______ _______ _______ _____ _____    ______ ____
ROOT
ATOM      1  C   UNL     1       2.703   6.982  19.271  0.00  0.00    +0.000 A 
ATOM      2  C   UNL     1       2.464   7.782  18.149  0.00  0.00    +0.000 A 
ATOM      3  C   UNL     1       1.660   8.923  18.240  0.00  0.00    +0.000 A 
ATOM      4  C   UNL     1       1.027   9.233  19.441  0.00  0.00    +0.000 A 
ATOM      5  C   UNL     1       1.187   8.403  20.547  0.00  0.00    +0.000 A 
ATOM      6  C   UNL     1       2.026   7.287  20.464  0.00  0.00    +0.000 A 
ENDROOT
BRANCH   1  14
ATOM      7  C   UNL     1       1.156   3.535  20.749  0.00  0.00    +0.000 C 
ATOM      8  C   UNL     1       1.588   4.095  19.387  0.00  0.00    +0.000 C 
ATOM      9  C   UNL     1       1.295   3.118  18.239  0.00  0.00    +0.000 C 
ATOM     10  C   UNL     1       2.226   1.911  18.245  0.00  0.00    +0.000 C 
ATOM     11  C   UNL     1       3.685   2.359  18.276  0.00  0.00    +0.000 C 
ATOM     12  C   UNL     1       3.953   3.336  19.419  0.00  0.00    +0.000 C 
ATOM     13  N   UNL     1       3.017   4.467  19.396  0.00  0.00    +0.000 N 
ATOM     14  C   UNL     1       3.553   5.754  19.247  0.00  0.00    +0.000 C 
ATOM     15  O   UNL     1       4.760   5.937  19.074  0.00  0.00    +0.000 OA
ENDBRANCH   1  14
BRANCH   4  16
ATOM     16  N   UNL     1       0.117  10.331  19.507  0.00  0.00    +0.000 N 
ATOM     17  H   UNL     1      -0.687  10.163  20.112  0.00  0.00    +0.000 HD
BRANCH  16  18
ATOM     18  S   UNL     1       0.793  11.824  19.971  0.00  0.00    +0.000 S 
ATOM     19  O   UNL     1       1.411  11.606  21.261  0.00  0.00    +0.000 OA
ATOM     20  O   UNL     1       1.547  12.370  18.864  0.00  0.00    +0.000 OA
BRANCH  18  21
ATOM     21  C   UNL     1      -0.488  12.938  20.279  0.00  0.00    +0.000 A 
ATOM     22  C   UNL     1      -0.703  14.119  19.589  0.00  0.00    +0.000 A 
ATOM     23  N   UNL     1      -1.771  14.750  20.169  0.00  0.00    +0.000 N 
ATOM     24  C   UNL     1      -2.223  14.013  21.229  0.00  0.00    +0.000 A 
ATOM     25  N   UNL     1      -3.240  14.391  22.023  0.00  0.00    +0.000 NA
ATOM     26  C   UNL     1      -3.495  13.502  23.010  0.00  0.00    +0.000 A 
ATOM     27  C   UNL     1      -2.818  12.309  23.222  0.00  0.00    +0.000 A 
ATOM     28  C   UNL     1      -1.775  11.963  22.362  0.00  0.00    +0.000 A 
ATOM     29  C   UNL     1      -1.454  12.855  21.322  0.00  0.00    +0.000 A 
ATOM     30  H   UNL     1      -2.174  15.634  19.895  0.00  0.00    +0.000 HD
ENDBRANCH  18  21
ENDBRANCH  16  18
ENDBRANCH   4  16
TORSDOF 4
ENDMDL
MODEL 6
REMARK VINA RESULT:      -8.7      3.443      8.826
REMARK  Name = 
REMARK  5 active torsions:
REMARK  status: ('A' for Active; 'I' for Inactive)
REMARK    1  A    between atoms: C_1  and  C_2
REMARK    2  A    between atoms: C_8  and  C_10
REMARK    3  A    between atoms: C_13  and  N_14
REMARK    4  A    between atoms: N_14  and  S_15
REMARK    5  A    between atoms: S_15  and  C_18
REMARK                            x       y       z     vdW  Elec       q    Type
REMARK                         _______ _______ _______ _____ _____    ______ ____
ROOT
ATOM      1  C   UNL     1       1.454   8.420  20.272  0.00  0.00    +0.000 A 
ATOM      2  C   UNL     1       2.011   8.664  19.012  0.00  0.00    +0.000 A 
ATOM      3  C   UNL     1       2.499   7.612  18.229  0.00  0.00    +0.000 A 
ATOM      4  C   UNL     1       2.501   6.314  18.732  0.00  0.00    +0.000 A 
ATOM      5  C   UNL     1       2.027   6.064  20.017  0.00  0.00    +0.000 A 
ATOM      6  C   UNL     1       1.500   7.112  20.780  0.00  0.00    +0.000 A 
ENDROOT
BRANCH   1  14
ATOM      7  C   UNL     1       0.821  12.099  18.681  0.00  0.00    +0.000 C 
ATOM      8  C   UNL     1      -0.019  10.944  19.242  0.00  0.00    +0.000 C 
ATOM      9  C   UNL     1      -1.526  11.204  19.108  0.00  0.00    +0.000 C 
ATOM     10  C   UNL     1      -2.023  12.277  20.071  0.00  0.00    +0.000 C 
ATOM     11  C   UNL     1      -1.610  11.946  21.503  0.00  0.00    +0.000 C 
ATOM     12  C   UNL     1      -0.109  11.682  21.613  0.00  0.00    +0.000 C 
ATOM     13  N   UNL     1       0.334  10.666  20.649  0.00  0.00    +0.000 N 
ATOM     14  C   UNL     1       0.911   9.494  21.158  0.00  0.00    +0.000 C 
ATOM     15  O   UNL     1       0.989   9.283  22.370  0.00  0.00    +0.000 OA
ENDBRANCH   1  14
BRANCH   4  16
ATOM     16  N   UNL     1       3.101   5.257  17.984  0.00  0.00    +0.000 N 
ATOM     17  H   UNL     1       3.222   5.471  16.993  0.00  0.00    +0.000 HD
BRANCH  16  18
ATOM     18  S   UNL     1       4.601   4.698  18.565  0.00  0.00    +0.000 S 
ATOM     19  O   UNL     1       4.860   5.430  19.786  0.00  0.00    +0.000 OA
ATOM     20  O   UNL     1       4.610   3.252  18.546  0.00  0.00    +0.000 OA
BRANCH  18  21
ATOM     21  C   UNL     1       5.839   5.203  17.476  0.00  0.00    +0.000 A 
ATOM     22  C   UNL     1       6.798   6.165  17.747  0.00  0.00    +0.000 A 
ATOM     23  N   UNL     1       7.553   6.328  16.616  0.00  0.00    +0.000 N 
ATOM     24  C   UNL     1       7.081   5.513  15.624  0.00  0.00    +0.000 A 
ATOM     25  N   UNL     1       7.593   5.474  14.382  0.00  0.00    +0.000 NA
ATOM     26  C   UNL     1       6.951   4.599  13.575  0.00  0.00    +0.000 A 
ATOM     27  C   UNL     1       5.879   3.795  13.940  0.00  0.00    +0.000 A 
ATOM     28  C   UNL     1       5.393   3.872  15.246  0.00  0.00    +0.000 A 
ATOM     29  C   UNL     1       6.013   4.775  16.129  0.00  0.00    +0.000 A 
ATOM     30  H   UNL     1       8.332   6.958  16.494  0.00  0.00    +0.000 HD
ENDBRANCH  18  21
ENDBRANCH  16  18
ENDBRANCH   4  16
TORSDOF 4
ENDMDL
MODEL 7
REMARK VINA RESULT:      -8.7      2.892      3.552
REMARK  Name = 
REMARK  5 active torsions:
REMARK  status: ('A' for Active; 'I' for Inactive)
REMARK    1  A    between atoms: C_1  and  C_2
REMARK    2  A    between atoms: C_8  and  C_10
REMARK    3  A    between atoms: C_13  and  N_14
REMARK    4  A    between atoms: N_14  and  S_15
REMARK    5  A    between atoms: S_15  and  C_18
REMARK                            x       y       z     vdW  Elec       q    Type
REMARK                         _______ _______ _______ _____ _____    ______ ____
ROOT
ATOM      1  C   UNL     1       2.589   7.241  18.911  0.00  0.00    +0.000 A 
ATOM      2  C   UNL     1       2.020   7.610  20.135  0.00  0.00    +0.000 A 
ATOM      3  C   UNL     1       1.230   8.759  20.240  0.00  0.00    +0.000 A 
ATOM      4  C   UNL     1       1.064   9.591  19.136  0.00  0.00    +0.000 A 
ATOM      5  C   UNL     1       1.691   9.285  17.932  0.00  0.00    +0.000 A 
ATOM      6  C   UNL     1       2.445   8.112  17.819  0.00  0.00    +0.000 A 
ENDROOT
BRANCH   1  14
ATOM      7  C   UNL     1       1.548   3.842  20.868  0.00  0.00    +0.000 C 
ATOM      8  C   UNL     1       1.614   4.345  19.419  0.00  0.00    +0.000 C 
ATOM      9  C   UNL     1       1.072   3.311  18.422  0.00  0.00    +0.000 C 
ATOM     10  C   UNL     1       2.008   2.120  18.245  0.00  0.00    +0.000 C 
ATOM     11  C   UNL     1       3.416   2.592  17.894  0.00  0.00    +0.000 C 
ATOM     12  C   UNL     1       3.933   3.625  18.894  0.00  0.00    +0.000 C 
ATOM     13  N   UNL     1       2.990   4.739  19.058  0.00  0.00    +0.000 N 
ATOM     14  C   UNL     1       3.439   6.026  18.727  0.00  0.00    +0.000 C 
ATOM     15  O   UNL     1       4.560   6.219  18.252  0.00  0.00    +0.000 OA
ENDBRANCH   1  14
BRANCH   4  16
ATOM     16  N   UNL     1       0.353  10.822  19.269  0.00  0.00    +0.000 N 
ATOM     17  H   UNL     1      -0.414  10.785  19.941  0.00  0.00    +0.000 HD
BRANCH  16  18
ATOM     18  S   UNL     1       1.299  12.183  19.660  0.00  0.00    +0.000 S 
ATOM     19  O   UNL     1       1.602  12.075  21.071  0.00  0.00    +0.000 OA
ATOM     20  O   UNL     1       2.353  12.329  18.679  0.00  0.00    +0.000 OA
BRANCH  18  21
ATOM     21  C   UNL     1       0.318  13.596  19.527  0.00  0.00    +0.000 A 
ATOM     22  C   UNL     1      -1.045  13.647  19.767  0.00  0.00    +0.000 A 
ATOM     23  N   UNL     1      -1.466  14.921  19.493  0.00  0.00    +0.000 N 
ATOM     24  C   UNL     1      -0.410  15.674  19.058  0.00  0.00    +0.000 A 
ATOM     25  N   UNL     1      -0.515  16.958  18.675  0.00  0.00    +0.000 NA
ATOM     26  C   UNL     1       0.664  17.486  18.274  0.00  0.00    +0.000 A 
ATOM     27  C   UNL     1       1.883  16.821  18.249  0.00  0.00    +0.000 A 
ATOM     28  C   UNL     1       1.935  15.490  18.665  0.00  0.00    +0.000 A 
ATOM     29  C   UNL     1       0.736  14.882  19.081  0.00  0.00    +0.000 A 
ATOM     30  H   UNL     1      -2.408  15.276  19.569  0.00  0.00    +0.000 HD
ENDBRANCH  18  21
ENDBRANCH  16  18
ENDBRANCH   4  16
TORSDOF 4
ENDMDL
MODEL 8
REMARK VINA RESULT:      -8.7      2.229      2.951
REMARK  Name = 
REMARK  5 active torsions:
REMARK  status: ('A' for Active; 'I' for Inactive)
REMARK    1  A    between atoms: C_1  and  C_2
REMARK    2  A    between atoms: C_8  and  C_10
REMARK    3  A    between atoms: C_13  and  N_14
REMARK    4  A    between atoms: N_14  and  S_15
REMARK    5  A    between atoms: S_15  and  C_18
REMARK                            x       y       z     vdW  Elec       q    Type
REMARK                         _______ _______ _______ _____ _____    ______ ____
ROOT
ATOM      1  C   UNL     1       2.611   7.140  19.249  0.00  0.00    +0.000 A 
ATOM      2  C   UNL     1       2.412   7.959  18.132  0.00  0.00    +0.000 A 
ATOM      3  C   UNL     1       1.578   9.079  18.205  0.00  0.00    +0.000 A 
ATOM      4  C   UNL     1       0.875   9.348  19.377  0.00  0.00    +0.000 A 
ATOM      5  C   UNL     1       0.995   8.497  20.472  0.00  0.00    +0.000 A 
ATOM      6  C   UNL     1       1.864   7.402  20.410  0.00  0.00    +0.000 A 
ENDROOT
BRANCH   1  14
ATOM      7  C   UNL     1       1.086   3.638  20.616  0.00  0.00    +0.000 C 
ATOM      8  C   UNL     1       1.560   4.226  19.280  0.00  0.00    +0.000 C 
ATOM      9  C   UNL     1       1.337   3.259  18.109  0.00  0.00    +0.000 C 
ATOM     10  C   UNL     1       2.296   2.074  18.137  0.00  0.00    +0.000 C 
ATOM     11  C   UNL     1       3.741   2.555  18.234  0.00  0.00    +0.000 C 
ATOM     12  C   UNL     1       3.939   3.522  19.400  0.00  0.00    +0.000 C 
ATOM     13  N   UNL     1       2.978   4.632  19.353  0.00  0.00    +0.000 N 
ATOM     14  C   UNL     1       3.490   5.933  19.243  0.00  0.00    +0.000 C 
ATOM     15  O   UNL     1       4.698   6.145  19.123  0.00  0.00    +0.000 OA
ENDBRANCH   1  14
BRANCH   4  16
ATOM     16  N   UNL     1      -0.063  10.423  19.418  0.00  0.00    +0.000 N 
ATOM     17  H   UNL     1      -1.020  10.128  19.615  0.00  0.00    +0.000 HD
BRANCH  16  18
ATOM     18  S   UNL     1       0.306  11.685  20.501  0.00  0.00    +0.000 S 
ATOM     19  O   UNL     1       1.387  11.202  21.333  0.00  0.00    +0.000 OA
ATOM     20  O   UNL     1       0.427  12.924  19.764  0.00  0.00    +0.000 OA
BRANCH  18  21
ATOM     21  C   UNL     1      -1.022  11.893  21.581  0.00  0.00    +0.000 A 
ATOM     22  C   UNL     1      -1.004  11.605  22.936  0.00  0.00    +0.000 A 
ATOM     23  N   UNL     1      -2.260  11.842  23.427  0.00  0.00    +0.000 N 
ATOM     24  C   UNL     1      -3.084  12.246  22.414  0.00  0.00    +0.000 A 
ATOM     25  N   UNL     1      -4.390  12.518  22.576  0.00  0.00    +0.000 NA
ATOM     26  C   UNL     1      -4.998  12.888  21.425  0.00  0.00    +0.000 A 
ATOM     27  C   UNL     1      -4.385  13.000  20.184  0.00  0.00    +0.000 A 
ATOM     28  C   UNL     1      -3.024  12.712  20.075  0.00  0.00    +0.000 A 
ATOM     29  C   UNL     1      -2.340  12.309  21.237  0.00  0.00    +0.000 A 
ATOM     30  H   UNL     1      -2.568  11.725  24.381  0.00  0.00    +0.000 HD
ENDBRANCH  18  21
ENDBRANCH  16  18
ENDBRANCH   4  16
TORSDOF 4
ENDMDL
MODEL 9
REMARK VINA RESULT:      -8.7      1.864      2.300
REMARK  Name = 
REMARK  5 active torsions:
REMARK  status: ('A' for Active; 'I' for Inactive)
REMARK    1  A    between atoms: C_1  and  C_2
REMARK    2  A    between atoms: C_8  and  C_10
REMARK    3  A    between atoms: C_13  and  N_14
REMARK    4  A    between atoms: N_14  and  S_15
REMARK    5  A    between atoms: S_15  and  C_18
REMARK                            x       y       z     vdW  Elec       q    Type
REMARK                         _______ _______ _______ _____ _____    ______ ____
ROOT
ATOM      1  C   UNL     1       2.364   7.699  18.740  0.00  0.00    +0.000 A 
ATOM      2  C   UNL     1       1.867   7.925  20.028  0.00  0.00    +0.000 A 
ATOM      3  C   UNL     1       0.966   8.966  20.276  0.00  0.00    +0.000 A 
ATOM      4  C   UNL     1       0.612   9.838  19.250  0.00  0.00    +0.000 A 
ATOM      5  C   UNL     1       1.162   9.679  17.980  0.00  0.00    +0.000 A 
ATOM      6  C   UNL     1       2.028   8.611  17.726  0.00  0.00    +0.000 A 
ENDROOT
BRANCH   1  14
ATOM      7  C   UNL     1       1.989   4.146  20.662  0.00  0.00    +0.000 C 
ATOM      8  C   UNL     1       1.814   4.691  19.239  0.00  0.00    +0.000 C 
ATOM      9  C   UNL     1       1.280   3.626  18.271  0.00  0.00    +0.000 C 
ATOM     10  C   UNL     1       2.323   2.565  17.933  0.00  0.00    +0.000 C 
ATOM     11  C   UNL     1       3.610   3.218  17.436  0.00  0.00    +0.000 C 
ATOM     12  C   UNL     1       4.119   4.280  18.409  0.00  0.00    +0.000 C 
ATOM     13  N   UNL     1       3.077   5.264  18.732  0.00  0.00    +0.000 N 
ATOM     14  C   UNL     1       3.324   6.605  18.404  0.00  0.00    +0.000 C 
ATOM     15  O   UNL     1       4.346   6.949  17.807  0.00  0.00    +0.000 OA
ENDBRANCH   1  14
BRANCH   4  16
ATOM     16  N   UNL     1      -0.216  10.968  19.524  0.00  0.00    +0.000 N 
ATOM     17  H   UNL     1       0.296  11.848  19.587  0.00  0.00    +0.000 HD
BRANCH  16  18
ATOM     18  S   UNL     1      -1.512  11.214  18.446  0.00  0.00    +0.000 S 
ATOM     19  O   UNL     1      -1.080  12.241  17.522  0.00  0.00    +0.000 OA
ATOM     20  O   UNL     1      -1.986   9.933  17.970  0.00  0.00    +0.000 OA
BRANCH  18  21
ATOM     21  C   UNL     1      -2.824  11.924  19.311  0.00  0.00    +0.000 A 
ATOM     22  C   UNL     1      -2.723  12.556  20.539  0.00  0.00    +0.000 A 
ATOM     23  N   UNL     1      -3.985  12.924  20.921  0.00  0.00    +0.000 N 
ATOM     24  C   UNL     1      -4.890  12.517  19.980  0.00  0.00    +0.000 A 
ATOM     25  N   UNL     1      -6.217  12.700  20.091  0.00  0.00    +0.000 NA
ATOM     26  C   UNL     1      -6.907  12.201  19.040  0.00  0.00    +0.000 A 
ATOM     27  C   UNL     1      -6.354  11.566  17.935  0.00  0.00    +0.000 A 
ATOM     28  C   UNL     1      -4.969  11.410  17.869  0.00  0.00    +0.000 A 
ATOM     29  C   UNL     1      -4.199  11.898  18.941  0.00  0.00    +0.000 A 
ATOM     30  H   UNL     1      -4.245  13.404  21.771  0.00  0.00    +0.000 HD
ENDBRANCH  18  21
ENDBRANCH  16  18
ENDBRANCH   4  16
TORSDOF 4
ENDMDL
