MODEL 1
REMARK VINA RESULT:      -8.8      0.000      0.000
REMARK  Name = 
REMARK  5 active torsions:
REMARK  status: ('A' for Active; 'I' for Inactive)
REMARK    1  A    between atoms: C_1  and  C_2
REMARK    2  A    between atoms: N_6  and  C_7
REMARK    3  A    between atoms: C_11  and  N_12
REMARK    4  A    between atoms: C_13  and  C_15
REMARK    5  A    between atoms: N_17  and  C_18
REMARK                            x       y       z     vdW  Elec       q    Type
REMARK                         _______ _______ _______ _____ _____    ______ ____
ROOT
ATOM      1  N   UNL     1       1.046   8.802  18.250  0.00  0.00    +0.000 N 
ATOM      2  C   UNL     1       1.652   8.087  19.262  0.00  0.00    +0.000 C 
ATOM      3  O   UNL     1       1.711   8.415  20.442  0.00  0.00    +0.000 OA
ATOM      4  H   UNL     1       0.981   8.304  17.366  0.00  0.00    +0.000 HD
ENDROOT
BRANCH   2   5
ATOM      5  C   UNL     1       2.336   6.883  18.767  0.00  0.00    +0.000 A 
ATOM      6  N   UNL     1       3.531   6.920  18.126  0.00  0.00    +0.000 NA
ATOM      7  N   UNL     1       4.048   5.650  18.273  0.00  0.00    +0.000 N 
ATOM      8  C   UNL     1       3.233   4.936  19.101  0.00  0.00    +0.000 A 
ATOM      9  C   UNL     1       2.024   5.574  19.168  0.00  0.00    +0.000 A 
ATOM     10  C   UNL     1       1.154   4.959  20.198  0.00  0.00    +0.000 C 
ATOM     11  C   UNL     1       2.264   4.502  21.189  0.00  0.00    +0.000 C 
ATOM     12  C   UNL     1       3.453   4.033  20.264  0.00  0.00    +0.000 C 
BRANCH   7  13
ATOM     13  C   UNL     1       5.242   5.258  17.621  0.00  0.00    +0.000 A 
ATOM     14  C   UNL     1       5.210   4.908  16.261  0.00  0.00    +0.000 A 
ATOM     15  C   UNL     1       6.370   4.455  15.621  0.00  0.00    +0.000 A 
ATOM     16  C   UNL     1       7.564   4.342  16.331  0.00  0.00    +0.000 A 
ATOM     17  C   UNL     1       7.601   4.685  17.681  0.00  0.00    +0.000 A 
ATOM     18  C   UNL     1       6.447   5.141  18.318  0.00  0.00    +0.000 A 
ATOM     19  F   UNL     1       6.542   5.415  19.626  0.00  0.00    +0.000 F 
ENDBRANCH   7  13
ENDBRANCH   2   5
BRANCH   1  24
ATOM     20  C   UNL     1      -1.542  11.431  18.205  0.00  0.00    +0.000 A 
ATOM     21  C   UNL     1      -0.835  12.525  18.722  0.00  0.00    +0.000 A 
ATOM     22  C   UNL     1       0.527  12.412  18.995  0.00  0.00    +0.000 A 
ATOM     23  C   UNL     1       1.173  11.195  18.810  0.00  0.00    +0.000 A 
ATOM     24  C   UNL     1       0.465  10.072  18.367  0.00  0.00    +0.000 A 
ATOM     25  C   UNL     1      -0.884  10.204  18.025  0.00  0.00    +0.000 A 
BRANCH  20  31
ATOM     26  C   UNL     1      -3.104  10.775  15.509  0.00  0.00    +0.000 C 
ATOM     27  C   UNL     1      -3.644  11.364  16.760  0.00  0.00    +0.000 A 
ATOM     28  C   UNL     1      -4.935  11.782  17.018  0.00  0.00    +0.000 A 
ATOM     29  C   UNL     1      -4.964  12.037  18.393  0.00  0.00    +0.000 A 
ATOM     30  N   UNL     1      -3.792  11.802  18.979  0.00  0.00    +0.000 NA
ATOM     31  N   UNL     1      -2.941  11.512  17.952  0.00  0.00    +0.000 N 
ENDBRANCH  20  31
ENDBRANCH   1  24
TORSDOF 4
ENDMDL
MODEL 2
REMARK VINA RESULT:      -8.5      2.620      9.149
REMARK  Name = 
REMARK  5 active torsions:
REMARK  status: ('A' for Active; 'I' for Inactive)
REMARK    1  A    between atoms: C_1  and  C_2
REMARK    2  A    between atoms: N_6  and  C_7
REMARK    3  A    between atoms: C_11  and  N_12
REMARK    4  A    between atoms: C_13  and  C_15
REMARK    5  A    between atoms: N_17  and  C_18
REMARK                            x       y       z     vdW  Elec       q    Type
REMARK                         _______ _______ _______ _____ _____    ______ ____
ROOT
ATOM      1  N   UNL     1       2.092   8.578  17.944  0.00  0.00    +0.000 N 
ATOM      2  C   UNL     1       1.463   9.230  18.985  0.00  0.00    +0.000 C 
ATOM      3  O   UNL     1       1.557   8.948  20.175  0.00  0.00    +0.000 OA
ATOM      4  H   UNL     1       2.002   9.042  17.044  0.00  0.00    +0.000 HD
ENDROOT
BRANCH   2   5
ATOM      5  C   UNL     1       0.553  10.286  18.518  0.00  0.00    +0.000 A 
ATOM      6  N   UNL     1      -0.762  10.071  18.260  0.00  0.00    +0.000 NA
ATOM      7  N   UNL     1      -1.344  11.318  18.341  0.00  0.00    +0.000 N 
ATOM      8  C   UNL     1      -0.411  12.213  18.775  0.00  0.00    +0.000 A 
ATOM      9  C   UNL     1       0.829  11.660  18.595  0.00  0.00    +0.000 A 
ATOM     10  C   UNL     1       1.879  12.497  19.220  0.00  0.00    +0.000 C 
ATOM     11  C   UNL     1       1.041  13.072  20.399  0.00  0.00    +0.000 C 
ATOM     12  C   UNL     1      -0.396  13.302  19.790  0.00  0.00    +0.000 C 
BRANCH   7  13
ATOM     13  C   UNL     1      -2.704  11.522  18.003  0.00  0.00    +0.000 A 
ATOM     14  C   UNL     1      -3.623  11.883  19.001  0.00  0.00    +0.000 A 
ATOM     15  C   UNL     1      -4.981  12.024  18.693  0.00  0.00    +0.000 A 
ATOM     16  C   UNL     1      -5.433  11.798  17.394  0.00  0.00    +0.000 A 
ATOM     17  C   UNL     1      -4.527  11.436  16.400  0.00  0.00    +0.000 A 
ATOM     18  C   UNL     1      -3.172  11.300  16.705  0.00  0.00    +0.000 A 
ATOM     19  F   UNL     1      -2.362  10.911  15.713  0.00  0.00    +0.000 F 
ENDBRANCH   7  13
ENDBRANCH   2   5
BRANCH   1  24
ATOM     20  C   UNL     1       3.129   5.184  18.952  0.00  0.00    +0.000 A 
ATOM     21  C   UNL     1       4.296   5.014  18.196  0.00  0.00    +0.000 A 
ATOM     22  C   UNL     1       4.788   6.065  17.424  0.00  0.00    +0.000 A 
ATOM     23  C   UNL     1       4.088   7.265  17.358  0.00  0.00    +0.000 A 
ATOM     24  C   UNL     1       2.881   7.425  18.047  0.00  0.00    +0.000 A 
ATOM     25  C   UNL     1       2.425   6.397  18.878  0.00  0.00    +0.000 A 
BRANCH  20  31
ATOM     26  C   UNL     1       2.356   2.249  17.987  0.00  0.00    +0.000 C 
ATOM     27  C   UNL     1       2.115   2.870  19.314  0.00  0.00    +0.000 A 
ATOM     28  C   UNL     1       1.479   2.320  20.410  0.00  0.00    +0.000 A 
ATOM     29  C   UNL     1       1.720   3.218  21.455  0.00  0.00    +0.000 A 
ATOM     30  N   UNL     1       2.454   4.261  21.071  0.00  0.00    +0.000 NA
ATOM     31  N   UNL     1       2.588   4.114  19.721  0.00  0.00    +0.000 N 
ENDBRANCH  20  31
ENDBRANCH   1  24
TORSDOF 4
ENDMDL
MODEL 3
REMARK VINA RESULT:      -8.5      0.732      1.287
REMARK  Name = 
REMARK  5 active torsions:
REMARK  status: ('A' for Active; 'I' for Inactive)
REMARK    1  A    between atoms: C_1  and  C_2
REMARK    2  A    between atoms: N_6  and  C_7
REMARK    3  A    between atoms: C_11  and  N_12
REMARK    4  A    between atoms: C_13  and  C_15
REMARK    5  A    between atoms: N_17  and  C_18
REMARK                            x       y       z     vdW  Elec       q    Type
REMARK                         _______ _______ _______ _____ _____    ______ ____
ROOT
ATOM      1  N   UNL     1       1.242   8.944  18.290  0.00  0.00    +0.000 N 
ATOM      2  C   UNL     1       1.691   8.114  19.296  0.00  0.00    +0.000 C 
ATOM      3  O   UNL     1       1.650   8.350  20.499  0.00  0.00    +0.000 OA
ATOM      4  H   UNL     1       1.235   8.518  17.367  0.00  0.00    +0.000 HD
ENDROOT
BRANCH   2   5
ATOM      5  C   UNL     1       2.342   6.902  18.775  0.00  0.00    +0.000 A 
ATOM      6  N   UNL     1       3.516   6.926  18.094  0.00  0.00    +0.000 NA
ATOM      7  N   UNL     1       4.020   5.649  18.221  0.00  0.00    +0.000 N 
ATOM      8  C   UNL     1       3.224   4.943  19.075  0.00  0.00    +0.000 A 
ATOM      9  C   UNL     1       2.026   5.597  19.183  0.00  0.00    +0.000 A 
ATOM     10  C   UNL     1       1.184   4.991  20.240  0.00  0.00    +0.000 C 
ATOM     11  C   UNL     1       2.320   4.516  21.193  0.00  0.00    +0.000 C 
ATOM     12  C   UNL     1       3.471   4.033  20.227  0.00  0.00    +0.000 C 
BRANCH   7  13
ATOM     13  C   UNL     1       5.187   5.243  17.528  0.00  0.00    +0.000 A 
ATOM     14  C   UNL     1       5.102   4.885  16.173  0.00  0.00    +0.000 A 
ATOM     15  C   UNL     1       6.234   4.419  15.494  0.00  0.00    +0.000 A 
ATOM     16  C   UNL     1       7.452   4.299  16.161  0.00  0.00    +0.000 A 
ATOM     17  C   UNL     1       7.542   4.649  17.506  0.00  0.00    +0.000 A 
ATOM     18  C   UNL     1       6.415   5.118  18.182  0.00  0.00    +0.000 A 
ATOM     19  F   UNL     1       6.560   5.399  19.484  0.00  0.00    +0.000 F 
ENDBRANCH   7  13
ENDBRANCH   2   5
BRANCH   1  24
ATOM     20  C   UNL     1      -1.216  11.685  18.532  0.00  0.00    +0.000 A 
ATOM     21  C   UNL     1      -0.399  12.757  18.913  0.00  0.00    +0.000 A 
ATOM     22  C   UNL     1       0.982  12.590  18.997  0.00  0.00    +0.000 A 
ATOM     23  C   UNL     1       1.545  11.340  18.758  0.00  0.00    +0.000 A 
ATOM     24  C   UNL     1       0.736  10.241  18.451  0.00  0.00    +0.000 A 
ATOM     25  C   UNL     1      -0.641  10.426  18.297  0.00  0.00    +0.000 A 
BRANCH  20  31
ATOM     26  C   UNL     1      -3.182  12.850  20.750  0.00  0.00    +0.000 C 
ATOM     27  C   UNL     1      -3.536  12.200  19.463  0.00  0.00    +0.000 A 
ATOM     28  C   UNL     1      -4.794  11.934  18.959  0.00  0.00    +0.000 A 
ATOM     29  C   UNL     1      -4.576  11.529  17.638  0.00  0.00    +0.000 A 
ATOM     30  N   UNL     1      -3.285  11.536  17.311  0.00  0.00    +0.000 NA
ATOM     31  N   UNL     1      -2.632  11.823  18.474  0.00  0.00    +0.000 N 
ENDBRANCH  20  31
ENDBRANCH   1  24
TORSDOF 4
ENDMDL
MODEL 4
REMARK VINA RESULT:      -8.5      1.874      2.359
REMARK  Name = 
REMARK  5 active torsions:
REMARK  status: ('A' for Active; 'I' for Inactive)
REMARK    1  A    between atoms: C_1  and  C_2
REMARK    2  A    between atoms: N_6  and  C_7
REMARK    3  A    between atoms: C_11  and  N_12
REMARK    4  A    between atoms: C_13  and  C_15
REMARK    5  A    between atoms: N_17  and  C_18
REMARK                            x       y       z     vdW  Elec       q    Type
REMARK                         _______ _______ _______ _____ _____    ______ ____
ROOT
ATOM      1  N   UNL     1       1.436   9.015  18.847  0.00  0.00    +0.000 N 
ATOM      2  C   UNL     1       1.786   8.025  19.742  0.00  0.00    +0.000 C 
ATOM      3  O   UNL     1       1.726   8.104  20.964  0.00  0.00    +0.000 OA
ATOM      4  H   UNL     1       1.424   8.716  17.875  0.00  0.00    +0.000 HD
ENDROOT
BRANCH   2   5
ATOM      5  C   UNL     1       2.354   6.842  19.077  0.00  0.00    +0.000 A 
ATOM      6  N   UNL     1       3.505   6.877  18.359  0.00  0.00    +0.000 NA
ATOM      7  N   UNL     1       3.943   5.570  18.336  0.00  0.00    +0.000 N 
ATOM      8  C   UNL     1       3.138   4.821  19.144  0.00  0.00    +0.000 A 
ATOM      9  C   UNL     1       1.981   5.519  19.362  0.00  0.00    +0.000 A 
ATOM     10  C   UNL     1       1.142   4.851  20.384  0.00  0.00    +0.000 C 
ATOM     11  C   UNL     1       2.281   4.224  21.240  0.00  0.00    +0.000 C 
ATOM     12  C   UNL     1       3.373   3.786  20.188  0.00  0.00    +0.000 C 
BRANCH   7  13
ATOM     13  C   UNL     1       5.063   5.179  17.563  0.00  0.00    +0.000 A 
ATOM     14  C   UNL     1       4.889   4.822  16.216  0.00  0.00    +0.000 A 
ATOM     15  C   UNL     1       5.976   4.371  15.458  0.00  0.00    +0.000 A 
ATOM     16  C   UNL     1       7.239   4.266  16.038  0.00  0.00    +0.000 A 
ATOM     17  C   UNL     1       7.418   4.615  17.374  0.00  0.00    +0.000 A 
ATOM     18  C   UNL     1       6.336   5.070  18.129  0.00  0.00    +0.000 A 
ATOM     19  F   UNL     1       6.568   5.350  19.418  0.00  0.00    +0.000 F 
ENDBRANCH   7  13
ENDBRANCH   2   5
BRANCH   1  24
ATOM     20  C   UNL     1      -0.451  11.741  20.466  0.00  0.00    +0.000 A 
ATOM     21  C   UNL     1       0.244  12.868  20.009  0.00  0.00    +0.000 A 
ATOM     22  C   UNL     1       1.280  12.726  19.087  0.00  0.00    +0.000 A 
ATOM     23  C   UNL     1       1.663  11.458  18.665  0.00  0.00    +0.000 A 
ATOM     24  C   UNL     1       1.031  10.316  19.170  0.00  0.00    +0.000 A 
ATOM     25  C   UNL     1      -0.055  10.464  20.038  0.00  0.00    +0.000 A 
BRANCH  20  31
ATOM     26  C   UNL     1      -3.455  12.705  20.036  0.00  0.00    +0.000 C 
ATOM     27  C   UNL     1      -2.767  12.397  21.314  0.00  0.00    +0.000 A 
ATOM     28  C   UNL     1      -3.269  12.488  22.598  0.00  0.00    +0.000 A 
ATOM     29  C   UNL     1      -2.307  11.874  23.407  0.00  0.00    +0.000 A 
ATOM     30  N   UNL     1      -1.269  11.421  22.707  0.00  0.00    +0.000 NA
ATOM     31  N   UNL     1      -1.489  11.858  21.434  0.00  0.00    +0.000 N 
ENDBRANCH  20  31
ENDBRANCH   1  24
TORSDOF 4
ENDMDL
MODEL 5
REMARK VINA RESULT:      -8.5      0.900      1.099
REMARK  Name = 
REMARK  5 active torsions:
REMARK  status: ('A' for Active; 'I' for Inactive)
REMARK    1  A    between atoms: C_1  and  C_2
REMARK    2  A    between atoms: N_6  and  C_7
REMARK    3  A    between atoms: C_11  and  N_12
REMARK    4  A    between atoms: C_13  and  C_15
REMARK    5  A    between atoms: N_17  and  C_18
REMARK                            x       y       z     vdW  Elec       q    Type
REMARK                         _______ _______ _______ _____ _____    ______ ____
ROOT
ATOM      1  N   UNL     1       1.412   9.097  18.352  0.00  0.00    +0.000 N 
ATOM      2  C   UNL     1       1.750   8.189  19.334  0.00  0.00    +0.000 C 
ATOM      3  O   UNL     1       1.643   8.361  20.544  0.00  0.00    +0.000 OA
ATOM      4  H   UNL     1       1.443   8.723  17.407  0.00  0.00    +0.000 HD
ENDROOT
BRANCH   2   5
ATOM      5  C   UNL     1       2.369   6.973  18.785  0.00  0.00    +0.000 A 
ATOM      6  N   UNL     1       3.540   6.981  18.100  0.00  0.00    +0.000 NA
ATOM      7  N   UNL     1       4.013   5.690  18.197  0.00  0.00    +0.000 N 
ATOM      8  C   UNL     1       3.203   4.987  19.039  0.00  0.00    +0.000 A 
ATOM      9  C   UNL     1       2.022   5.667  19.166  0.00  0.00    +0.000 A 
ATOM     10  C   UNL     1       1.169   5.060  20.214  0.00  0.00    +0.000 C 
ATOM     11  C   UNL     1       2.296   4.537  21.152  0.00  0.00    +0.000 C 
ATOM     12  C   UNL     1       3.432   4.046  20.171  0.00  0.00    +0.000 C 
BRANCH   7  13
ATOM     13  C   UNL     1       5.166   5.270  17.491  0.00  0.00    +0.000 A 
ATOM     14  C   UNL     1       5.069   4.948  16.127  0.00  0.00    +0.000 A 
ATOM     15  C   UNL     1       6.185   4.469  15.433  0.00  0.00    +0.000 A 
ATOM     16  C   UNL     1       7.402   4.299  16.093  0.00  0.00    +0.000 A 
ATOM     17  C   UNL     1       7.504   4.614  17.446  0.00  0.00    +0.000 A 
ATOM     18  C   UNL     1       6.392   5.096  18.138  0.00  0.00    +0.000 A 
ATOM     19  F   UNL     1       6.548   5.340  19.445  0.00  0.00    +0.000 F 
ENDBRANCH   7  13
ENDBRANCH   2   5
BRANCH   1  24
ATOM     20  C   UNL     1      -0.882  11.883  19.118  0.00  0.00    +0.000 A 
ATOM     21  C   UNL     1       0.000  12.970  19.143  0.00  0.00    +0.000 A 
ATOM     22  C   UNL     1       1.342  12.790  18.812  0.00  0.00    +0.000 A 
ATOM     23  C   UNL     1       1.818  11.518  18.512  0.00  0.00    +0.000 A 
ATOM     24  C   UNL     1       0.966  10.409  18.557  0.00  0.00    +0.000 A 
ATOM     25  C   UNL     1      -0.394  10.601  18.819  0.00  0.00    +0.000 A 
BRANCH  20  31
ATOM     26  C   UNL     1      -3.480  11.104  17.449  0.00  0.00    +0.000 C 
ATOM     27  C   UNL     1      -3.406  11.834  18.740  0.00  0.00    +0.000 A 
ATOM     28  C   UNL     1      -4.444  12.358  19.485  0.00  0.00    +0.000 A 
ATOM     29  C   UNL     1      -3.864  12.732  20.701  0.00  0.00    +0.000 A 
ATOM     30  N   UNL     1      -2.559  12.469  20.744  0.00  0.00    +0.000 NA
ATOM     31  N   UNL     1      -2.249  12.036  19.487  0.00  0.00    +0.000 N 
ENDBRANCH  20  31
ENDBRANCH   1  24
TORSDOF 4
ENDMDL
MODEL 6
REMARK VINA RESULT:      -8.5      2.607      9.169
REMARK  Name = 
REMARK  5 active torsions:
REMARK  status: ('A' for Active; 'I' for Inactive)
REMARK    1  A    between atoms: C_1  and  C_2
REMARK    2  A    between atoms: N_6  and  C_7
REMARK    3  A    between atoms: C_11  and  N_12
REMARK    4  A    between atoms: C_13  and  C_15
REMARK    5  A    between atoms: N_17  and  C_18
REMARK                            x       y       z     vdW  Elec       q    Type
REMARK                         _______ _______ _______ _____ _____    ______ ____
ROOT
ATOM      1  N   UNL     1       2.084   8.730  17.732  0.00  0.00    +0.000 N 
ATOM      2  C   UNL     1       1.456   9.264  18.839  0.00  0.00    +0.000 C 
ATOM      3  O   UNL     1       1.566   8.865  19.994  0.00  0.00    +0.000 OA
ATOM      4  H   UNL     1       1.978   9.281  16.885  0.00  0.00    +0.000 HD
ENDROOT
BRANCH   2   5
ATOM      5  C   UNL     1       0.526  10.348  18.489  0.00  0.00    +0.000 A 
ATOM      6  N   UNL     1      -0.784  10.136  18.202  0.00  0.00    +0.000 NA
ATOM      7  N   UNL     1      -1.392  11.354  18.419  0.00  0.00    +0.000 N 
ATOM      8  C   UNL     1      -0.478  12.213  18.955  0.00  0.00    +0.000 A 
ATOM      9  C   UNL     1       0.773  11.710  18.721  0.00  0.00    +0.000 A 
ATOM     10  C   UNL     1       1.804  12.493  19.440  0.00  0.00    +0.000 C 
ATOM     11  C   UNL     1       0.952  12.915  20.673  0.00  0.00    +0.000 C 
ATOM     12  C   UNL     1      -0.488  13.183  20.086  0.00  0.00    +0.000 C 
BRANCH   7  13
ATOM     13  C   UNL     1      -2.755  11.568  18.099  0.00  0.00    +0.000 A 
ATOM     14  C   UNL     1      -3.661  11.919  19.113  0.00  0.00    +0.000 A 
ATOM     15  C   UNL     1      -5.022  12.069  18.822  0.00  0.00    +0.000 A 
ATOM     16  C   UNL     1      -5.490  11.861  17.525  0.00  0.00    +0.000 A 
ATOM     17  C   UNL     1      -4.596  11.509  16.517  0.00  0.00    +0.000 A 
ATOM     18  C   UNL     1      -3.238  11.365  16.804  0.00  0.00    +0.000 A 
ATOM     19  F   UNL     1      -2.441  10.986  15.798  0.00  0.00    +0.000 F 
ENDBRANCH   7  13
ENDBRANCH   2   5
BRANCH   1  24
ATOM     20  C   UNL     1       3.067   5.193  18.101  0.00  0.00    +0.000 A 
ATOM     21  C   UNL     1       4.359   5.207  17.561  0.00  0.00    +0.000 A 
ATOM     22  C   UNL     1       4.938   6.410  17.162  0.00  0.00    +0.000 A 
ATOM     23  C   UNL     1       4.210   7.592  17.246  0.00  0.00    +0.000 A 
ATOM     24  C   UNL     1       2.890   7.585  17.712  0.00  0.00    +0.000 A 
ATOM     25  C   UNL     1       2.336   6.390  18.179  0.00  0.00    +0.000 A 
BRANCH  20  31
ATOM     26  C   UNL     1       1.842   4.400  20.932  0.00  0.00    +0.000 C 
ATOM     27  C   UNL     1       2.015   3.538  19.735  0.00  0.00    +0.000 A 
ATOM     28  C   UNL     1       1.710   2.199  19.597  0.00  0.00    +0.000 A 
ATOM     29  C   UNL     1       1.849   1.935  18.230  0.00  0.00    +0.000 A 
ATOM     30  N   UNL     1       2.211   3.015  17.539  0.00  0.00    +0.000 NA
ATOM     31  N   UNL     1       2.441   3.972  18.483  0.00  0.00    +0.000 N 
ENDBRANCH  20  31
ENDBRANCH   1  24
TORSDOF 4
ENDMDL
MODEL 7
REMARK VINA RESULT:      -8.4      2.362      9.543
REMARK  Name = 
REMARK  5 active torsions:
REMARK  status: ('A' for Active; 'I' for Inactive)
REMARK    1  A    between atoms: C_1  and  C_2
REMARK    2  A    between atoms: N_6  and  C_7
REMARK    3  A    between atoms: C_11  and  N_12
REMARK    4  A    between atoms: C_13  and  C_15
REMARK    5  A    between atoms: N_17  and  C_18
REMARK                            x       y       z     vdW  Elec       q    Type
REMARK                         _______ _______ _______ _____ _____    ______ ____
ROOT
ATOM      1  N   UNL     1       1.886   8.167  18.364  0.00  0.00    +0.000 N 
ATOM      2  C   UNL     1       1.360   9.040  19.294  0.00  0.00    +0.000 C 
ATOM      3  O   UNL     1       1.485   8.959  20.511  0.00  0.00    +0.000 OA
ATOM      4  H   UNL     1       1.793   8.476  17.400  0.00  0.00    +0.000 HD
ENDROOT
BRANCH   2   5
ATOM      5  C   UNL     1       0.517  10.076  18.678  0.00  0.00    +0.000 A 
ATOM      6  N   UNL     1      -0.807   9.905  18.434  0.00  0.00    +0.000 NA
ATOM      7  N   UNL     1      -1.314  11.184  18.340  0.00  0.00    +0.000 N 
ATOM      8  C   UNL     1      -0.331  12.072  18.663  0.00  0.00    +0.000 A 
ATOM      9  C   UNL     1       0.874  11.430  18.575  0.00  0.00    +0.000 A 
ATOM     10  C   UNL     1       1.969  12.280  19.097  0.00  0.00    +0.000 C 
ATOM     11  C   UNL     1       1.161  13.055  20.178  0.00  0.00    +0.000 C 
ATOM     12  C   UNL     1      -0.256  13.285  19.524  0.00  0.00    +0.000 C 
BRANCH   7  13
ATOM     13  C   UNL     1      -2.658  11.420  17.959  0.00  0.00    +0.000 A 
ATOM     14  C   UNL     1      -3.580  11.880  18.913  0.00  0.00    +0.000 A 
ATOM     15  C   UNL     1      -4.925  12.055  18.567  0.00  0.00    +0.000 A 
ATOM     16  C   UNL     1      -5.360  11.766  17.274  0.00  0.00    +0.000 A 
ATOM     17  C   UNL     1      -4.450  11.306  16.325  0.00  0.00    +0.000 A 
ATOM     18  C   UNL     1      -3.109  11.136  16.668  0.00  0.00    +0.000 A 
ATOM     19  F   UNL     1      -2.295  10.653  15.720  0.00  0.00    +0.000 F 
ENDBRANCH   7  13
ENDBRANCH   2   5
BRANCH   1  24
ATOM     20  C   UNL     1       4.318   5.420  17.970  0.00  0.00    +0.000 A 
ATOM     21  C   UNL     1       4.148   4.725  19.175  0.00  0.00    +0.000 A 
ATOM     22  C   UNL     1       3.158   5.116  20.075  0.00  0.00    +0.000 A 
ATOM     23  C   UNL     1       2.376   6.234  19.804  0.00  0.00    +0.000 A 
ATOM     24  C   UNL     1       2.584   6.985  18.642  0.00  0.00    +0.000 A 
ATOM     25  C   UNL     1       3.527   6.550  17.706  0.00  0.00    +0.000 A 
BRANCH  20  31
ATOM     26  C   UNL     1       7.266   6.602  17.740  0.00  0.00    +0.000 C 
ATOM     27  C   UNL     1       6.591   5.641  16.832  0.00  0.00    +0.000 A 
ATOM     28  C   UNL     1       7.084   5.070  15.675  0.00  0.00    +0.000 A 
ATOM     29  C   UNL     1       6.155   4.082  15.335  0.00  0.00    +0.000 A 
ATOM     30  N   UNL     1       5.145   4.014  16.200  0.00  0.00    +0.000 NA
ATOM     31  N   UNL     1       5.345   5.062  17.052  0.00  0.00    +0.000 N 
ENDBRANCH  20  31
ENDBRANCH   1  24
TORSDOF 4
ENDMDL
MODEL 8
REMARK VINA RESULT:      -8.4      2.297      3.729
REMARK  Name = 
REMARK  5 active torsions:
REMARK  status: ('A' for Active; 'I' for Inactive)
REMARK    1  A    between atoms: C_1  and  C_2
REMARK    2  A    between atoms: N_6  and  C_7
REMARK    3  A    between atoms: C_11  and  N_12
REMARK    4  A    between atoms: C_13  and  C_15
REMARK    5  A    between atoms: N_17  and  C_18
REMARK                            x       y       z     vdW  Elec       q    Type
REMARK                         _______ _______ _______ _____ _____    ______ ____
ROOT
ATOM      1  N   UNL     1       1.166   8.749  19.206  0.00  0.00    +0.000 N 
ATOM      2  C   UNL     1       1.666   7.785  20.057  0.00  0.00    +0.000 C 
ATOM      3  O   UNL     1       1.688   7.845  21.282  0.00  0.00    +0.000 OA
ATOM      4  H   UNL     1       1.109   8.461  18.233  0.00  0.00    +0.000 HD
ENDROOT
BRANCH   2   5
ATOM      5  C   UNL     1       2.284   6.664  19.334  0.00  0.00    +0.000 A 
ATOM      6  N   UNL     1       3.455   6.775  18.656  0.00  0.00    +0.000 NA
ATOM      7  N   UNL     1       3.929   5.484  18.561  0.00  0.00    +0.000 N 
ATOM      8  C   UNL     1       3.119   4.663  19.290  0.00  0.00    +0.000 A 
ATOM      9  C   UNL     1       1.938   5.316  19.517  0.00  0.00    +0.000 A 
ATOM     10  C   UNL     1       1.086   4.560  20.464  0.00  0.00    +0.000 C 
ATOM     11  C   UNL     1       2.215   3.904  21.312  0.00  0.00    +0.000 C 
ATOM     12  C   UNL     1       3.349   3.565  20.270  0.00  0.00    +0.000 C 
BRANCH   7  13
ATOM     13  C   UNL     1       5.082   5.174  17.799  0.00  0.00    +0.000 A 
ATOM     14  C   UNL     1       4.951   4.845  16.440  0.00  0.00    +0.000 A 
ATOM     15  C   UNL     1       6.074   4.473  15.693  0.00  0.00    +0.000 A 
ATOM     16  C   UNL     1       7.330   4.417  16.294  0.00  0.00    +0.000 A 
ATOM     17  C   UNL     1       7.466   4.739  17.642  0.00  0.00    +0.000 A 
ATOM     18  C   UNL     1       6.348   5.115  18.387  0.00  0.00    +0.000 A 
ATOM     19  F   UNL     1       6.541   5.371  19.687  0.00  0.00    +0.000 F 
ENDBRANCH   7  13
ENDBRANCH   2   5
BRANCH   1  24
ATOM     20  C   UNL     1       1.170  12.308  20.180  0.00  0.00    +0.000 A 
ATOM     21  C   UNL     1      -0.200  12.598  20.178  0.00  0.00    +0.000 A 
ATOM     22  C   UNL     1      -1.129  11.586  19.945  0.00  0.00    +0.000 A 
ATOM     23  C   UNL     1      -0.693  10.297  19.657  0.00  0.00    +0.000 A 
ATOM     24  C   UNL     1       0.673  10.007  19.580  0.00  0.00    +0.000 A 
ATOM     25  C   UNL     1       1.603  11.006  19.884  0.00  0.00    +0.000 A 
BRANCH  20  31
ATOM     26  C   UNL     1       2.770  13.973  17.987  0.00  0.00    +0.000 C 
ATOM     27  C   UNL     1       2.952  13.987  19.460  0.00  0.00    +0.000 A 
ATOM     28  C   UNL     1       3.873  14.704  20.199  0.00  0.00    +0.000 A 
ATOM     29  C   UNL     1       3.476  14.538  21.530  0.00  0.00    +0.000 A 
ATOM     30  N   UNL     1       2.387  13.780  21.645  0.00  0.00    +0.000 NA
ATOM     31  N   UNL     1       2.139  13.333  20.380  0.00  0.00    +0.000 N 
ENDBRANCH  20  31
ENDBRANCH   1  24
TORSDOF 4
ENDMDL
MODEL 9
REMARK VINA RESULT:      -8.4      2.782      9.285
REMARK  Name = 
REMARK  5 active torsions:
REMARK  status: ('A' for Active; 'I' for Inactive)
REMARK    1  A    between atoms: C_1  and  C_2
REMARK    2  A    between atoms: N_6  and  C_7
REMARK    3  A    between atoms: C_11  and  N_12
REMARK    4  A    between atoms: C_13  and  C_15
REMARK    5  A    between atoms: N_17  and  C_18
REMARK                            x       y       z     vdW  Elec       q    Type
REMARK                         _______ _______ _______ _____ _____    ______ ____
ROOT
ATOM      1  N   UNL     1       1.841   8.744  17.859  0.00  0.00    +0.000 N 
ATOM      2  C   UNL     1       1.222   9.322  18.948  0.00  0.00    +0.000 C 
ATOM      3  O   UNL     1       1.346   8.976  20.118  0.00  0.00    +0.000 OA
ATOM      4  H   UNL     1       1.722   9.255  16.989  0.00  0.00    +0.000 HD
ENDROOT
BRANCH   2   5
ATOM      5  C   UNL     1       0.280  10.383  18.560  0.00  0.00    +0.000 A 
ATOM      6  N   UNL     1      -1.062  10.191  18.482  0.00  0.00    +0.000 NA
ATOM      7  N   UNL     1      -1.603  11.455  18.587  0.00  0.00    +0.000 N 
ATOM      8  C   UNL     1      -0.604  12.341  18.860  0.00  0.00    +0.000 A 
ATOM      9  C   UNL     1       0.591  11.752  18.545  0.00  0.00    +0.000 A 
ATOM     10  C   UNL     1       1.730  12.585  18.994  0.00  0.00    +0.000 C 
ATOM     11  C   UNL     1       1.064  13.225  20.248  0.00  0.00    +0.000 C 
ATOM     12  C   UNL     1      -0.435  13.468  19.820  0.00  0.00    +0.000 C 
BRANCH   7  13
ATOM     13  C   UNL     1      -2.991  11.680  18.419  0.00  0.00    +0.000 A 
ATOM     14  C   UNL     1      -3.578  11.502  17.156  0.00  0.00    +0.000 A 
ATOM     15  C   UNL     1      -4.934  11.785  16.961  0.00  0.00    +0.000 A 
ATOM     16  C   UNL     1      -5.712  12.254  18.018  0.00  0.00    +0.000 A 
ATOM     17  C   UNL     1      -5.136  12.436  19.273  0.00  0.00    +0.000 A 
ATOM     18  C   UNL     1      -3.784  12.149  19.470  0.00  0.00    +0.000 A 
ATOM     19  F   UNL     1      -3.284  12.385  20.689  0.00  0.00    +0.000 F 
ENDBRANCH   7  13
ENDBRANCH   2   5
BRANCH   1  24
ATOM     20  C   UNL     1       2.844   5.226  18.345  0.00  0.00    +0.000 A 
ATOM     21  C   UNL     1       4.141   5.233  17.817  0.00  0.00    +0.000 A 
ATOM     22  C   UNL     1       4.716   6.427  17.386  0.00  0.00    +0.000 A 
ATOM     23  C   UNL     1       3.979   7.606  17.427  0.00  0.00    +0.000 A 
ATOM     24  C   UNL     1       2.656   7.604  17.881  0.00  0.00    +0.000 A 
ATOM     25  C   UNL     1       2.105   6.420  18.379  0.00  0.00    +0.000 A 
BRANCH  20  31
ATOM     26  C   UNL     1       2.243   4.222  21.306  0.00  0.00    +0.000 C 
ATOM     27  C   UNL     1       2.063   3.479  20.033  0.00  0.00    +0.000 A 
ATOM     28  C   UNL     1       1.622   2.183  19.857  0.00  0.00    +0.000 A 
ATOM     29  C   UNL     1       1.419   2.054  18.479  0.00  0.00    +0.000 A 
ATOM     30  N   UNL     1       1.702   3.174  17.817  0.00  0.00    +0.000 NA
ATOM     31  N   UNL     1       2.223   4.013  18.758  0.00  0.00    +0.000 N 
ENDBRANCH  20  31
ENDBRANCH   1  24
TORSDOF 4
ENDMDL
