MODEL 1
REMARK VINA RESULT:      -9.0      0.000      0.000
REMARK  Name = 
REMARK  5 active torsions:
REMARK  status: ('A' for Active; 'I' for Inactive)
REMARK    1  A    between atoms: C_2  and  C_3
REMARK    2  A    between atoms: C_3  and  N_4
REMARK    3  A    between atoms: N_15  and  C_16
REMARK    4  A    between atoms: N_24  and  C_25
REMARK    5  A    between atoms: C_25  and  C_26
REMARK                            x       y       z     vdW  Elec       q    Type
REMARK                         _______ _______ _______ _____ _____    ______ ____
ROOT
ATOM      1  O   UNL     1       0.451  12.264  21.780  0.00  0.00    +0.000 OA
ATOM      2  C   UNL     1       1.127  12.519  20.786  0.00  0.00    +0.000 C 
ATOM      3  N   UNL     1       1.099  11.751  19.638  0.00  0.00    +0.000 N 
ATOM      4  H   UNL     1       1.475  12.148  18.776  0.00  0.00    +0.000 HD
ENDROOT
BRANCH   3   5
ATOM      5  C   UNL     1       0.306  10.533  19.534  0.00  0.00    +0.000 C 
ATOM      6  C   UNL     1      -0.386  10.182  20.876  0.00  0.00    +0.000 C 
ATOM      7  C   UNL     1       0.117   8.989  21.728  0.00  0.00    +0.000 C 
ATOM      8  C   UNL     1       1.198   8.044  21.186  0.00  0.00    +0.000 C 
ATOM      9  C   UNL     1       1.590   8.366  19.804  0.00  0.00    +0.000 A 
ATOM     10  C   UNL     1       1.196   9.451  19.058  0.00  0.00    +0.000 A 
ATOM     11  C   UNL     1       1.825   9.268  17.811  0.00  0.00    +0.000 A 
ATOM     12  N   UNL     1       2.570   8.160  17.773  0.00  0.00    +0.000 NA
ATOM     13  N   UNL     1       2.461   7.651  19.023  0.00  0.00    +0.000 N 
BRANCH  13  14
ATOM     14  C   UNL     1       3.211   6.452  19.381  0.00  0.00    +0.000 C 
BRANCH  14  15
ATOM     15  C   UNL     1       2.354   5.206  19.331  0.00  0.00    +0.000 A 
ATOM     16  C   UNL     1       1.818   4.654  20.503  0.00  0.00    +0.000 A 
ATOM     17  C   UNL     1       1.013   3.513  20.446  0.00  0.00    +0.000 A 
ATOM     18  C   UNL     1       0.733   2.914  19.219  0.00  0.00    +0.000 A 
ATOM     19  C   UNL     1       1.255   3.455  18.047  0.00  0.00    +0.000 A 
ATOM     20  C   UNL     1       2.059   4.596  18.101  0.00  0.00    +0.000 A 
ENDBRANCH  14  15
ENDBRANCH  13  14
ENDBRANCH   3   5
BRANCH   2  21
ATOM     21  C   UNL     1       2.045  13.745  20.717  0.00  0.00    +0.000 C 
BRANCH  21  22
ATOM     22  N   UNL     1       1.581  14.736  19.764  0.00  0.00    +0.000 N 
ATOM     23  C   UNL     1       0.334  15.324  19.792  0.00  0.00    +0.000 C 
ATOM     24  O   UNL     1      -0.536  15.197  20.635  0.00  0.00    +0.000 OA
ATOM     25  C   UNL     1       0.269  16.184  18.558  0.00  0.00    +0.000 C 
ATOM     26  C   UNL     1      -0.673  17.369  18.472  0.00  0.00    +0.000 C 
ATOM     27  C   UNL     1      -0.428  18.083  17.131  0.00  0.00    +0.000 C 
ATOM     28  C   UNL     1       1.050  18.461  16.924  0.00  0.00    +0.000 C 
ATOM     29  C   UNL     1       2.003  17.272  17.136  0.00  0.00    +0.000 C 
ATOM     30  C   UNL     1       1.711  16.659  18.486  0.00  0.00    +0.000 C 
ATOM     31  C   UNL     1       2.448  15.427  18.950  0.00  0.00    +0.000 C 
ATOM     32  O   UNL     1       3.629  15.179  18.771  0.00  0.00    +0.000 OA
ENDBRANCH  21  22
ENDBRANCH   2  21
TORSDOF 5
ENDMDL
MODEL 2
REMARK VINA RESULT:      -8.9      3.930      6.425
REMARK  Name = 
REMARK  5 active torsions:
REMARK  status: ('A' for Active; 'I' for Inactive)
REMARK    1  A    between atoms: C_2  and  C_3
REMARK    2  A    between atoms: C_3  and  N_4
REMARK    3  A    between atoms: N_15  and  C_16
REMARK    4  A    between atoms: N_24  and  C_25
REMARK    5  A    between atoms: C_25  and  C_26
REMARK                            x       y       z     vdW  Elec       q    Type
REMARK                         _______ _______ _______ _____ _____    ______ ____
ROOT
ATOM      1  O   UNL     1       0.768   6.293  20.867  0.00  0.00    +0.000 OA
ATOM      2  C   UNL     1       1.733   7.043  20.745  0.00  0.00    +0.000 C 
ATOM      3  N   UNL     1       2.679   6.897  19.748  0.00  0.00    +0.000 N 
ATOM      4  H   UNL     1       3.298   7.683  19.544  0.00  0.00    +0.000 HD
ENDROOT
BRANCH   3   5
ATOM      5  C   UNL     1       2.641   5.797  18.792  0.00  0.00    +0.000 C 
ATOM      6  C   UNL     1       2.761   4.421  19.495  0.00  0.00    +0.000 C 
ATOM      7  C   UNL     1       4.067   3.596  19.381  0.00  0.00    +0.000 C 
ATOM      8  C   UNL     1       5.198   4.049  18.448  0.00  0.00    +0.000 C 
ATOM      9  C   UNL     1       4.844   5.248  17.670  0.00  0.00    +0.000 A 
ATOM     10  C   UNL     1       3.716   6.021  17.800  0.00  0.00    +0.000 A 
ATOM     11  C   UNL     1       3.852   7.013  16.810  0.00  0.00    +0.000 A 
ATOM     12  N   UNL     1       4.985   6.885  16.113  0.00  0.00    +0.000 NA
ATOM     13  N   UNL     1       5.608   5.832  16.694  0.00  0.00    +0.000 N 
BRANCH  13  14
ATOM     14  C   UNL     1       6.933   5.434  16.232  0.00  0.00    +0.000 C 
BRANCH  14  15
ATOM     15  C   UNL     1       6.914   4.933  14.805  0.00  0.00    +0.000 A 
ATOM     16  C   UNL     1       6.015   3.934  14.406  0.00  0.00    +0.000 A 
ATOM     17  C   UNL     1       5.992   3.488  13.082  0.00  0.00    +0.000 A 
ATOM     18  C   UNL     1       6.863   4.038  12.142  0.00  0.00    +0.000 A 
ATOM     19  C   UNL     1       7.757   5.033  12.525  0.00  0.00    +0.000 A 
ATOM     20  C   UNL     1       7.782   5.481  13.847  0.00  0.00    +0.000 A 
ENDBRANCH  14  15
ENDBRANCH  13  14
ENDBRANCH   3   5
BRANCH   2  21
ATOM     21  C   UNL     1       1.959   8.241  21.673  0.00  0.00    +0.000 C 
BRANCH  21  22
ATOM     22  N   UNL     1       0.877   9.206  21.613  0.00  0.00    +0.000 N 
ATOM     23  C   UNL     1       0.237   9.735  22.713  0.00  0.00    +0.000 C 
ATOM     24  O   UNL     1       0.508   9.569  23.889  0.00  0.00    +0.000 OA
ATOM     25  C   UNL     1      -0.875  10.586  22.161  0.00  0.00    +0.000 C 
ATOM     26  C   UNL     1      -1.470  11.724  22.966  0.00  0.00    +0.000 C 
ATOM     27  C   UNL     1      -2.508  12.445  22.086  0.00  0.00    +0.000 C 
ATOM     28  C   UNL     1      -1.928  12.891  20.732  0.00  0.00    +0.000 C 
ATOM     29  C   UNL     1      -1.219  11.750  19.984  0.00  0.00    +0.000 C 
ATOM     30  C   UNL     1      -0.201  11.128  20.911  0.00  0.00    +0.000 C 
ATOM     31  C   UNL     1       0.613   9.934  20.476  0.00  0.00    +0.000 C 
ATOM     32  O   UNL     1       1.080   9.742  19.365  0.00  0.00    +0.000 OA
ENDBRANCH  21  22
ENDBRANCH   2  21
TORSDOF 5
ENDMDL
MODEL 3
REMARK VINA RESULT:      -8.7      3.671      6.166
REMARK  Name = 
REMARK  5 active torsions:
REMARK  status: ('A' for Active; 'I' for Inactive)
REMARK    1  A    between atoms: C_2  and  C_3
REMARK    2  A    between atoms: C_3  and  N_4
REMARK    3  A    between atoms: N_15  and  C_16
REMARK    4  A    between atoms: N_24  and  C_25
REMARK    5  A    between atoms: C_25  and  C_26
REMARK                            x       y       z     vdW  Elec       q    Type
REMARK                         _______ _______ _______ _____ _____    ______ ____
ROOT
ATOM      1  O   UNL     1       0.314   7.268  20.863  0.00  0.00    +0.000 OA
ATOM      2  C   UNL     1       1.463   7.699  20.923  0.00  0.00    +0.000 C 
ATOM      3  N   UNL     1       2.495   7.206  20.146  0.00  0.00    +0.000 N 
ATOM      4  H   UNL     1       3.345   7.763  20.054  0.00  0.00    +0.000 HD
ENDROOT
BRANCH   3   5
ATOM      5  C   UNL     1       2.314   6.085  19.232  0.00  0.00    +0.000 C 
ATOM      6  C   UNL     1       2.201   4.738  19.990  0.00  0.00    +0.000 C 
ATOM      7  C   UNL     1       3.368   3.719  19.953  0.00  0.00    +0.000 C 
ATOM      8  C   UNL     1       4.581   3.954  19.042  0.00  0.00    +0.000 C 
ATOM      9  C   UNL     1       4.437   5.159  18.208  0.00  0.00    +0.000 A 
ATOM     10  C   UNL     1       3.438   6.100  18.270  0.00  0.00    +0.000 A 
ATOM     11  C   UNL     1       3.754   7.016  17.248  0.00  0.00    +0.000 A 
ATOM     12  N   UNL     1       4.872   6.687  16.596  0.00  0.00    +0.000 NA
ATOM     13  N   UNL     1       5.309   5.578  17.237  0.00  0.00    +0.000 N 
BRANCH  13  14
ATOM     14  C   UNL     1       6.570   4.963  16.836  0.00  0.00    +0.000 C 
BRANCH  14  15
ATOM     15  C   UNL     1       6.617   4.671  15.353  0.00  0.00    +0.000 A 
ATOM     16  C   UNL     1       5.693   3.798  14.762  0.00  0.00    +0.000 A 
ATOM     17  C   UNL     1       5.732   3.547  13.387  0.00  0.00    +0.000 A 
ATOM     18  C   UNL     1       6.692   4.168  12.590  0.00  0.00    +0.000 A 
ATOM     19  C   UNL     1       7.612   5.040  13.163  0.00  0.00    +0.000 A 
ATOM     20  C   UNL     1       7.575   5.293  14.535  0.00  0.00    +0.000 A 
ENDBRANCH  14  15
ENDBRANCH  13  14
ENDBRANCH   3   5
BRANCH   2  21
ATOM     21  C   UNL     1       1.853   8.859  21.846  0.00  0.00    +0.000 C 
BRANCH  21  22
ATOM     22  N   UNL     1       0.881   9.935  21.831  0.00  0.00    +0.000 N 
ATOM     23  C   UNL     1       0.553  10.678  20.717  0.00  0.00    +0.000 C 
ATOM     24  O   UNL     1       0.932  10.517  19.571  0.00  0.00    +0.000 OA
ATOM     25  C   UNL     1      -0.397  11.738  21.206  0.00  0.00    +0.000 C 
ATOM     26  C   UNL     1      -1.378  12.412  20.267  0.00  0.00    +0.000 C 
ATOM     27  C   UNL     1      -2.258  13.367  21.094  0.00  0.00    +0.000 C 
ATOM     28  C   UNL     1      -2.935  12.666  22.284  0.00  0.00    +0.000 C 
ATOM     29  C   UNL     1      -1.940  11.884  23.159  0.00  0.00    +0.000 C 
ATOM     30  C   UNL     1      -1.149  10.953  22.269  0.00  0.00    +0.000 C 
ATOM     31  C   UNL     1      -0.045  10.096  22.836  0.00  0.00    +0.000 C 
ATOM     32  O   UNL     1      -0.052   9.526  23.915  0.00  0.00    +0.000 OA
ENDBRANCH  21  22
ENDBRANCH   2  21
TORSDOF 5
ENDMDL
MODEL 4
REMARK VINA RESULT:      -8.7      3.858      6.439
REMARK  Name = 
REMARK  5 active torsions:
REMARK  status: ('A' for Active; 'I' for Inactive)
REMARK    1  A    between atoms: C_2  and  C_3
REMARK    2  A    between atoms: C_3  and  N_4
REMARK    3  A    between atoms: N_15  and  C_16
REMARK    4  A    between atoms: N_24  and  C_25
REMARK    5  A    between atoms: C_25  and  C_26
REMARK                            x       y       z     vdW  Elec       q    Type
REMARK                         _______ _______ _______ _____ _____    ______ ____
ROOT
ATOM      1  O   UNL     1       0.690   6.525  20.915  0.00  0.00    +0.000 OA
ATOM      2  C   UNL     1       1.705   7.209  20.807  0.00  0.00    +0.000 C 
ATOM      3  N   UNL     1       2.640   7.019  19.807  0.00  0.00    +0.000 N 
ATOM      4  H   UNL     1       3.312   7.764  19.619  0.00  0.00    +0.000 HD
ENDROOT
BRANCH   3   5
ATOM      5  C   UNL     1       2.526   5.945  18.828  0.00  0.00    +0.000 C 
ATOM      6  C   UNL     1       2.509   4.551  19.505  0.00  0.00    +0.000 C 
ATOM      7  C   UNL     1       3.740   3.615  19.401  0.00  0.00    +0.000 C 
ATOM      8  C   UNL     1       4.927   3.984  18.500  0.00  0.00    +0.000 C 
ATOM      9  C   UNL     1       4.697   5.224  17.740  0.00  0.00    +0.000 A 
ATOM     10  C   UNL     1       3.638   6.092  17.863  0.00  0.00    +0.000 A 
ATOM     11  C   UNL     1       3.884   7.085  16.896  0.00  0.00    +0.000 A 
ATOM     12  N   UNL     1       5.015   6.871  16.220  0.00  0.00    +0.000 NA
ATOM     13  N   UNL     1       5.531   5.757  16.792  0.00  0.00    +0.000 N 
BRANCH  13  14
ATOM     14  C   UNL     1       6.826   5.252  16.349  0.00  0.00    +0.000 C 
BRANCH  14  15
ATOM     15  C   UNL     1       6.814   4.850  14.891  0.00  0.00    +0.000 A 
ATOM     16  C   UNL     1       7.706   5.430  13.978  0.00  0.00    +0.000 A 
ATOM     17  C   UNL     1       7.700   5.040  12.635  0.00  0.00    +0.000 A 
ATOM     18  C   UNL     1       6.807   4.066  12.193  0.00  0.00    +0.000 A 
ATOM     19  C   UNL     1       5.920   3.479  13.090  0.00  0.00    +0.000 A 
ATOM     20  C   UNL     1       5.924   3.865  14.432  0.00  0.00    +0.000 A 
ENDBRANCH  14  15
ENDBRANCH  13  14
ENDBRANCH   3   5
BRANCH   2  21
ATOM     21  C   UNL     1       2.013   8.369  21.761  0.00  0.00    +0.000 C 
BRANCH  21  22
ATOM     22  N   UNL     1       1.079   9.470  21.619  0.00  0.00    +0.000 N 
ATOM     23  C   UNL     1       0.647   9.980  20.413  0.00  0.00    +0.000 C 
ATOM     24  O   UNL     1       0.885   9.561  19.294  0.00  0.00    +0.000 OA
ATOM     25  C   UNL     1      -0.206  11.169  20.762  0.00  0.00    +0.000 C 
ATOM     26  C   UNL     1      -1.268  11.684  19.810  0.00  0.00    +0.000 C 
ATOM     27  C   UNL     1      -2.016  12.838  20.502  0.00  0.00    +0.000 C 
ATOM     28  C   UNL     1      -2.572  12.441  21.881  0.00  0.00    +0.000 C 
ATOM     29  C   UNL     1      -1.507  11.806  22.791  0.00  0.00    +0.000 C 
ATOM     30  C   UNL     1      -0.854  10.667  22.043  0.00  0.00    +0.000 C 
ATOM     31  C   UNL     1       0.282   9.889  22.659  0.00  0.00    +0.000 C 
ATOM     32  O   UNL     1       0.383   9.559  23.830  0.00  0.00    +0.000 OA
ENDBRANCH  21  22
ENDBRANCH   2  21
TORSDOF 5
ENDMDL
MODEL 5
REMARK VINA RESULT:      -8.7      3.311      5.731
REMARK  Name = 
REMARK  5 active torsions:
REMARK  status: ('A' for Active; 'I' for Inactive)
REMARK    1  A    between atoms: C_2  and  C_3
REMARK    2  A    between atoms: C_3  and  N_4
REMARK    3  A    between atoms: N_15  and  C_16
REMARK    4  A    between atoms: N_24  and  C_25
REMARK    5  A    between atoms: C_25  and  C_26
REMARK                            x       y       z     vdW  Elec       q    Type
REMARK                         _______ _______ _______ _____ _____    ______ ____
ROOT
ATOM      1  O   UNL     1       0.524   8.719  19.919  0.00  0.00    +0.000 OA
ATOM      2  C   UNL     1       1.295   8.432  20.831  0.00  0.00    +0.000 C 
ATOM      3  N   UNL     1       1.953   7.219  20.909  0.00  0.00    +0.000 N 
ATOM      4  H   UNL     1       2.758   7.140  21.531  0.00  0.00    +0.000 HD
ENDROOT
BRANCH   3   5
ATOM      5  C   UNL     1       1.736   6.152  19.940  0.00  0.00    +0.000 C 
ATOM      6  C   UNL     1       1.472   4.792  20.635  0.00  0.00    +0.000 C 
ATOM      7  C   UNL     1       2.554   3.682  20.618  0.00  0.00    +0.000 C 
ATOM      8  C   UNL     1       3.832   3.849  19.786  0.00  0.00    +0.000 C 
ATOM      9  C   UNL     1       3.833   5.092  18.995  0.00  0.00    +0.000 A 
ATOM     10  C   UNL     1       2.911   6.110  19.042  0.00  0.00    +0.000 A 
ATOM     11  C   UNL     1       3.357   7.033  18.077  0.00  0.00    +0.000 A 
ATOM     12  N   UNL     1       4.481   6.638  17.474  0.00  0.00    +0.000 NA
ATOM     13  N   UNL     1       4.790   5.473  18.091  0.00  0.00    +0.000 N 
BRANCH  13  14
ATOM     14  C   UNL     1       6.019   4.772  17.734  0.00  0.00    +0.000 C 
BRANCH  14  15
ATOM     15  C   UNL     1       6.171   4.612  16.238  0.00  0.00    +0.000 A 
ATOM     16  C   UNL     1       7.272   5.158  15.565  0.00  0.00    +0.000 A 
ATOM     17  C   UNL     1       7.414   4.991  14.184  0.00  0.00    +0.000 A 
ATOM     18  C   UNL     1       6.461   4.274  13.464  0.00  0.00    +0.000 A 
ATOM     19  C   UNL     1       5.366   3.721  14.121  0.00  0.00    +0.000 A 
ATOM     20  C   UNL     1       5.221   3.886  15.500  0.00  0.00    +0.000 A 
ENDBRANCH  14  15
ENDBRANCH  13  14
ENDBRANCH   3   5
BRANCH   2  21
ATOM     21  C   UNL     1       1.629   9.416  21.958  0.00  0.00    +0.000 C 
BRANCH  21  22
ATOM     22  N   UNL     1       0.659  10.489  22.067  0.00  0.00    +0.000 N 
ATOM     23  C   UNL     1       0.631  11.605  21.258  0.00  0.00    +0.000 C 
ATOM     24  O   UNL     1       1.327  11.844  20.287  0.00  0.00    +0.000 OA
ATOM     25  C   UNL     1      -0.461  12.479  21.815  0.00  0.00    +0.000 C 
ATOM     26  C   UNL     1      -1.160  13.512  20.954  0.00  0.00    +0.000 C 
ATOM     27  C   UNL     1      -2.276  14.161  21.792  0.00  0.00    +0.000 C 
ATOM     28  C   UNL     1      -3.236  13.125  22.404  0.00  0.00    +0.000 C 
ATOM     29  C   UNL     1      -2.500  12.014  23.171  0.00  0.00    +0.000 C 
ATOM     30  C   UNL     1      -1.452  11.416  22.262  0.00  0.00    +0.000 C 
ATOM     31  C   UNL     1      -0.520  10.339  22.760  0.00  0.00    +0.000 C 
ATOM     32  O   UNL     1      -0.811   9.419  23.508  0.00  0.00    +0.000 OA
ENDBRANCH  21  22
ENDBRANCH   2  21
TORSDOF 5
ENDMDL
MODEL 6
REMARK VINA RESULT:      -8.5      3.079      5.239
REMARK  Name = 
REMARK  5 active torsions:
REMARK  status: ('A' for Active; 'I' for Inactive)
REMARK    1  A    between atoms: C_2  and  C_3
REMARK    2  A    between atoms: C_3  and  N_4
REMARK    3  A    between atoms: N_15  and  C_16
REMARK    4  A    between atoms: N_24  and  C_25
REMARK    5  A    between atoms: C_25  and  C_26
REMARK                            x       y       z     vdW  Elec       q    Type
REMARK                         _______ _______ _______ _____ _____    ______ ____
ROOT
ATOM      1  O   UNL     1      -0.421   7.897  21.063  0.00  0.00    +0.000 OA
ATOM      2  C   UNL     1       0.732   8.212  21.348  0.00  0.00    +0.000 C 
ATOM      3  N   UNL     1       1.839   7.584  20.810  0.00  0.00    +0.000 N 
ATOM      4  H   UNL     1       2.746   8.048  20.882  0.00  0.00    +0.000 HD
ENDROOT
BRANCH   3   5
ATOM      5  C   UNL     1       1.728   6.450  19.902  0.00  0.00    +0.000 C 
ATOM      6  C   UNL     1       1.631   5.107  20.670  0.00  0.00    +0.000 C 
ATOM      7  C   UNL     1       2.830   4.126  20.685  0.00  0.00    +0.000 C 
ATOM      8  C   UNL     1       4.067   4.391  19.816  0.00  0.00    +0.000 C 
ATOM      9  C   UNL     1       3.915   5.582  18.965  0.00  0.00    +0.000 A 
ATOM     10  C   UNL     1       2.885   6.492  18.981  0.00  0.00    +0.000 A 
ATOM     11  C   UNL     1       3.208   7.407  17.960  0.00  0.00    +0.000 A 
ATOM     12  N   UNL     1       4.359   7.109  17.353  0.00  0.00    +0.000 NA
ATOM     13  N   UNL     1       4.808   6.020  18.021  0.00  0.00    +0.000 N 
BRANCH  13  14
ATOM     14  C   UNL     1       6.102   5.442  17.673  0.00  0.00    +0.000 C 
BRANCH  14  15
ATOM     15  C   UNL     1       6.139   4.945  16.244  0.00  0.00    +0.000 A 
ATOM     16  C   UNL     1       5.095   4.167  15.726  0.00  0.00    +0.000 A 
ATOM     17  C   UNL     1       5.129   3.727  14.400  0.00  0.00    +0.000 A 
ATOM     18  C   UNL     1       6.203   4.062  13.578  0.00  0.00    +0.000 A 
ATOM     19  C   UNL     1       7.244   4.839  14.079  0.00  0.00    +0.000 A 
ATOM     20  C   UNL     1       7.213   5.280  15.403  0.00  0.00    +0.000 A 
ENDBRANCH  14  15
ENDBRANCH  13  14
ENDBRANCH   3   5
BRANCH   2  21
ATOM     21  C   UNL     1       1.049   9.364  22.307  0.00  0.00    +0.000 C 
BRANCH  21  22
ATOM     22  N   UNL     1       0.544  10.639  21.834  0.00  0.00    +0.000 N 
ATOM     23  C   UNL     1       0.845  11.195  20.609  0.00  0.00    +0.000 C 
ATOM     24  O   UNL     1       1.487  10.700  19.700  0.00  0.00    +0.000 OA
ATOM     25  C   UNL     1       0.196  12.553  20.614  0.00  0.00    +0.000 C 
ATOM     26  C   UNL     1      -0.161  13.260  19.322  0.00  0.00    +0.000 C 
ATOM     27  C   UNL     1      -0.887  14.571  19.675  0.00  0.00    +0.000 C 
ATOM     28  C   UNL     1      -2.094  14.347  20.603  0.00  0.00    +0.000 C 
ATOM     29  C   UNL     1      -1.739  13.521  21.851  0.00  0.00    +0.000 C 
ATOM     30  C   UNL     1      -1.065  12.244  21.405  0.00  0.00    +0.000 C 
ATOM     31  C   UNL     1      -0.541  11.254  22.415  0.00  0.00    +0.000 C 
ATOM     32  O   UNL     1      -1.072  10.945  23.470  0.00  0.00    +0.000 OA
ENDBRANCH  21  22
ENDBRANCH   2  21
TORSDOF 5
ENDMDL
MODEL 7
REMARK VINA RESULT:      -8.5      3.269      5.262
REMARK  Name = 
REMARK  5 active torsions:
REMARK  status: ('A' for Active; 'I' for Inactive)
REMARK    1  A    between atoms: C_2  and  C_3
REMARK    2  A    between atoms: C_3  and  N_4
REMARK    3  A    between atoms: N_15  and  C_16
REMARK    4  A    between atoms: N_24  and  C_25
REMARK    5  A    between atoms: C_25  and  C_26
REMARK                            x       y       z     vdW  Elec       q    Type
REMARK                         _______ _______ _______ _____ _____    ______ ____
ROOT
ATOM      1  O   UNL     1       0.233   9.197  19.578  0.00  0.00    +0.000 OA
ATOM      2  C   UNL     1       1.028   9.056  20.504  0.00  0.00    +0.000 C 
ATOM      3  N   UNL     1       1.769   7.905  20.691  0.00  0.00    +0.000 N 
ATOM      4  H   UNL     1       2.582   7.943  21.308  0.00  0.00    +0.000 HD
ENDROOT
BRANCH   3   5
ATOM      5  C   UNL     1       1.621   6.735  19.835  0.00  0.00    +0.000 C 
ATOM      6  C   UNL     1       1.417   5.440  20.663  0.00  0.00    +0.000 C 
ATOM      7  C   UNL     1       2.554   4.392  20.770  0.00  0.00    +0.000 C 
ATOM      8  C   UNL     1       3.834   4.541  19.937  0.00  0.00    +0.000 C 
ATOM      9  C   UNL     1       3.784   5.695  19.023  0.00  0.00    +0.000 A 
ATOM     10  C   UNL     1       2.810   6.662  18.957  0.00  0.00    +0.000 A 
ATOM     11  C   UNL     1       3.223   7.505  17.907  0.00  0.00    +0.000 A 
ATOM     12  N   UNL     1       4.374   7.109  17.357  0.00  0.00    +0.000 NA
ATOM     13  N   UNL     1       4.733   6.031  18.094  0.00  0.00    +0.000 N 
BRANCH  13  14
ATOM     14  C   UNL     1       6.001   5.362  17.822  0.00  0.00    +0.000 C 
BRANCH  14  15
ATOM     15  C   UNL     1       6.109   4.906  16.384  0.00  0.00    +0.000 A 
ATOM     16  C   UNL     1       5.127   4.084  15.815  0.00  0.00    +0.000 A 
ATOM     17  C   UNL     1       5.226   3.681  14.480  0.00  0.00    +0.000 A 
ATOM     18  C   UNL     1       6.303   4.098  13.700  0.00  0.00    +0.000 A 
ATOM     19  C   UNL     1       7.282   4.919  14.252  0.00  0.00    +0.000 A 
ATOM     20  C   UNL     1       7.187   5.323  15.585  0.00  0.00    +0.000 A 
ENDBRANCH  14  15
ENDBRANCH  13  14
ENDBRANCH   3   5
BRANCH   2  21
ATOM     21  C   UNL     1       1.300  10.167  21.523  0.00  0.00    +0.000 C 
BRANCH  21  22
ATOM     22  N   UNL     1       0.164  11.053  21.699  0.00  0.00    +0.000 N 
ATOM     23  C   UNL     1      -0.800  10.905  22.673  0.00  0.00    +0.000 C 
ATOM     24  O   UNL     1      -0.829  10.095  23.582  0.00  0.00    +0.000 OA
ATOM     25  C   UNL     1      -1.822  11.974  22.392  0.00  0.00    +0.000 C 
ATOM     26  C   UNL     1      -2.740  12.493  23.481  0.00  0.00    +0.000 C 
ATOM     27  C   UNL     1      -3.589  13.634  22.893  0.00  0.00    +0.000 C 
ATOM     28  C   UNL     1      -2.732  14.734  22.240  0.00  0.00    +0.000 C 
ATOM     29  C   UNL     1      -1.720  14.175  21.225  0.00  0.00    +0.000 C 
ATOM     30  C   UNL     1      -0.913  13.090  21.900  0.00  0.00    +0.000 C 
ATOM     31  C   UNL     1       0.122  12.306  21.133  0.00  0.00    +0.000 C 
ATOM     32  O   UNL     1       0.884  12.747  20.288  0.00  0.00    +0.000 OA
ENDBRANCH  21  22
ENDBRANCH   2  21
TORSDOF 5
ENDMDL
MODEL 8
REMARK VINA RESULT:      -8.5      3.759      6.157
REMARK  Name = 
REMARK  5 active torsions:
REMARK  status: ('A' for Active; 'I' for Inactive)
REMARK    1  A    between atoms: C_2  and  C_3
REMARK    2  A    between atoms: C_3  and  N_4
REMARK    3  A    between atoms: N_15  and  C_16
REMARK    4  A    between atoms: N_24  and  C_25
REMARK    5  A    between atoms: C_25  and  C_26
REMARK                            x       y       z     vdW  Elec       q    Type
REMARK                         _______ _______ _______ _____ _____    ______ ____
ROOT
ATOM      1  O   UNL     1       0.396   7.199  20.493  0.00  0.00    +0.000 OA
ATOM      2  C   UNL     1       1.538   7.593  20.719  0.00  0.00    +0.000 C 
ATOM      3  N   UNL     1       2.656   7.048  20.117  0.00  0.00    +0.000 N 
ATOM      4  H   UNL     1       3.530   7.575  20.146  0.00  0.00    +0.000 HD
ENDROOT
BRANCH   3   5
ATOM      5  C   UNL     1       2.576   5.914  19.206  0.00  0.00    +0.000 C 
ATOM      6  C   UNL     1       2.710   4.565  19.955  0.00  0.00    +0.000 C 
ATOM      7  C   UNL     1       4.006   3.724  19.828  0.00  0.00    +0.000 C 
ATOM      8  C   UNL     1       5.107   4.131  18.840  0.00  0.00    +0.000 C 
ATOM      9  C   UNL     1       4.735   5.303  18.030  0.00  0.00    +0.000 A 
ATOM     10  C   UNL     1       3.618   6.091  18.170  0.00  0.00    +0.000 A 
ATOM     11  C   UNL     1       3.728   7.044  17.138  0.00  0.00    +0.000 A 
ATOM     12  N   UNL     1       4.834   6.880  16.408  0.00  0.00    +0.000 NA
ATOM     13  N   UNL     1       5.469   5.844  17.006  0.00  0.00    +0.000 N 
BRANCH  13  14
ATOM     14  C   UNL     1       6.775   5.417  16.515  0.00  0.00    +0.000 C 
BRANCH  14  15
ATOM     15  C   UNL     1       6.720   4.955  15.076  0.00  0.00    +0.000 A 
ATOM     16  C   UNL     1       7.599   5.479  14.118  0.00  0.00    +0.000 A 
ATOM     17  C   UNL     1       7.553   5.034  12.794  0.00  0.00    +0.000 A 
ATOM     18  C   UNL     1       6.633   4.059  12.414  0.00  0.00    +0.000 A 
ATOM     19  C   UNL     1       5.757   3.527  13.357  0.00  0.00    +0.000 A 
ATOM     20  C   UNL     1       5.801   3.969  14.680  0.00  0.00    +0.000 A 
ENDBRANCH  14  15
ENDBRANCH  13  14
ENDBRANCH   3   5
BRANCH   2  21
ATOM     21  C   UNL     1       1.825   8.759  21.671  0.00  0.00    +0.000 C 
BRANCH  21  22
ATOM     22  N   UNL     1       0.744   9.726  21.712  0.00  0.00    +0.000 N 
ATOM     23  C   UNL     1      -0.020   9.999  22.827  0.00  0.00    +0.000 C 
ATOM     24  O   UNL     1       0.122   9.568  23.957  0.00  0.00    +0.000 OA
ATOM     25  C   UNL     1      -1.076  10.967  22.363  0.00  0.00    +0.000 C 
ATOM     26  C   UNL     1      -1.771  11.900  23.334  0.00  0.00    +0.000 C 
ATOM     27  C   UNL     1      -2.715  12.814  22.533  0.00  0.00    +0.000 C 
ATOM     28  C   UNL     1      -1.996  13.549  21.387  0.00  0.00    +0.000 C 
ATOM     29  C   UNL     1      -1.194  12.598  20.482  0.00  0.00    +0.000 C 
ATOM     30  C   UNL     1      -0.275  11.770  21.350  0.00  0.00    +0.000 C 
ATOM     31  C   UNL     1       0.596  10.696  20.749  0.00  0.00    +0.000 C 
ATOM     32  O   UNL     1       1.185  10.756  19.681  0.00  0.00    +0.000 OA
ENDBRANCH  21  22
ENDBRANCH   2  21
TORSDOF 5
ENDMDL
MODEL 9
REMARK VINA RESULT:      -8.5      3.328      9.401
REMARK  Name = 
REMARK  5 active torsions:
REMARK  status: ('A' for Active; 'I' for Inactive)
REMARK    1  A    between atoms: C_2  and  C_3
REMARK    2  A    between atoms: C_3  and  N_4
REMARK    3  A    between atoms: N_15  and  C_16
REMARK    4  A    between atoms: N_24  and  C_25
REMARK    5  A    between atoms: C_25  and  C_26
REMARK                            x       y       z     vdW  Elec       q    Type
REMARK                         _______ _______ _______ _____ _____    ______ ____
ROOT
ATOM      1  O   UNL     1       1.315   8.695  17.080  0.00  0.00    +0.000 OA
ATOM      2  C   UNL     1       2.304   8.902  17.778  0.00  0.00    +0.000 C 
ATOM      3  N   UNL     1       2.508  10.083  18.466  0.00  0.00    +0.000 N 
ATOM      4  H   UNL     1       3.200  10.098  19.216  0.00  0.00    +0.000 HD
ENDROOT
BRANCH   3   5
ATOM      5  C   UNL     1       1.588  11.210  18.369  0.00  0.00    +0.000 C 
ATOM      6  C   UNL     1       2.339  12.565  18.365  0.00  0.00    +0.000 C 
ATOM      7  C   UNL     1       2.292  13.490  19.607  0.00  0.00    +0.000 C 
ATOM      8  C   UNL     1       1.378  13.157  20.794  0.00  0.00    +0.000 C 
ATOM      9  C   UNL     1       0.550  11.963  20.553  0.00  0.00    +0.000 A 
ATOM     10  C   UNL     1       0.622  11.102  19.484  0.00  0.00    +0.000 A 
ATOM     11  C   UNL     1      -0.397  10.160  19.723  0.00  0.00    +0.000 A 
ATOM     12  N   UNL     1      -1.056  10.397  20.860  0.00  0.00    +0.000 NA
ATOM     13  N   UNL     1      -0.422  11.473  21.386  0.00  0.00    +0.000 N 
BRANCH  13  14
ATOM     14  C   UNL     1      -0.831  11.986  22.689  0.00  0.00    +0.000 C 
BRANCH  14  15
ATOM     15  C   UNL     1      -2.230  12.559  22.663  0.00  0.00    +0.000 A 
ATOM     16  C   UNL     1      -3.148  12.264  23.681  0.00  0.00    +0.000 A 
ATOM     17  C   UNL     1      -4.433  12.812  23.658  0.00  0.00    +0.000 A 
ATOM     18  C   UNL     1      -4.814  13.663  22.623  0.00  0.00    +0.000 A 
ATOM     19  C   UNL     1      -3.911  13.969  21.609  0.00  0.00    +0.000 A 
ATOM     20  C   UNL     1      -2.626  13.423  21.628  0.00  0.00    +0.000 A 
ENDBRANCH  14  15
ENDBRANCH  13  14
ENDBRANCH   3   5
BRANCH   2  21
ATOM     21  C   UNL     1       3.396   7.845  17.980  0.00  0.00    +0.000 C 
BRANCH  21  22
ATOM     22  N   UNL     1       2.859   6.559  18.382  0.00  0.00    +0.000 N 
ATOM     23  C   UNL     1       3.195   5.354  17.802  0.00  0.00    +0.000 C 
ATOM     24  O   UNL     1       4.034   5.144  16.944  0.00  0.00    +0.000 OA
ATOM     25  C   UNL     1       2.313   4.330  18.463  0.00  0.00    +0.000 C 
ATOM     26  C   UNL     1       2.701   2.865  18.507  0.00  0.00    +0.000 C 
ATOM     27  C   UNL     1       1.641   2.110  19.328  0.00  0.00    +0.000 C 
ATOM     28  C   UNL     1       1.421   2.726  20.720  0.00  0.00    +0.000 C 
ATOM     29  C   UNL     1       1.149   4.239  20.665  0.00  0.00    +0.000 C 
ATOM     30  C   UNL     1       2.254   4.896  19.873  0.00  0.00    +0.000 C 
ATOM     31  C   UNL     1       2.227   6.378  19.591  0.00  0.00    +0.000 C 
ATOM     32  O   UNL     1       1.864   7.254  20.359  0.00  0.00    +0.000 OA
ENDBRANCH  21  22
ENDBRANCH   2  21
TORSDOF 5
ENDMDL
