MODEL 1
REMARK VINA RESULT:      -8.6      0.000      0.000
REMARK  Name = 
REMARK  6 active torsions:
REMARK  status: ('A' for Active; 'I' for Inactive)
REMARK    1  A    between atoms: C_2  and  C_15
REMARK    2  A    between atoms: N_3  and  C_4
REMARK    3  A    between atoms: C_4  and  C_5
REMARK    4  A    between atoms: C_5  and  C_6
REMARK    5  A    between atoms: C_18  and  O_19
REMARK    6  A    between atoms: O_19  and  C_20
REMARK                            x       y       z     vdW  Elec       q    Type
REMARK                         _______ _______ _______ _____ _____    ______ ____
ROOT
ATOM      1  O   UNL     1       2.584   4.727  21.275  0.00  0.00    +0.000 OA
ATOM      2  C   UNL     1       2.291   5.125  20.148  0.00  0.00    +0.000 C 
ATOM      3  N   UNL     1       2.282   4.329  19.038  0.00  0.00    +0.000 N 
ATOM      4  H   UNL     1       2.316   4.764  18.115  0.00  0.00    +0.000 HD
ENDROOT
BRANCH   2   5
ATOM      5  C   UNL     1       1.953   6.554  19.933  0.00  0.00    +0.000 A 
ATOM      6  C   UNL     1       2.310   7.144  18.719  0.00  0.00    +0.000 A 
ATOM      7  C   UNL     1       2.011   8.485  18.481  0.00  0.00    +0.000 A 
ATOM      8  C   UNL     1       1.317   9.235  19.438  0.00  0.00    +0.000 A 
ATOM      9  C   UNL     1       0.993   8.648  20.665  0.00  0.00    +0.000 A 
ATOM     10  C   UNL     1       1.317   7.315  20.921  0.00  0.00    +0.000 A 
BRANCH   8  11
ATOM     11  O   UNL     1       0.983  10.565  19.309  0.00  0.00    +0.000 OA
BRANCH  11  12
ATOM     12  C   UNL     1      -0.320  10.939  19.074  0.00  0.00    +0.000 A 
ATOM     13  C   UNL     1      -1.136  10.349  18.105  0.00  0.00    +0.000 A 
ATOM     14  C   UNL     1      -2.443  10.792  17.921  0.00  0.00    +0.000 A 
ATOM     15  C   UNL     1      -2.949  11.781  18.757  0.00  0.00    +0.000 A 
ATOM     16  F   UNL     1      -4.215  12.188  18.592  0.00  0.00    +0.000 F 
ATOM     17  C   UNL     1      -2.170  12.341  19.761  0.00  0.00    +0.000 A 
ATOM     18  C   UNL     1      -0.848  11.922  19.919  0.00  0.00    +0.000 A 
ENDBRANCH  11  12
ENDBRANCH   8  11
ENDBRANCH   2   5
BRANCH   3  19
ATOM     19  C   UNL     1       2.645   2.925  19.105  0.00  0.00    +0.000 C 
BRANCH  19  20
ATOM     20  C   UNL     1       3.935   2.615  18.343  0.00  0.00    +0.000 C 
BRANCH  20  21
ATOM     21  C   UNL     1       4.837   3.802  18.244  0.00  0.00    +0.000 A 
ATOM     22  N   UNL     1       4.750   4.784  17.365  0.00  0.00    +0.000 NA
ATOM     23  C   UNL     1       5.815   5.611  17.630  0.00  0.00    +0.000 A 
ATOM     24  C   UNL     1       6.216   6.793  16.992  0.00  0.00    +0.000 A 
ATOM     25  C   UNL     1       7.364   7.450  17.455  0.00  0.00    +0.000 A 
ATOM     26  C   UNL     1       8.095   6.941  18.531  0.00  0.00    +0.000 A 
ATOM     27  C   UNL     1       7.706   5.766  19.184  0.00  0.00    +0.000 A 
ATOM     28  C   UNL     1       6.559   5.132  18.700  0.00  0.00    +0.000 A 
ATOM     29  N   UNL     1       5.908   3.988  19.082  0.00  0.00    +0.000 N 
ATOM     30  H   UNL     1       6.186   3.376  19.836  0.00  0.00    +0.000 HD
ENDBRANCH  20  21
ENDBRANCH  19  20
ENDBRANCH   3  19
TORSDOF 6
ENDMDL
MODEL 2
REMARK VINA RESULT:      -8.4      0.448      1.013
REMARK  Name = 
REMARK  6 active torsions:
REMARK  status: ('A' for Active; 'I' for Inactive)
REMARK    1  A    between atoms: C_2  and  C_15
REMARK    2  A    between atoms: N_3  and  C_4
REMARK    3  A    between atoms: C_4  and  C_5
REMARK    4  A    between atoms: C_5  and  C_6
REMARK    5  A    between atoms: C_18  and  O_19
REMARK    6  A    between atoms: O_19  and  C_20
REMARK                            x       y       z     vdW  Elec       q    Type
REMARK                         _______ _______ _______ _____ _____    ______ ____
ROOT
ATOM      1  O   UNL     1       3.337   4.943  20.455  0.00  0.00    +0.000 OA
ATOM      2  C   UNL     1       2.638   5.283  19.502  0.00  0.00    +0.000 C 
ATOM      3  N   UNL     1       2.237   4.433  18.511  0.00  0.00    +0.000 N 
ATOM      4  H   UNL     1       1.916   4.822  17.623  0.00  0.00    +0.000 HD
ENDROOT
BRANCH   2   5
ATOM      5  C   UNL     1       2.211   6.698  19.365  0.00  0.00    +0.000 A 
ATOM      6  C   UNL     1       1.638   7.328  20.471  0.00  0.00    +0.000 A 
ATOM      7  C   UNL     1       1.223   8.656  20.380  0.00  0.00    +0.000 A 
ATOM      8  C   UNL     1       1.415   9.376  19.195  0.00  0.00    +0.000 A 
ATOM      9  C   UNL     1       1.959   8.730  18.081  0.00  0.00    +0.000 A 
ATOM     10  C   UNL     1       2.347   7.392  18.156  0.00  0.00    +0.000 A 
BRANCH   8  11
ATOM     11  O   UNL     1       1.034  10.685  18.996  0.00  0.00    +0.000 OA
BRANCH  11  12
ATOM     12  C   UNL     1      -0.296  11.018  18.888  0.00  0.00    +0.000 A 
ATOM     13  C   UNL     1      -1.200  10.350  18.056  0.00  0.00    +0.000 A 
ATOM     14  C   UNL     1      -2.531  10.754  17.995  0.00  0.00    +0.000 A 
ATOM     15  C   UNL     1      -2.967  11.784  18.819  0.00  0.00    +0.000 A 
ATOM     16  F   UNL     1      -4.253  12.155  18.775  0.00  0.00    +0.000 F 
ATOM     17  C   UNL     1      -2.095  12.424  19.693  0.00  0.00    +0.000 A 
ATOM     18  C   UNL     1      -0.753  12.042  19.725  0.00  0.00    +0.000 A 
ENDBRANCH  11  12
ENDBRANCH   8  11
ENDBRANCH   2   5
BRANCH   3  19
ATOM     19  C   UNL     1       2.631   3.036  18.500  0.00  0.00    +0.000 C 
BRANCH  19  20
ATOM     20  C   UNL     1       3.922   2.796  17.716  0.00  0.00    +0.000 C 
BRANCH  20  21
ATOM     21  C   UNL     1       4.861   3.955  17.796  0.00  0.00    +0.000 A 
ATOM     22  N   UNL     1       4.865   5.020  17.013  0.00  0.00    +0.000 NA
ATOM     23  C   UNL     1       5.931   5.781  17.431  0.00  0.00    +0.000 A 
ATOM     24  C   UNL     1       6.409   7.003  16.941  0.00  0.00    +0.000 A 
ATOM     25  C   UNL     1       7.538   7.573  17.545  0.00  0.00    +0.000 A 
ATOM     26  C   UNL     1       8.175   6.938  18.614  0.00  0.00    +0.000 A 
ATOM     27  C   UNL     1       7.708   5.720  19.121  0.00  0.00    +0.000 A 
ATOM     28  C   UNL     1       6.581   5.176  18.498  0.00  0.00    +0.000 A 
ATOM     29  N   UNL     1       5.873   4.023  18.721  0.00  0.00    +0.000 N 
ATOM     30  H   UNL     1       6.079   3.333  19.428  0.00  0.00    +0.000 HD
ENDBRANCH  20  21
ENDBRANCH  19  20
ENDBRANCH   3  19
TORSDOF 6
ENDMDL
MODEL 3
REMARK VINA RESULT:      -8.3      0.714      1.552
REMARK  Name = 
REMARK  6 active torsions:
REMARK  status: ('A' for Active; 'I' for Inactive)
REMARK    1  A    between atoms: C_2  and  C_15
REMARK    2  A    between atoms: N_3  and  C_4
REMARK    3  A    between atoms: C_4  and  C_5
REMARK    4  A    between atoms: C_5  and  C_6
REMARK    5  A    between atoms: C_18  and  O_19
REMARK    6  A    between atoms: O_19  and  C_20
REMARK                            x       y       z     vdW  Elec       q    Type
REMARK                         _______ _______ _______ _____ _____    ______ ____
ROOT
ATOM      1  O   UNL     1       2.599   4.613  21.556  0.00  0.00    +0.000 OA
ATOM      2  C   UNL     1       2.222   4.891  20.418  0.00  0.00    +0.000 C 
ATOM      3  N   UNL     1       2.028   3.964  19.433  0.00  0.00    +0.000 N 
ATOM      4  H   UNL     1       2.000   4.272  18.460  0.00  0.00    +0.000 HD
ENDROOT
BRANCH   2   5
ATOM      5  C   UNL     1       1.986   6.307  20.041  0.00  0.00    +0.000 A 
ATOM      6  C   UNL     1       2.450   6.749  18.800  0.00  0.00    +0.000 A 
ATOM      7  C   UNL     1       2.249   8.073  18.412  0.00  0.00    +0.000 A 
ATOM      8  C   UNL     1       1.547   8.954  19.244  0.00  0.00    +0.000 A 
ATOM      9  C   UNL     1       1.116   8.514  20.499  0.00  0.00    +0.000 A 
ATOM     10  C   UNL     1       1.342   7.199  20.906  0.00  0.00    +0.000 A 
BRANCH   8  11
ATOM     11  O   UNL     1       1.304  10.280  18.963  0.00  0.00    +0.000 OA
BRANCH  11  12
ATOM     12  C   UNL     1       0.015  10.749  18.860  0.00  0.00    +0.000 A 
ATOM     13  C   UNL     1      -0.470  11.853  19.567  0.00  0.00    +0.000 A 
ATOM     14  C   UNL     1      -1.794  12.259  19.416  0.00  0.00    +0.000 A 
ATOM     15  C   UNL     1      -2.608  11.598  18.505  0.00  0.00    +0.000 A 
ATOM     16  F   UNL     1      -3.873  12.006  18.345  0.00  0.00    +0.000 F 
ATOM     17  C   UNL     1      -2.127  10.533  17.753  0.00  0.00    +0.000 A 
ATOM     18  C   UNL     1      -0.811  10.103  17.933  0.00  0.00    +0.000 A 
ENDBRANCH  11  12
ENDBRANCH   8  11
ENDBRANCH   2   5
BRANCH   3  19
ATOM     19  C   UNL     1       2.275   2.551  19.657  0.00  0.00    +0.000 C 
BRANCH  19  20
ATOM     20  C   UNL     1       3.426   2.014  18.805  0.00  0.00    +0.000 C 
BRANCH  20  21
ATOM     21  C   UNL     1       4.450   3.059  18.507  0.00  0.00    +0.000 A 
ATOM     22  N   UNL     1       5.188   3.711  19.389  0.00  0.00    +0.000 NA
ATOM     23  C   UNL     1       5.939   4.599  18.656  0.00  0.00    +0.000 A 
ATOM     24  C   UNL     1       6.878   5.548  19.083  0.00  0.00    +0.000 A 
ATOM     25  C   UNL     1       7.505   6.352  18.121  0.00  0.00    +0.000 A 
ATOM     26  C   UNL     1       7.204   6.210  16.764  0.00  0.00    +0.000 A 
ATOM     27  C   UNL     1       6.275   5.263  16.319  0.00  0.00    +0.000 A 
ATOM     28  C   UNL     1       5.665   4.478  17.300  0.00  0.00    +0.000 A 
ATOM     29  N   UNL     1       4.725   3.482  17.231  0.00  0.00    +0.000 N 
ATOM     30  H   UNL     1       4.293   3.139  16.386  0.00  0.00    +0.000 HD
ENDBRANCH  20  21
ENDBRANCH  19  20
ENDBRANCH   3  19
TORSDOF 6
ENDMDL
MODEL 4
REMARK VINA RESULT:      -8.2      0.655      1.514
REMARK  Name = 
REMARK  6 active torsions:
REMARK  status: ('A' for Active; 'I' for Inactive)
REMARK    1  A    between atoms: C_2  and  C_15
REMARK    2  A    between atoms: N_3  and  C_4
REMARK    3  A    between atoms: C_4  and  C_5
REMARK    4  A    between atoms: C_5  and  C_6
REMARK    5  A    between atoms: C_18  and  O_19
REMARK    6  A    between atoms: O_19  and  C_20
REMARK                            x       y       z     vdW  Elec       q    Type
REMARK                         _______ _______ _______ _____ _____    ______ ____
ROOT
ATOM      1  O   UNL     1       2.538   4.454  21.456  0.00  0.00    +0.000 OA
ATOM      2  C   UNL     1       2.239   4.775  20.306  0.00  0.00    +0.000 C 
ATOM      3  N   UNL     1       2.147   3.890  19.270  0.00  0.00    +0.000 N 
ATOM      4  H   UNL     1       2.183   4.243  18.312  0.00  0.00    +0.000 HD
ENDROOT
BRANCH   2   5
ATOM      5  C   UNL     1       1.989   6.200  19.977  0.00  0.00    +0.000 A 
ATOM      6  C   UNL     1       1.371   7.004  20.937  0.00  0.00    +0.000 A 
ATOM      7  C   UNL     1       1.118   8.347  20.664  0.00  0.00    +0.000 A 
ATOM      8  C   UNL     1       1.516   8.907  19.444  0.00  0.00    +0.000 A 
ATOM      9  C   UNL     1       2.102   8.089  18.474  0.00  0.00    +0.000 A 
ATOM     10  C   UNL     1       2.331   6.736  18.730  0.00  0.00    +0.000 A 
BRANCH   8  11
ATOM     11  O   UNL     1       1.305  10.216  19.069  0.00  0.00    +0.000 OA
BRANCH  11  12
ATOM     12  C   UNL     1       0.028  10.708  18.934  0.00  0.00    +0.000 A 
ATOM     13  C   UNL     1      -0.910  10.199  18.031  0.00  0.00    +0.000 A 
ATOM     14  C   UNL     1      -2.182  10.760  17.947  0.00  0.00    +0.000 A 
ATOM     15  C   UNL     1      -2.531  11.785  18.817  0.00  0.00    +0.000 A 
ATOM     16  F   UNL     1      -3.763  12.307  18.749  0.00  0.00    +0.000 F 
ATOM     17  C   UNL     1      -1.630  12.268  19.758  0.00  0.00    +0.000 A 
ATOM     18  C   UNL     1      -0.343  11.730  19.816  0.00  0.00    +0.000 A 
ENDBRANCH  11  12
ENDBRANCH   8  11
ENDBRANCH   2   5
BRANCH   3  19
ATOM     19  C   UNL     1       2.421   2.476  19.448  0.00  0.00    +0.000 C 
BRANCH  19  20
ATOM     20  C   UNL     1       3.639   2.007  18.651  0.00  0.00    +0.000 C 
BRANCH  20  21
ATOM     21  C   UNL     1       4.630   3.103  18.429  0.00  0.00    +0.000 A 
ATOM     22  N   UNL     1       5.343   3.719  19.355  0.00  0.00    +0.000 NA
ATOM     23  C   UNL     1       6.067   4.677  18.687  0.00  0.00    +0.000 A 
ATOM     24  C   UNL     1       6.973   5.626  19.181  0.00  0.00    +0.000 A 
ATOM     25  C   UNL     1       7.576   6.511  18.278  0.00  0.00    +0.000 A 
ATOM     26  C   UNL     1       7.285   6.451  16.913  0.00  0.00    +0.000 A 
ATOM     27  C   UNL     1       6.388   5.506  16.401  0.00  0.00    +0.000 A 
ATOM     28  C   UNL     1       5.801   4.637  17.325  0.00  0.00    +0.000 A 
ATOM     29  N   UNL     1       4.895   3.619  17.184  0.00  0.00    +0.000 N 
ATOM     30  H   UNL     1       4.477   3.318  16.316  0.00  0.00    +0.000 HD
ENDBRANCH  20  21
ENDBRANCH  19  20
ENDBRANCH   3  19
TORSDOF 6
ENDMDL
MODEL 5
REMARK VINA RESULT:      -8.0      6.077      8.727
REMARK  Name = 
REMARK  6 active torsions:
REMARK  status: ('A' for Active; 'I' for Inactive)
REMARK    1  A    between atoms: C_2  and  C_15
REMARK    2  A    between atoms: N_3  and  C_4
REMARK    3  A    between atoms: C_4  and  C_5
REMARK    4  A    between atoms: C_5  and  C_6
REMARK    5  A    between atoms: C_18  and  O_19
REMARK    6  A    between atoms: O_19  and  C_20
REMARK                            x       y       z     vdW  Elec       q    Type
REMARK                         _______ _______ _______ _____ _____    ______ ____
ROOT
ATOM      1  O   UNL     1       7.395   8.585  17.024  0.00  0.00    +0.000 OA
ATOM      2  C   UNL     1       8.119   8.600  18.019  0.00  0.00    +0.000 C 
ATOM      3  N   UNL     1       8.416   7.491  18.760  0.00  0.00    +0.000 N 
ATOM      4  H   UNL     1       8.769   7.610  19.710  0.00  0.00    +0.000 HD
ENDROOT
BRANCH   2   5
ATOM      5  C   UNL     1       8.696   9.882  18.495  0.00  0.00    +0.000 A 
ATOM      6  C   UNL     1       8.582  11.005  17.675  0.00  0.00    +0.000 A 
ATOM      7  C   UNL     1       9.113  12.227  18.087  0.00  0.00    +0.000 A 
ATOM      8  C   UNL     1       9.727  12.343  19.340  0.00  0.00    +0.000 A 
ATOM      9  C   UNL     1       9.869  11.206  20.142  0.00  0.00    +0.000 A 
ATOM     10  C   UNL     1       9.366   9.974  19.721  0.00  0.00    +0.000 A 
BRANCH   8  11
ATOM     11  O   UNL     1      10.293  13.496  19.839  0.00  0.00    +0.000 OA
BRANCH  11  12
ATOM     12  C   UNL     1      10.327  14.643  19.080  0.00  0.00    +0.000 A 
ATOM     13  C   UNL     1      11.332  14.934  18.154  0.00  0.00    +0.000 A 
ATOM     14  C   UNL     1      11.300  16.123  17.431  0.00  0.00    +0.000 A 
ATOM     15  C   UNL     1      10.223  16.987  17.591  0.00  0.00    +0.000 A 
ATOM     16  F   UNL     1      10.184  18.119  16.876  0.00  0.00    +0.000 F 
ATOM     17  C   UNL     1       9.187  16.689  18.467  0.00  0.00    +0.000 A 
ATOM     18  C   UNL     1       9.239  15.513  19.219  0.00  0.00    +0.000 A 
ENDBRANCH  11  12
ENDBRANCH   8  11
ENDBRANCH   2   5
BRANCH   3  19
ATOM     19  C   UNL     1       7.871   6.187  18.431  0.00  0.00    +0.000 C 
BRANCH  19  20
ATOM     20  C   UNL     1       7.060   5.582  19.578  0.00  0.00    +0.000 C 
BRANCH  20  21
ATOM     21  C   UNL     1       5.758   5.015  19.116  0.00  0.00    +0.000 A 
ATOM     22  N   UNL     1       4.631   5.680  18.930  0.00  0.00    +0.000 NA
ATOM     23  C   UNL     1       3.703   4.738  18.557  0.00  0.00    +0.000 A 
ATOM     24  C   UNL     1       2.343   4.887  18.253  0.00  0.00    +0.000 A 
ATOM     25  C   UNL     1       1.604   3.748  17.908  0.00  0.00    +0.000 A 
ATOM     26  C   UNL     1       2.207   2.488  17.864  0.00  0.00    +0.000 A 
ATOM     27  C   UNL     1       3.566   2.322  18.158  0.00  0.00    +0.000 A 
ATOM     28  C   UNL     1       4.277   3.475  18.500  0.00  0.00    +0.000 A 
ATOM     29  N   UNL     1       5.587   3.680  18.846  0.00  0.00    +0.000 N 
ATOM     30  H   UNL     1       6.297   2.965  18.914  0.00  0.00    +0.000 HD
ENDBRANCH  20  21
ENDBRANCH  19  20
ENDBRANCH   3  19
TORSDOF 6
ENDMDL
MODEL 6
REMARK VINA RESULT:      -8.0      2.657      3.451
REMARK  Name = 
REMARK  6 active torsions:
REMARK  status: ('A' for Active; 'I' for Inactive)
REMARK    1  A    between atoms: C_2  and  C_15
REMARK    2  A    between atoms: N_3  and  C_4
REMARK    3  A    between atoms: C_4  and  C_5
REMARK    4  A    between atoms: C_5  and  C_6
REMARK    5  A    between atoms: C_18  and  O_19
REMARK    6  A    between atoms: O_19  and  C_20
REMARK                            x       y       z     vdW  Elec       q    Type
REMARK                         _______ _______ _______ _____ _____    ______ ____
ROOT
ATOM      1  O   UNL     1       2.856   4.684  17.845  0.00  0.00    +0.000 OA
ATOM      2  C   UNL     1       3.448   5.585  18.439  0.00  0.00    +0.000 C 
ATOM      3  N   UNL     1       4.768   5.529  18.785  0.00  0.00    +0.000 N 
ATOM      4  H   UNL     1       5.118   6.157  19.510  0.00  0.00    +0.000 HD
ENDROOT
BRANCH   2   5
ATOM      5  C   UNL     1       2.712   6.807  18.852  0.00  0.00    +0.000 A 
ATOM      6  C   UNL     1       2.154   6.843  20.132  0.00  0.00    +0.000 A 
ATOM      7  C   UNL     1       1.455   7.972  20.555  0.00  0.00    +0.000 A 
ATOM      8  C   UNL     1       1.343   9.089  19.718  0.00  0.00    +0.000 A 
ATOM      9  C   UNL     1       1.875   9.033  18.426  0.00  0.00    +0.000 A 
ATOM     10  C   UNL     1       2.549   7.893  17.986  0.00  0.00    +0.000 A 
BRANCH   8  11
ATOM     11  O   UNL     1       0.667  10.247  20.033  0.00  0.00    +0.000 OA
BRANCH  11  12
ATOM     12  C   UNL     1      -0.345  10.709  19.224  0.00  0.00    +0.000 A 
ATOM     13  C   UNL     1      -0.411  12.014  18.728  0.00  0.00    +0.000 A 
ATOM     14  C   UNL     1      -1.476  12.408  17.922  0.00  0.00    +0.000 A 
ATOM     15  C   UNL     1      -2.436  11.472  17.559  0.00  0.00    +0.000 A 
ATOM     16  F   UNL     1      -3.446  11.848  16.764  0.00  0.00    +0.000 F 
ATOM     17  C   UNL     1      -2.358  10.155  17.998  0.00  0.00    +0.000 A 
ATOM     18  C   UNL     1      -1.310   9.772  18.837  0.00  0.00    +0.000 A 
ENDBRANCH  11  12
ENDBRANCH   8  11
ENDBRANCH   2   5
BRANCH   3  19
ATOM     19  C   UNL     1       5.585   4.367  18.486  0.00  0.00    +0.000 C 
BRANCH  19  20
ATOM     20  C   UNL     1       6.889   4.732  17.774  0.00  0.00    +0.000 C 
BRANCH  20  21
ATOM     21  C   UNL     1       6.789   4.580  16.292  0.00  0.00    +0.000 A 
ATOM     22  N   UNL     1       5.966   3.781  15.637  0.00  0.00    +0.000 NA
ATOM     23  C   UNL     1       6.272   3.945  14.307  0.00  0.00    +0.000 A 
ATOM     24  C   UNL     1       5.721   3.328  13.175  0.00  0.00    +0.000 A 
ATOM     25  C   UNL     1       6.228   3.667  11.913  0.00  0.00    +0.000 A 
ATOM     26  C   UNL     1       7.259   4.601  11.782  0.00  0.00    +0.000 A 
ATOM     27  C   UNL     1       7.816   5.231  12.901  0.00  0.00    +0.000 A 
ATOM     28  C   UNL     1       7.292   4.873  14.146  0.00  0.00    +0.000 A 
ATOM     29  N   UNL     1       7.594   5.273  15.421  0.00  0.00    +0.000 N 
ATOM     30  H   UNL     1       8.304   5.943  15.676  0.00  0.00    +0.000 HD
ENDBRANCH  20  21
ENDBRANCH  19  20
ENDBRANCH   3  19
TORSDOF 6
ENDMDL
MODEL 7
REMARK VINA RESULT:      -8.0      0.878      1.425
REMARK  Name = 
REMARK  6 active torsions:
REMARK  status: ('A' for Active; 'I' for Inactive)
REMARK    1  A    between atoms: C_2  and  C_15
REMARK    2  A    between atoms: N_3  and  C_4
REMARK    3  A    between atoms: C_4  and  C_5
REMARK    4  A    between atoms: C_5  and  C_6
REMARK    5  A    between atoms: C_18  and  O_19
REMARK    6  A    between atoms: O_19  and  C_20
REMARK                            x       y       z     vdW  Elec       q    Type
REMARK                         _______ _______ _______ _____ _____    ______ ____
ROOT
ATOM      1  O   UNL     1       2.771   4.734  20.811  0.00  0.00    +0.000 OA
ATOM      2  C   UNL     1       2.358   5.158  19.732  0.00  0.00    +0.000 C 
ATOM      3  N   UNL     1       2.170   4.375  18.629  0.00  0.00    +0.000 N 
ATOM      4  H   UNL     1       2.109   4.818  17.711  0.00  0.00    +0.000 HD
ENDROOT
BRANCH   2   5
ATOM      5  C   UNL     1       2.068   6.604  19.568  0.00  0.00    +0.000 A 
ATOM      6  C   UNL     1       1.488   7.289  20.638  0.00  0.00    +0.000 A 
ATOM      7  C   UNL     1       1.198   8.648  20.521  0.00  0.00    +0.000 A 
ATOM      8  C   UNL     1       1.523   9.341  19.349  0.00  0.00    +0.000 A 
ATOM      9  C   UNL     1       2.072   8.642  18.269  0.00  0.00    +0.000 A 
ATOM     10  C   UNL     1       2.336   7.276  18.370  0.00  0.00    +0.000 A 
BRANCH   8  11
ATOM     11  O   UNL     1       1.271  10.677  19.126  0.00  0.00    +0.000 OA
BRANCH  11  12
ATOM     12  C   UNL     1       0.161  11.280  19.669  0.00  0.00    +0.000 A 
ATOM     13  C   UNL     1      -1.107  11.251  19.081  0.00  0.00    +0.000 A 
ATOM     14  C   UNL     1      -2.180  11.896  19.690  0.00  0.00    +0.000 A 
ATOM     15  C   UNL     1      -1.993  12.510  20.922  0.00  0.00    +0.000 A 
ATOM     16  F   UNL     1      -3.033  13.110  21.516  0.00  0.00    +0.000 F 
ATOM     17  C   UNL     1      -0.752  12.503  21.549  0.00  0.00    +0.000 A 
ATOM     18  C   UNL     1       0.331  11.888  20.919  0.00  0.00    +0.000 A 
ENDBRANCH  11  12
ENDBRANCH   8  11
ENDBRANCH   2   5
BRANCH   3  19
ATOM     19  C   UNL     1       2.469   2.955  18.642  0.00  0.00    +0.000 C 
BRANCH  19  20
ATOM     20  C   UNL     1       3.801   2.628  17.966  0.00  0.00    +0.000 C 
BRANCH  20  21
ATOM     21  C   UNL     1       4.741   3.789  17.969  0.00  0.00    +0.000 A 
ATOM     22  N   UNL     1       4.748   4.798  17.116  0.00  0.00    +0.000 NA
ATOM     23  C   UNL     1       5.814   5.584  17.483  0.00  0.00    +0.000 A 
ATOM     24  C   UNL     1       6.294   6.771  16.912  0.00  0.00    +0.000 A 
ATOM     25  C   UNL     1       7.423   7.379  17.478  0.00  0.00    +0.000 A 
ATOM     26  C   UNL     1       8.057   6.818  18.589  0.00  0.00    +0.000 A 
ATOM     27  C   UNL     1       7.587   5.638  19.177  0.00  0.00    +0.000 A 
ATOM     28  C   UNL     1       6.462   5.053  18.590  0.00  0.00    +0.000 A 
ATOM     29  N   UNL     1       5.752   3.919  18.889  0.00  0.00    +0.000 N 
ATOM     30  H   UNL     1       5.955   3.278  19.642  0.00  0.00    +0.000 HD
ENDBRANCH  20  21
ENDBRANCH  19  20
ENDBRANCH   3  19
TORSDOF 6
ENDMDL
MODEL 8
REMARK VINA RESULT:      -7.9      1.085      1.353
REMARK  Name = 
REMARK  6 active torsions:
REMARK  status: ('A' for Active; 'I' for Inactive)
REMARK    1  A    between atoms: C_2  and  C_15
REMARK    2  A    between atoms: N_3  and  C_4
REMARK    3  A    between atoms: C_4  and  C_5
REMARK    4  A    between atoms: C_5  and  C_6
REMARK    5  A    between atoms: C_18  and  O_19
REMARK    6  A    between atoms: O_19  and  C_20
REMARK                            x       y       z     vdW  Elec       q    Type
REMARK                         _______ _______ _______ _____ _____    ______ ____
ROOT
ATOM      1  O   UNL     1       2.525   4.762  21.579  0.00  0.00    +0.000 OA
ATOM      2  C   UNL     1       2.177   4.984  20.420  0.00  0.00    +0.000 C 
ATOM      3  N   UNL     1       2.014   4.010  19.476  0.00  0.00    +0.000 N 
ATOM      4  H   UNL     1       2.010   4.272  18.489  0.00  0.00    +0.000 HD
ENDROOT
BRANCH   2   5
ATOM      5  C   UNL     1       1.943   6.379  19.971  0.00  0.00    +0.000 A 
ATOM      6  C   UNL     1       2.371   6.745  18.693  0.00  0.00    +0.000 A 
ATOM      7  C   UNL     1       2.171   8.047  18.237  0.00  0.00    +0.000 A 
ATOM      8  C   UNL     1       1.504   8.982  19.039  0.00  0.00    +0.000 A 
ATOM      9  C   UNL     1       1.109   8.619  20.330  0.00  0.00    +0.000 A 
ATOM     10  C   UNL     1       1.334   7.325  20.803  0.00  0.00    +0.000 A 
BRANCH   8  11
ATOM     11  O   UNL     1       1.265  10.293  18.690  0.00  0.00    +0.000 OA
BRANCH  11  12
ATOM     12  C   UNL     1      -0.016  10.794  18.689  0.00  0.00    +0.000 A 
ATOM     13  C   UNL     1      -1.083  10.200  18.007  0.00  0.00    +0.000 A 
ATOM     14  C   UNL     1      -2.350  10.775  18.046  0.00  0.00    +0.000 A 
ATOM     15  C   UNL     1      -2.559  11.907  18.825  0.00  0.00    +0.000 A 
ATOM     16  F   UNL     1      -3.785  12.444  18.879  0.00  0.00    +0.000 F 
ATOM     17  C   UNL     1      -1.523  12.480  19.553  0.00  0.00    +0.000 A 
ATOM     18  C   UNL     1      -0.245  11.924  19.482  0.00  0.00    +0.000 A 
ENDBRANCH  11  12
ENDBRANCH   8  11
ENDBRANCH   2   5
BRANCH   3  19
ATOM     19  C   UNL     1       2.263   2.612  19.772  0.00  0.00    +0.000 C 
BRANCH  19  20
ATOM     20  C   UNL     1       3.739   2.235  19.633  0.00  0.00    +0.000 C 
BRANCH  20  21
ATOM     21  C   UNL     1       4.436   3.040  18.585  0.00  0.00    +0.000 A 
ATOM     22  N   UNL     1       4.040   3.217  17.337  0.00  0.00    +0.000 NA
ATOM     23  C   UNL     1       5.017   3.980  16.744  0.00  0.00    +0.000 A 
ATOM     24  C   UNL     1       5.117   4.449  15.427  0.00  0.00    +0.000 A 
ATOM     25  C   UNL     1       6.239   5.208  15.068  0.00  0.00    +0.000 A 
ATOM     26  C   UNL     1       7.237   5.497  16.002  0.00  0.00    +0.000 A 
ATOM     27  C   UNL     1       7.150   5.043  17.323  0.00  0.00    +0.000 A 
ATOM     28  C   UNL     1       6.022   4.287  17.652  0.00  0.00    +0.000 A 
ATOM     29  N   UNL     1       5.622   3.690  18.819  0.00  0.00    +0.000 N 
ATOM     30  H   UNL     1       6.128   3.706  19.692  0.00  0.00    +0.000 HD
ENDBRANCH  20  21
ENDBRANCH  19  20
ENDBRANCH   3  19
TORSDOF 6
ENDMDL
MODEL 9
REMARK VINA RESULT:      -7.9      1.894      3.550
REMARK  Name = 
REMARK  6 active torsions:
REMARK  status: ('A' for Active; 'I' for Inactive)
REMARK    1  A    between atoms: C_2  and  C_15
REMARK    2  A    between atoms: N_3  and  C_4
REMARK    3  A    between atoms: C_4  and  C_5
REMARK    4  A    between atoms: C_5  and  C_6
REMARK    5  A    between atoms: C_18  and  O_19
REMARK    6  A    between atoms: O_19  and  C_20
REMARK                            x       y       z     vdW  Elec       q    Type
REMARK                         _______ _______ _______ _____ _____    ______ ____
ROOT
ATOM      1  O   UNL     1       5.351   6.167  18.628  0.00  0.00    +0.000 OA
ATOM      2  C   UNL     1       4.392   6.405  17.895  0.00  0.00    +0.000 C 
ATOM      3  N   UNL     1       4.250   5.891  16.638  0.00  0.00    +0.000 N 
ATOM      4  H   UNL     1       3.604   6.342  15.988  0.00  0.00    +0.000 HD
ENDROOT
BRANCH   2   5
ATOM      5  C   UNL     1       3.321   7.325  18.353  0.00  0.00    +0.000 A 
ATOM      6  C   UNL     1       3.048   8.458  17.583  0.00  0.00    +0.000 A 
ATOM      7  C   UNL     1       2.050   9.347  17.982  0.00  0.00    +0.000 A 
ATOM      8  C   UNL     1       1.292   9.089  19.131  0.00  0.00    +0.000 A 
ATOM      9  C   UNL     1       1.594   7.972  19.915  0.00  0.00    +0.000 A 
ATOM     10  C   UNL     1       2.612   7.095  19.537  0.00  0.00    +0.000 A 
BRANCH   8  11
ATOM     11  O   UNL     1       0.294   9.905  19.617  0.00  0.00    +0.000 OA
BRANCH  11  12
ATOM     12  C   UNL     1      -0.741  10.305  18.805  0.00  0.00    +0.000 A 
ATOM     13  C   UNL     1      -1.076   9.674  17.604  0.00  0.00    +0.000 A 
ATOM     14  C   UNL     1      -2.134  10.147  16.831  0.00  0.00    +0.000 A 
ATOM     15  C   UNL     1      -2.895  11.211  17.301  0.00  0.00    +0.000 A 
ATOM     16  F   UNL     1      -3.926  11.648  16.566  0.00  0.00    +0.000 F 
ATOM     17  C   UNL     1      -2.611  11.816  18.519  0.00  0.00    +0.000 A 
ATOM     18  C   UNL     1      -1.527  11.364  19.274  0.00  0.00    +0.000 A 
ENDBRANCH  11  12
ENDBRANCH   8  11
ENDBRANCH   2   5
BRANCH   3  19
ATOM     19  C   UNL     1       5.253   5.021  16.052  0.00  0.00    +0.000 C 
BRANCH  19  20
ATOM     20  C   UNL     1       4.958   3.539  16.290  0.00  0.00    +0.000 C 
BRANCH  20  21
ATOM     21  C   UNL     1       4.050   3.320  17.455  0.00  0.00    +0.000 A 
ATOM     22  N   UNL     1       2.731   3.405  17.452  0.00  0.00    +0.000 NA
ATOM     23  C   UNL     1       2.343   3.174  18.750  0.00  0.00    +0.000 A 
ATOM     24  C   UNL     1       1.061   3.162  19.316  0.00  0.00    +0.000 A 
ATOM     25  C   UNL     1       0.936   2.910  20.689  0.00  0.00    +0.000 A 
ATOM     26  C   UNL     1       2.064   2.673  21.479  0.00  0.00    +0.000 A 
ATOM     27  C   UNL     1       3.351   2.674  20.930  0.00  0.00    +0.000 A 
ATOM     28  C   UNL     1       3.445   2.930  19.559  0.00  0.00    +0.000 A 
ATOM     29  N   UNL     1       4.517   3.014  18.709  0.00  0.00    +0.000 N 
ATOM     30  H   UNL     1       5.485   2.896  18.970  0.00  0.00    +0.000 HD
ENDBRANCH  20  21
ENDBRANCH  19  20
ENDBRANCH   3  19
TORSDOF 6
ENDMDL
