MODEL 1
REMARK VINA RESULT:      -8.7      0.000      0.000
REMARK  Name = 
REMARK  6 active torsions:
REMARK  status: ('A' for Active; 'I' for Inactive)
REMARK    1  A    between atoms: C_1  and  N_2
REMARK    2  A    between atoms: N_2  and  C_3
REMARK    3  A    between atoms: N_2  and  C_4
REMARK    4  A    between atoms: C_4  and  C_5
REMARK    5  A    between atoms: C_5  and  N_6
REMARK    6  A    between atoms: C_7  and  C_9
REMARK                            x       y       z     vdW  Elec       q    Type
REMARK                         _______ _______ _______ _____ _____    ______ ____
ROOT
ATOM      1  N   UNL     1       2.752   6.768  19.060  0.00  0.00    +0.000 N 
ATOM      2  C   UNL     1       1.926   7.559  19.835  0.00  0.00    +0.000 C 
ATOM      3  O   UNL     1       1.526   7.227  20.943  0.00  0.00    +0.000 OA
ATOM      4  H   UNL     1       3.234   7.180  18.273  0.00  0.00    +0.000 HD
ENDROOT
BRANCH   2   5
ATOM      5  C   UNL     1       1.585   8.843  19.229  0.00  0.00    +0.000 A 
ATOM      6  C   UNL     1       1.958   9.278  17.963  0.00  0.00    +0.000 A 
ATOM      7  N   UNL     1       1.417  10.519  17.750  0.00  0.00    +0.000 N 
ATOM      8  C   UNL     1       0.714  10.913  18.851  0.00  0.00    +0.000 A 
ATOM      9  N   UNL     1       0.086  12.098  18.957  0.00  0.00    +0.000 NA
ATOM     10  C   UNL     1      -0.529  12.258  20.155  0.00  0.00    +0.000 A 
ATOM     11  C   UNL     1      -0.543  11.326  21.186  0.00  0.00    +0.000 A 
ATOM     12 BR   UNL     1      -1.416  11.719  22.813  0.00  0.00    +0.000 Br
ATOM     13  C   UNL     1       0.113  10.105  21.016  0.00  0.00    +0.000 A 
ATOM     14  C   UNL     1       0.779   9.891  19.794  0.00  0.00    +0.000 A 
ATOM     15  H   UNL     1       1.507  11.082  16.917  0.00  0.00    +0.000 HD
ENDBRANCH   2   5
BRANCH   1  16
ATOM     16  C   UNL     1       3.155   5.440  19.493  0.00  0.00    +0.000 C 
BRANCH  16  17
ATOM     17  C   UNL     1       3.831   4.558  18.360  0.00  0.00    +0.000 C 
ATOM     18  C   UNL     1       4.216   5.530  17.185  0.00  0.00    +0.000 C 
ATOM     19  C   UNL     1       5.566   6.033  17.604  0.00  0.00    +0.000 A 
ATOM     20  C   UNL     1       6.256   7.130  17.118  0.00  0.00    +0.000 A 
ATOM     21  C   UNL     1       7.503   7.428  17.674  0.00  0.00    +0.000 A 
ATOM     22  C   UNL     1       8.048   6.622  18.686  0.00  0.00    +0.000 A 
ATOM     23  C   UNL     1       7.361   5.499  19.145  0.00  0.00    +0.000 A 
ATOM     24  C   UNL     1       6.120   5.223  18.600  0.00  0.00    +0.000 A 
ATOM     25  C   UNL     1       5.218   4.072  18.922  0.00  0.00    +0.000 C 
BRANCH  17  27
ATOM     26  C   UNL     1       3.482   2.103  18.373  0.00  0.00    +0.000 C 
ATOM     27  N   UNL     1       2.939   3.411  17.970  0.00  0.00    +0.000 NA
ATOM     28  C   UNL     1       1.568   3.498  18.496  0.00  0.00    +0.000 C 
ENDBRANCH  17  27
ENDBRANCH  16  17
ENDBRANCH   1  16
TORSDOF 4
ENDMDL
MODEL 2
REMARK VINA RESULT:      -8.5      2.424      2.929
REMARK  Name = 
REMARK  6 active torsions:
REMARK  status: ('A' for Active; 'I' for Inactive)
REMARK    1  A    between atoms: C_1  and  N_2
REMARK    2  A    between atoms: N_2  and  C_3
REMARK    3  A    between atoms: N_2  and  C_4
REMARK    4  A    between atoms: C_4  and  C_5
REMARK    5  A    between atoms: C_5  and  N_6
REMARK    6  A    between atoms: C_7  and  C_9
REMARK                            x       y       z     vdW  Elec       q    Type
REMARK                         _______ _______ _______ _____ _____    ______ ____
ROOT
ATOM      1  N   UNL     1       2.061   7.741  18.716  0.00  0.00    +0.000 N 
ATOM      2  C   UNL     1       1.780   9.010  18.250  0.00  0.00    +0.000 C 
ATOM      3  O   UNL     1       2.295   9.484  17.246  0.00  0.00    +0.000 OA
ATOM      4  H   UNL     1       1.446   7.317  19.398  0.00  0.00    +0.000 HD
ENDROOT
BRANCH   2   5
ATOM      5  C   UNL     1       0.794   9.736  19.046  0.00  0.00    +0.000 A 
ATOM      6  C   UNL     1       0.916  10.083  20.386  0.00  0.00    +0.000 A 
ATOM      7  N   UNL     1      -0.201  10.784  20.759  0.00  0.00    +0.000 N 
ATOM      8  C   UNL     1      -1.057  10.889  19.702  0.00  0.00    +0.000 A 
ATOM      9  N   UNL     1      -2.254  11.501  19.761  0.00  0.00    +0.000 NA
ATOM     10  C   UNL     1      -2.922  11.457  18.583  0.00  0.00    +0.000 A 
ATOM     11  C   UNL     1      -2.459  10.865  17.413  0.00  0.00    +0.000 A 
ATOM     12 BR   UNL     1      -3.532  10.857  15.860  0.00  0.00    +0.000 Br
ATOM     13  C   UNL     1      -1.202  10.256  17.403  0.00  0.00    +0.000 A 
ATOM     14  C   UNL     1      -0.469  10.262  18.606  0.00  0.00    +0.000 A 
ATOM     15  H   UNL     1      -0.393  11.175  21.670  0.00  0.00    +0.000 HD
ENDBRANCH   2   5
BRANCH   1  16
ATOM     16  C   UNL     1       3.051   6.896  18.068  0.00  0.00    +0.000 C 
BRANCH  16  17
ATOM     17  C   UNL     1       3.126   5.417  18.639  0.00  0.00    +0.000 C 
ATOM     18  C   UNL     1       3.332   4.456  17.411  0.00  0.00    +0.000 C 
ATOM     19  C   UNL     1       4.822   4.466  17.234  0.00  0.00    +0.000 A 
ATOM     20  C   UNL     1       5.553   4.046  16.136  0.00  0.00    +0.000 A 
ATOM     21  C   UNL     1       6.944   4.166  16.180  0.00  0.00    +0.000 A 
ATOM     22  C   UNL     1       7.583   4.683  17.318  0.00  0.00    +0.000 A 
ATOM     23  C   UNL     1       6.841   5.073  18.432  0.00  0.00    +0.000 A 
ATOM     24  C   UNL     1       5.464   4.966  18.371  0.00  0.00    +0.000 A 
ATOM     25  C   UNL     1       4.474   5.302  19.443  0.00  0.00    +0.000 C 
BRANCH  17  27
ATOM     26  C   UNL     1       1.222   3.888  19.071  0.00  0.00    +0.000 C 
ATOM     27  N   UNL     1       1.925   5.111  19.492  0.00  0.00    +0.000 NA
ATOM     28  C   UNL     1       2.216   4.977  20.929  0.00  0.00    +0.000 C 
ENDBRANCH  17  27
ENDBRANCH  16  17
ENDBRANCH   1  16
TORSDOF 4
ENDMDL
MODEL 3
REMARK VINA RESULT:      -8.4      2.034      3.998
REMARK  Name = 
REMARK  6 active torsions:
REMARK  status: ('A' for Active; 'I' for Inactive)
REMARK    1  A    between atoms: C_1  and  N_2
REMARK    2  A    between atoms: N_2  and  C_3
REMARK    3  A    between atoms: N_2  and  C_4
REMARK    4  A    between atoms: C_4  and  C_5
REMARK    5  A    between atoms: C_5  and  N_6
REMARK    6  A    between atoms: C_7  and  C_9
REMARK                            x       y       z     vdW  Elec       q    Type
REMARK                         _______ _______ _______ _____ _____    ______ ____
ROOT
ATOM      1  N   UNL     1       2.885   7.256  18.646  0.00  0.00    +0.000 N 
ATOM      2  C   UNL     1       2.090   8.373  18.474  0.00  0.00    +0.000 C 
ATOM      3  O   UNL     1       1.871   8.877  17.380  0.00  0.00    +0.000 OA
ATOM      4  H   UNL     1       2.843   6.750  19.520  0.00  0.00    +0.000 HD
ENDROOT
BRANCH   2   5
ATOM      5  C   UNL     1       1.510   8.892  19.710  0.00  0.00    +0.000 A 
ATOM      6  C   UNL     1       1.374   8.199  20.906  0.00  0.00    +0.000 A 
ATOM      7  N   UNL     1       0.815   9.038  21.835  0.00  0.00    +0.000 N 
ATOM      8  C   UNL     1       0.567  10.255  21.271  0.00  0.00    +0.000 A 
ATOM      9  N   UNL     1      -0.002  11.285  21.924  0.00  0.00    +0.000 NA
ATOM     10  C   UNL     1      -0.155  12.380  21.140  0.00  0.00    +0.000 A 
ATOM     11  C   UNL     1       0.227  12.479  19.807  0.00  0.00    +0.000 A 
ATOM     12 BR   UNL     1      -0.092  14.069  18.841  0.00  0.00    +0.000 Br
ATOM     13  C   UNL     1       0.828  11.384  19.182  0.00  0.00    +0.000 A 
ATOM     14  C   UNL     1       1.000  10.214  19.948  0.00  0.00    +0.000 A 
ATOM     15  H   UNL     1       0.605   8.819  22.798  0.00  0.00    +0.000 HD
ENDBRANCH   2   5
BRANCH   1  16
ATOM     16  C   UNL     1       3.575   6.636  17.527  0.00  0.00    +0.000 C 
BRANCH  16  17
ATOM     17  C   UNL     1       4.434   5.359  17.913  0.00  0.00    +0.000 C 
ATOM     18  C   UNL     1       4.324   5.180  19.471  0.00  0.00    +0.000 C 
ATOM     19  C   UNL     1       3.063   4.381  19.622  0.00  0.00    +0.000 A 
ATOM     20  C   UNL     1       2.310   4.183  20.767  0.00  0.00    +0.000 A 
ATOM     21  C   UNL     1       1.149   3.412  20.671  0.00  0.00    +0.000 A 
ATOM     22  C   UNL     1       0.768   2.838  19.448  0.00  0.00    +0.000 A 
ATOM     23  C   UNL     1       1.550   3.016  18.307  0.00  0.00    +0.000 A 
ATOM     24  C   UNL     1       2.688   3.795  18.409  0.00  0.00    +0.000 A 
ATOM     25  C   UNL     1       3.681   4.105  17.331  0.00  0.00    +0.000 C 
BRANCH  17  27
ATOM     26  C   UNL     1       6.853   5.462  18.449  0.00  0.00    +0.000 C 
ATOM     27  N   UNL     1       5.838   5.477  17.384  0.00  0.00    +0.000 NA
ATOM     28  C   UNL     1       6.210   4.440  16.408  0.00  0.00    +0.000 C 
ENDBRANCH  17  27
ENDBRANCH  16  17
ENDBRANCH   1  16
TORSDOF 4
ENDMDL
MODEL 4
REMARK VINA RESULT:      -8.3      1.006      1.074
REMARK  Name = 
REMARK  6 active torsions:
REMARK  status: ('A' for Active; 'I' for Inactive)
REMARK    1  A    between atoms: C_1  and  N_2
REMARK    2  A    between atoms: N_2  and  C_3
REMARK    3  A    between atoms: N_2  and  C_4
REMARK    4  A    between atoms: C_4  and  C_5
REMARK    5  A    between atoms: C_5  and  N_6
REMARK    6  A    between atoms: C_7  and  C_9
REMARK                            x       y       z     vdW  Elec       q    Type
REMARK                         _______ _______ _______ _____ _____    ______ ____
ROOT
ATOM      1  N   UNL     1       2.114   7.474  19.449  0.00  0.00    +0.000 N 
ATOM      2  C   UNL     1       1.533   8.400  20.292  0.00  0.00    +0.000 C 
ATOM      3  O   UNL     1       1.545   8.297  21.512  0.00  0.00    +0.000 OA
ATOM      4  H   UNL     1       2.279   7.721  18.483  0.00  0.00    +0.000 HD
ENDROOT
BRANCH   2   5
ATOM      5  C   UNL     1       0.918   9.534  19.605  0.00  0.00    +0.000 A 
ATOM      6  C   UNL     1       1.121   9.898  18.280  0.00  0.00    +0.000 A 
ATOM      7  N   UNL     1       0.344  10.992  18.004  0.00  0.00    +0.000 N 
ATOM      8  C   UNL     1      -0.349  11.362  19.120  0.00  0.00    +0.000 A 
ATOM      9  N   UNL     1      -1.180  12.419  19.173  0.00  0.00    +0.000 NA
ATOM     10  C   UNL     1      -1.735  12.586  20.398  0.00  0.00    +0.000 A 
ATOM     11  C   UNL     1      -1.508  11.776  21.505  0.00  0.00    +0.000 A 
ATOM     12 BR   UNL     1      -2.333  12.168  23.157  0.00  0.00    +0.000 Br
ATOM     13  C   UNL     1      -0.646  10.683  21.390  0.00  0.00    +0.000 A 
ATOM     14  C   UNL     1      -0.032  10.470  20.141  0.00  0.00    +0.000 A 
ATOM     15  H   UNL     1       0.273  11.475  17.120  0.00  0.00    +0.000 HD
ENDBRANCH   2   5
BRANCH   1  16
ATOM     16  C   UNL     1       2.733   6.263  19.963  0.00  0.00    +0.000 C 
BRANCH  16  17
ATOM     17  C   UNL     1       3.054   5.171  18.857  0.00  0.00    +0.000 C 
ATOM     18  C   UNL     1       3.525   5.940  17.569  0.00  0.00    +0.000 C 
ATOM     19  C   UNL     1       4.993   6.126  17.816  0.00  0.00    +0.000 A 
ATOM     20  C   UNL     1       5.864   6.989  17.172  0.00  0.00    +0.000 A 
ATOM     21  C   UNL     1       7.199   7.011  17.584  0.00  0.00    +0.000 A 
ATOM     22  C   UNL     1       7.648   6.165  18.610  0.00  0.00    +0.000 A 
ATOM     23  C   UNL     1       6.771   5.275  19.229  0.00  0.00    +0.000 A 
ATOM     24  C   UNL     1       5.448   5.274  18.827  0.00  0.00    +0.000 A 
ATOM     25  C   UNL     1       4.341   4.400  19.332  0.00  0.00    +0.000 C 
BRANCH  17  27
ATOM     26  C   UNL     1       2.239   3.017  17.937  0.00  0.00    +0.000 C 
ATOM     27  N   UNL     1       1.881   4.251  18.655  0.00  0.00    +0.000 NA
ATOM     28  C   UNL     1       1.197   3.853  19.896  0.00  0.00    +0.000 C 
ENDBRANCH  17  27
ENDBRANCH  16  17
ENDBRANCH   1  16
TORSDOF 4
ENDMDL
MODEL 5
REMARK VINA RESULT:      -8.3      1.091      1.308
REMARK  Name = 
REMARK  6 active torsions:
REMARK  status: ('A' for Active; 'I' for Inactive)
REMARK    1  A    between atoms: C_1  and  N_2
REMARK    2  A    between atoms: N_2  and  C_3
REMARK    3  A    between atoms: N_2  and  C_4
REMARK    4  A    between atoms: C_4  and  C_5
REMARK    5  A    between atoms: C_5  and  N_6
REMARK    6  A    between atoms: C_7  and  C_9
REMARK                            x       y       z     vdW  Elec       q    Type
REMARK                         _______ _______ _______ _____ _____    ______ ____
ROOT
ATOM      1  N   UNL     1       2.865   6.595  19.593  0.00  0.00    +0.000 N 
ATOM      2  C   UNL     1       1.857   7.379  20.121  0.00  0.00    +0.000 C 
ATOM      3  O   UNL     1       1.238   7.082  21.134  0.00  0.00    +0.000 OA
ATOM      4  H   UNL     1       3.492   6.992  18.907  0.00  0.00    +0.000 HD
ENDROOT
BRANCH   2   5
ATOM      5  C   UNL     1       1.605   8.611  19.378  0.00  0.00    +0.000 A 
ATOM      6  C   UNL     1       1.997   8.876  18.071  0.00  0.00    +0.000 A 
ATOM      7  N   UNL     1       1.546  10.123  17.724  0.00  0.00    +0.000 N 
ATOM      8  C   UNL     1       0.883  10.685  18.776  0.00  0.00    +0.000 A 
ATOM      9  N   UNL     1       0.343  11.917  18.753  0.00  0.00    +0.000 NA
ATOM     10  C   UNL     1      -0.247  12.252  19.926  0.00  0.00    +0.000 A 
ATOM     11  C   UNL     1      -0.320  11.441  21.054  0.00  0.00    +0.000 A 
ATOM     12 BR   UNL     1      -1.147  12.072  22.628  0.00  0.00    +0.000 Br
ATOM     13  C   UNL     1       0.244  10.164  21.018  0.00  0.00    +0.000 A 
ATOM     14  C   UNL     1       0.882   9.770  19.826  0.00  0.00    +0.000 A 
ATOM     15  H   UNL     1       1.669  10.584  16.835  0.00  0.00    +0.000 HD
ENDBRANCH   2   5
BRANCH   1  16
ATOM     16  C   UNL     1       3.218   5.314  20.183  0.00  0.00    +0.000 C 
BRANCH  16  17
ATOM     17  C   UNL     1       3.203   4.098  19.165  0.00  0.00    +0.000 C 
ATOM     18  C   UNL     1       3.032   4.701  17.723  0.00  0.00    +0.000 C 
ATOM     19  C   UNL     1       4.444   5.018  17.329  0.00  0.00    +0.000 A 
ATOM     20  C   UNL     1       4.881   5.833  16.299  0.00  0.00    +0.000 A 
ATOM     21  C   UNL     1       6.257   6.002  16.126  0.00  0.00    +0.000 A 
ATOM     22  C   UNL     1       7.171   5.345  16.963  0.00  0.00    +0.000 A 
ATOM     23  C   UNL     1       6.723   4.499  17.977  0.00  0.00    +0.000 A 
ATOM     24  C   UNL     1       5.359   4.353  18.151  0.00  0.00    +0.000 A 
ATOM     25  C   UNL     1       4.655   3.490  19.153  0.00  0.00    +0.000 C 
BRANCH  17  27
ATOM     26  C   UNL     1       1.444   3.448  20.788  0.00  0.00    +0.000 C 
ATOM     27  N   UNL     1       2.164   3.083  19.557  0.00  0.00    +0.000 NA
ATOM     28  C   UNL     1       1.153   2.814  18.522  0.00  0.00    +0.000 C 
ENDBRANCH  17  27
ENDBRANCH  16  17
ENDBRANCH   1  16
TORSDOF 4
ENDMDL
MODEL 6
REMARK VINA RESULT:      -8.2      2.056      4.015
REMARK  Name = 
REMARK  6 active torsions:
REMARK  status: ('A' for Active; 'I' for Inactive)
REMARK    1  A    between atoms: C_1  and  N_2
REMARK    2  A    between atoms: N_2  and  C_3
REMARK    3  A    between atoms: N_2  and  C_4
REMARK    4  A    between atoms: C_4  and  C_5
REMARK    5  A    between atoms: C_5  and  N_6
REMARK    6  A    between atoms: C_7  and  C_9
REMARK                            x       y       z     vdW  Elec       q    Type
REMARK                         _______ _______ _______ _____ _____    ______ ____
ROOT
ATOM      1  N   UNL     1       3.367   6.715  18.404  0.00  0.00    +0.000 N 
ATOM      2  C   UNL     1       2.621   7.862  18.220  0.00  0.00    +0.000 C 
ATOM      3  O   UNL     1       2.599   8.484  17.166  0.00  0.00    +0.000 OA
ATOM      4  H   UNL     1       3.171   6.120  19.198  0.00  0.00    +0.000 HD
ENDROOT
BRANCH   2   5
ATOM      5  C   UNL     1       1.838   8.262  19.386  0.00  0.00    +0.000 A 
ATOM      6  C   UNL     1       1.679   7.532  20.557  0.00  0.00    +0.000 A 
ATOM      7  N   UNL     1       0.901   8.257  21.422  0.00  0.00    +0.000 N 
ATOM      8  C   UNL     1       0.534   9.435  20.839  0.00  0.00    +0.000 A 
ATOM      9  N   UNL     1      -0.253  10.353  21.428  0.00  0.00    +0.000 NA
ATOM     10  C   UNL     1      -0.485  11.428  20.637  0.00  0.00    +0.000 A 
ATOM     11  C   UNL     1       0.020  11.612  19.355  0.00  0.00    +0.000 A 
ATOM     12 BR   UNL     1      -0.430  13.155  18.366  0.00  0.00    +0.000 Br
ATOM     13  C   UNL     1       0.845  10.633  18.796  0.00  0.00    +0.000 A 
ATOM     14  C   UNL     1       1.109   9.487  19.571  0.00  0.00    +0.000 A 
ATOM     15  H   UNL     1       0.623   7.988  22.354  0.00  0.00    +0.000 HD
ENDBRANCH   2   5
BRANCH   1  16
ATOM     16  C   UNL     1       4.238   6.199  17.361  0.00  0.00    +0.000 C 
BRANCH  16  17
ATOM     17  C   UNL     1       5.091   4.930  17.786  0.00  0.00    +0.000 C 
ATOM     18  C   UNL     1       4.815   4.676  19.313  0.00  0.00    +0.000 C 
ATOM     19  C   UNL     1       3.572   3.836  19.287  0.00  0.00    +0.000 A 
ATOM     20  C   UNL     1       2.704   3.563  20.330  0.00  0.00    +0.000 A 
ATOM     21  C   UNL     1       1.587   2.765  20.071  0.00  0.00    +0.000 A 
ATOM     22  C   UNL     1       1.364   2.238  18.790  0.00  0.00    +0.000 A 
ATOM     23  C   UNL     1       2.261   2.490  17.753  0.00  0.00    +0.000 A 
ATOM     24  C   UNL     1       3.354   3.296  18.015  0.00  0.00    +0.000 A 
ATOM     25  C   UNL     1       4.450   3.684  17.070  0.00  0.00    +0.000 C 
BRANCH  17  27
ATOM     26  C   UNL     1       6.835   4.722  16.035  0.00  0.00    +0.000 C 
ATOM     27  N   UNL     1       6.540   5.112  17.423  0.00  0.00    +0.000 NA
ATOM     28  C   UNL     1       7.048   6.481  17.611  0.00  0.00    +0.000 C 
ENDBRANCH  17  27
ENDBRANCH  16  17
ENDBRANCH   1  16
TORSDOF 4
ENDMDL
MODEL 7
REMARK VINA RESULT:      -8.2      1.553      3.704
REMARK  Name = 
REMARK  6 active torsions:
REMARK  status: ('A' for Active; 'I' for Inactive)
REMARK    1  A    between atoms: C_1  and  N_2
REMARK    2  A    between atoms: N_2  and  C_3
REMARK    3  A    between atoms: N_2  and  C_4
REMARK    4  A    between atoms: C_4  and  C_5
REMARK    5  A    between atoms: C_5  and  N_6
REMARK    6  A    between atoms: C_7  and  C_9
REMARK                            x       y       z     vdW  Elec       q    Type
REMARK                         _______ _______ _______ _____ _____    ______ ____
ROOT
ATOM      1  N   UNL     1       3.980   6.807  18.843  0.00  0.00    +0.000 N 
ATOM      2  C   UNL     1       2.738   7.003  19.415  0.00  0.00    +0.000 C 
ATOM      3  O   UNL     1       2.264   6.256  20.260  0.00  0.00    +0.000 OA
ATOM      4  H   UNL     1       4.416   7.566  18.337  0.00  0.00    +0.000 HD
ENDROOT
BRANCH   2   5
ATOM      5  C   UNL     1       2.042   8.198  18.943  0.00  0.00    +0.000 A 
ATOM      6  C   UNL     1       2.094   8.722  17.657  0.00  0.00    +0.000 A 
ATOM      7  N   UNL     1       1.282   9.825  17.603  0.00  0.00    +0.000 N 
ATOM      8  C   UNL     1       0.715  10.044  18.824  0.00  0.00    +0.000 A 
ATOM      9  N   UNL     1      -0.114  11.068  19.096  0.00  0.00    +0.000 NA
ATOM     10  C   UNL     1      -0.532  11.075  20.385  0.00  0.00    +0.000 A 
ATOM     11  C   UNL     1      -0.177  10.143  21.354  0.00  0.00    +0.000 A 
ATOM     12 BR   UNL     1      -0.817  10.315  23.121  0.00  0.00    +0.000 Br
ATOM     13  C   UNL     1       0.675   9.090  21.014  0.00  0.00    +0.000 A 
ATOM     14  C   UNL     1       1.150   9.042  19.688  0.00  0.00    +0.000 A 
ATOM     15  H   UNL     1       1.110  10.409  16.798  0.00  0.00    +0.000 HD
ENDBRANCH   2   5
BRANCH   1  16
ATOM     16  C   UNL     1       4.790   5.645  19.168  0.00  0.00    +0.000 C 
BRANCH  16  17
ATOM     17  C   UNL     1       4.914   4.584  17.995  0.00  0.00    +0.000 C 
ATOM     18  C   UNL     1       4.883   3.156  18.655  0.00  0.00    +0.000 C 
ATOM     19  C   UNL     1       3.413   2.875  18.758  0.00  0.00    +0.000 A 
ATOM     20  C   UNL     1       2.781   1.909  19.523  0.00  0.00    +0.000 A 
ATOM     21  C   UNL     1       1.387   1.839  19.481  0.00  0.00    +0.000 A 
ATOM     22  C   UNL     1       0.648   2.714  18.669  0.00  0.00    +0.000 A 
ATOM     23  C   UNL     1       1.295   3.661  17.877  0.00  0.00    +0.000 A 
ATOM     24  C   UNL     1       2.675   3.734  17.939  0.00  0.00    +0.000 A 
ATOM     25  C   UNL     1       3.576   4.651  17.170  0.00  0.00    +0.000 C 
BRANCH  17  27
ATOM     26  C   UNL     1       7.390   4.604  17.846  0.00  0.00    +0.000 C 
ATOM     27  N   UNL     1       6.123   4.864  17.143  0.00  0.00    +0.000 NA
ATOM     28  C   UNL     1       6.162   4.117  15.876  0.00  0.00    +0.000 C 
ENDBRANCH  17  27
ENDBRANCH  16  17
ENDBRANCH   1  16
TORSDOF 4
ENDMDL
MODEL 8
REMARK VINA RESULT:      -8.1      2.074      2.544
REMARK  Name = 
REMARK  6 active torsions:
REMARK  status: ('A' for Active; 'I' for Inactive)
REMARK    1  A    between atoms: C_1  and  N_2
REMARK    2  A    between atoms: N_2  and  C_3
REMARK    3  A    between atoms: N_2  and  C_4
REMARK    4  A    between atoms: C_4  and  C_5
REMARK    5  A    between atoms: C_5  and  N_6
REMARK    6  A    between atoms: C_7  and  C_9
REMARK                            x       y       z     vdW  Elec       q    Type
REMARK                         _______ _______ _______ _____ _____    ______ ____
ROOT
ATOM      1  N   UNL     1       2.174   7.095  19.273  0.00  0.00    +0.000 N 
ATOM      2  C   UNL     1       1.781   8.401  19.057  0.00  0.00    +0.000 C 
ATOM      3  O   UNL     1       1.868   8.956  17.969  0.00  0.00    +0.000 OA
ATOM      4  H   UNL     1       1.868   6.619  20.111  0.00  0.00    +0.000 HD
ENDROOT
BRANCH   2   5
ATOM      5  C   UNL     1       1.227   9.063  20.235  0.00  0.00    +0.000 A 
ATOM      6  C   UNL     1       1.061   8.496  21.493  0.00  0.00    +0.000 A 
ATOM      7  N   UNL     1       0.542   9.445  22.335  0.00  0.00    +0.000 N 
ATOM      8  C   UNL     1       0.349  10.612  21.655  0.00  0.00    +0.000 A 
ATOM      9  N   UNL     1      -0.171  11.725  22.204  0.00  0.00    +0.000 NA
ATOM     10  C   UNL     1      -0.275  12.745  21.318  0.00  0.00    +0.000 A 
ATOM     11  C   UNL     1       0.109  12.698  19.983  0.00  0.00    +0.000 A 
ATOM     12 BR   UNL     1      -0.138  14.200  18.867  0.00  0.00    +0.000 Br
ATOM     13  C   UNL     1       0.658  11.521  19.468  0.00  0.00    +0.000 A 
ATOM     14  C   UNL     1       0.777  10.424  20.343  0.00  0.00    +0.000 A 
ATOM     15  H   UNL     1       0.323   9.329  23.313  0.00  0.00    +0.000 HD
ENDBRANCH   2   5
BRANCH   1  16
ATOM     16  C   UNL     1       2.787   6.303  18.219  0.00  0.00    +0.000 C 
BRANCH  16  17
ATOM     17  C   UNL     1       3.041   4.785  18.604  0.00  0.00    +0.000 C 
ATOM     18  C   UNL     1       3.284   4.000  17.263  0.00  0.00    +0.000 C 
ATOM     19  C   UNL     1       4.755   4.191  17.034  0.00  0.00    +0.000 A 
ATOM     20  C   UNL     1       5.470   3.982  15.867  0.00  0.00    +0.000 A 
ATOM     21  C   UNL     1       6.842   4.246  15.876  0.00  0.00    +0.000 A 
ATOM     22  C   UNL     1       7.480   4.693  17.044  0.00  0.00    +0.000 A 
ATOM     23  C   UNL     1       6.757   4.868  18.223  0.00  0.00    +0.000 A 
ATOM     24  C   UNL     1       5.396   4.621  18.199  0.00  0.00    +0.000 A 
ATOM     25  C   UNL     1       4.430   4.722  19.339  0.00  0.00    +0.000 C 
BRANCH  17  27
ATOM     26  C   UNL     1       1.225   3.111  18.841  0.00  0.00    +0.000 C 
ATOM     27  N   UNL     1       1.920   4.253  19.457  0.00  0.00    +0.000 NA
ATOM     28  C   UNL     1       2.327   3.841  20.810  0.00  0.00    +0.000 C 
ENDBRANCH  17  27
ENDBRANCH  16  17
ENDBRANCH   1  16
TORSDOF 4
ENDMDL
MODEL 9
REMARK VINA RESULT:      -8.0      4.388      7.457
REMARK  Name = 
REMARK  6 active torsions:
REMARK  status: ('A' for Active; 'I' for Inactive)
REMARK    1  A    between atoms: C_1  and  N_2
REMARK    2  A    between atoms: N_2  and  C_3
REMARK    3  A    between atoms: N_2  and  C_4
REMARK    4  A    between atoms: C_4  and  C_5
REMARK    5  A    between atoms: C_5  and  N_6
REMARK    6  A    between atoms: C_7  and  C_9
REMARK                            x       y       z     vdW  Elec       q    Type
REMARK                         _______ _______ _______ _____ _____    ______ ____
ROOT
ATOM      1  N   UNL     1       4.846   4.889  18.831  0.00  0.00    +0.000 N 
ATOM      2  C   UNL     1       5.191   4.128  17.732  0.00  0.00    +0.000 C 
ATOM      3  O   UNL     1       4.768   2.995  17.542  0.00  0.00    +0.000 OA
ATOM      4  H   UNL     1       5.030   5.883  18.821  0.00  0.00    +0.000 HD
ENDROOT
BRANCH   2   5
ATOM      5  C   UNL     1       6.091   4.798  16.796  0.00  0.00    +0.000 A 
ATOM      6  C   UNL     1       6.979   5.821  17.103  0.00  0.00    +0.000 A 
ATOM      7  N   UNL     1       7.666   6.159  15.966  0.00  0.00    +0.000 N 
ATOM      8  C   UNL     1       7.236   5.394  14.921  0.00  0.00    +0.000 A 
ATOM      9  N   UNL     1       7.703   5.507  13.664  0.00  0.00    +0.000 NA
ATOM     10  C   UNL     1       7.106   4.646  12.805  0.00  0.00    +0.000 A 
ATOM     11  C   UNL     1       6.122   3.723  13.140  0.00  0.00    +0.000 A 
ATOM     12 BR   UNL     1       5.362   2.617  11.813  0.00  0.00    +0.000 Br
ATOM     13  C   UNL     1       5.684   3.637  14.464  0.00  0.00    +0.000 A 
ATOM     14  C   UNL     1       6.263   4.519  15.397  0.00  0.00    +0.000 A 
ATOM     15  H   UNL     1       8.384   6.863  15.881  0.00  0.00    +0.000 HD
ENDBRANCH   2   5
BRANCH   1  16
ATOM     16  C   UNL     1       3.993   4.361  19.883  0.00  0.00    +0.000 C 
BRANCH  16  17
ATOM     17  C   UNL     1       2.451   4.306  19.511  0.00  0.00    +0.000 C 
ATOM     18  C   UNL     1       1.691   5.211  20.549  0.00  0.00    +0.000 C 
ATOM     19  C   UNL     1       1.794   6.575  19.933  0.00  0.00    +0.000 A 
ATOM     20  C   UNL     1       1.573   7.801  20.534  0.00  0.00    +0.000 A 
ATOM     21  C   UNL     1       1.748   8.956  19.768  0.00  0.00    +0.000 A 
ATOM     22  C   UNL     1       2.120   8.871  18.417  0.00  0.00    +0.000 A 
ATOM     23  C   UNL     1       2.308   7.630  17.810  0.00  0.00    +0.000 A 
ATOM     24  C   UNL     1       2.149   6.494  18.583  0.00  0.00    +0.000 A 
ATOM     25  C   UNL     1       2.280   5.067  18.145  0.00  0.00    +0.000 C 
BRANCH  17  27
ATOM     26  C   UNL     1       1.756   2.280  20.761  0.00  0.00    +0.000 C 
ATOM     27  N   UNL     1       1.969   2.883  19.435  0.00  0.00    +0.000 NA
ATOM     28  C   UNL     1       0.728   2.700  18.665  0.00  0.00    +0.000 C 
ENDBRANCH  17  27
ENDBRANCH  16  17
ENDBRANCH   1  16
TORSDOF 4
ENDMDL
