MODEL 1
REMARK VINA RESULT:      -8.8      0.000      0.000
REMARK  Name = 
REMARK  6 active torsions:
REMARK  status: ('A' for Active; 'I' for Inactive)
REMARK    1  A    between atoms: C_1  and  C_2
REMARK    2  A    between atoms: C_4  and  C_5
REMARK    3  A    between atoms: C_8  and  C_9
REMARK    4  A    between atoms: C_9  and  C_10
REMARK    5  A    between atoms: C_10  and  C_11
REMARK    6  A    between atoms: N_17  and  C_18
REMARK                            x       y       z     vdW  Elec       q    Type
REMARK                         _______ _______ _______ _____ _____    ______ ____
ROOT
ATOM      1  C   UNL     1       8.013   8.420  17.298  0.00  0.00    +0.000 C 
ENDROOT
BRANCH   1   2
ATOM      2  C   UNL     1       7.389   7.045  17.182  0.00  0.00    +0.000 C 
ATOM      3  O   UNL     1       7.508   6.397  16.144  0.00  0.00    +0.000 OA
ATOM      4  N   UNL     1       6.690   6.663  18.303  0.00  0.00    +0.000 N 
ATOM      5  C   UNL     1       6.045   5.458  18.389  0.00  0.00    +0.000 A 
ATOM      6  N   UNL     1       6.315   4.409  17.561  0.00  0.00    +0.000 NA
ATOM      7  C   UNL     1       5.438   3.501  17.907  0.00  0.00    +0.000 A 
ATOM      8  N   UNL     1       4.654   3.995  18.902  0.00  0.00    +0.000 N 
ATOM      9  N   UNL     1       5.083   5.220  19.287  0.00  0.00    +0.000 NA
ATOM     10  H   UNL     1       6.426   7.330  19.013  0.00  0.00    +0.000 HD
BRANCH   8  11
ATOM     11  C   UNL     1       3.445   3.390  19.452  0.00  0.00    +0.000 C 
ATOM     12  C   UNL     1       2.471   2.979  18.334  0.00  0.00    +0.000 C 
ATOM     13  C   UNL     1       1.168   2.406  18.886  0.00  0.00    +0.000 C 
ATOM     14  C   UNL     1       0.509   3.366  19.871  0.00  0.00    +0.000 C 
ATOM     15  C   UNL     1       1.459   3.728  21.008  0.00  0.00    +0.000 C 
ATOM     16  C   UNL     1       2.773   4.307  20.482  0.00  0.00    +0.000 C 
ENDBRANCH   8  11
ENDBRANCH   1   2
BRANCH   1  17
ATOM     17  C   UNL     1       8.556   8.638  18.714  0.00  0.00    +0.000 C 
BRANCH  17  21
ATOM     18  C   UNL     1       9.684  12.011  18.868  0.00  0.00    +0.000 A 
ATOM     19  N   UNL     1       9.759  11.696  20.172  0.00  0.00    +0.000 NA
ATOM     20  O   UNL     1       9.306  10.379  20.218  0.00  0.00    +0.000 OA
ATOM     21  C   UNL     1       9.010  10.026  18.934  0.00  0.00    +0.000 A 
ATOM     22  N   UNL     1       9.213  10.991  18.070  0.00  0.00    +0.000 NA
BRANCH  18  26
ATOM     23  C   UNL     1       8.824  16.881  18.168  0.00  0.00    +0.000 C 
ATOM     24  C   UNL     1       9.658  15.658  17.945  0.00  0.00    +0.000 A 
ATOM     25  C   UNL     1       9.304  14.427  18.512  0.00  0.00    +0.000 A 
ATOM     26  C   UNL     1      10.099  13.284  18.304  0.00  0.00    +0.000 A 
ATOM     27  C   UNL     1      11.262  13.388  17.526  0.00  0.00    +0.000 A 
ATOM     28  C   UNL     1      11.610  14.609  16.946  0.00  0.00    +0.000 A 
ATOM     29  C   UNL     1      10.808  15.725  17.160  0.00  0.00    +0.000 A 
ATOM     30  F   UNL     1      11.156  16.889  16.587  0.00  0.00    +0.000 F 
ENDBRANCH  18  26
ENDBRANCH  17  21
ENDBRANCH   1  17
TORSDOF 5
ENDMDL
MODEL 2
REMARK VINA RESULT:      -8.8      3.759     11.748
REMARK  Name = 
REMARK  6 active torsions:
REMARK  status: ('A' for Active; 'I' for Inactive)
REMARK    1  A    between atoms: C_1  and  C_2
REMARK    2  A    between atoms: C_4  and  C_5
REMARK    3  A    between atoms: C_8  and  C_9
REMARK    4  A    between atoms: C_9  and  C_10
REMARK    5  A    between atoms: C_10  and  C_11
REMARK    6  A    between atoms: N_17  and  C_18
REMARK                            x       y       z     vdW  Elec       q    Type
REMARK                         _______ _______ _______ _____ _____    ______ ____
ROOT
ATOM      1  C   UNL     1       7.920   8.953  17.768  0.00  0.00    +0.000 C 
ENDROOT
BRANCH   1   2
ATOM      2  C   UNL     1       8.906   9.800  18.545  0.00  0.00    +0.000 C 
ATOM      3  O   UNL     1       9.058   9.622  19.752  0.00  0.00    +0.000 OA
ATOM      4  N   UNL     1       9.534  10.753  17.778  0.00  0.00    +0.000 N 
ATOM      5  C   UNL     1      10.452  11.625  18.301  0.00  0.00    +0.000 A 
ATOM      6  N   UNL     1      11.080  11.417  19.493  0.00  0.00    +0.000 NA
ATOM      7  C   UNL     1      11.792  12.503  19.667  0.00  0.00    +0.000 A 
ATOM      8  N   UNL     1      11.584  13.344  18.620  0.00  0.00    +0.000 N 
ATOM      9  N   UNL     1      10.794  12.763  17.687  0.00  0.00    +0.000 NA
ATOM     10  H   UNL     1       9.188  11.008  16.865  0.00  0.00    +0.000 HD
BRANCH   8  11
ATOM     11  C   UNL     1      12.033  14.728  18.501  0.00  0.00    +0.000 C 
ATOM     12  C   UNL     1      11.905  15.472  19.841  0.00  0.00    +0.000 C 
ATOM     13  C   UNL     1      12.304  16.941  19.726  0.00  0.00    +0.000 C 
ATOM     14  C   UNL     1      11.523  17.647  18.622  0.00  0.00    +0.000 C 
ATOM     15  C   UNL     1      11.698  16.938  17.283  0.00  0.00    +0.000 C 
ATOM     16  C   UNL     1      11.303  15.464  17.370  0.00  0.00    +0.000 C 
ENDBRANCH   8  11
ENDBRANCH   1   2
BRANCH   1  17
ATOM     17  C   UNL     1       8.038   7.484  18.186  0.00  0.00    +0.000 C 
BRANCH  17  21
ATOM     18  C   UNL     1       5.192   5.425  17.604  0.00  0.00    +0.000 A 
ATOM     19  N   UNL     1       5.419   5.845  16.348  0.00  0.00    +0.000 NA
ATOM     20  O   UNL     1       6.518   6.691  16.478  0.00  0.00    +0.000 OA
ATOM     21  C   UNL     1       6.853   6.692  17.800  0.00  0.00    +0.000 A 
ATOM     22  N   UNL     1       6.066   5.943  18.535  0.00  0.00    +0.000 NA
BRANCH  18  26
ATOM     23  C   UNL     1       1.138   4.338  20.313  0.00  0.00    +0.000 C 
ATOM     24  C   UNL     1       2.194   3.943  19.327  0.00  0.00    +0.000 A 
ATOM     25  C   UNL     1       3.176   4.853  18.914  0.00  0.00    +0.000 A 
ATOM     26  C   UNL     1       4.160   4.476  17.981  0.00  0.00    +0.000 A 
ATOM     27  C   UNL     1       4.145   3.175  17.455  0.00  0.00    +0.000 A 
ATOM     28  C   UNL     1       3.177   2.260  17.875  0.00  0.00    +0.000 A 
ATOM     29  C   UNL     1       2.218   2.652  18.802  0.00  0.00    +0.000 A 
ATOM     30  F   UNL     1       1.300   1.755  19.199  0.00  0.00    +0.000 F 
ENDBRANCH  18  26
ENDBRANCH  17  21
ENDBRANCH   1  17
TORSDOF 5
ENDMDL
MODEL 3
REMARK VINA RESULT:      -8.7      3.827      9.186
REMARK  Name = 
REMARK  6 active torsions:
REMARK  status: ('A' for Active; 'I' for Inactive)
REMARK    1  A    between atoms: C_1  and  C_2
REMARK    2  A    between atoms: C_4  and  C_5
REMARK    3  A    between atoms: C_8  and  C_9
REMARK    4  A    between atoms: C_9  and  C_10
REMARK    5  A    between atoms: C_10  and  C_11
REMARK    6  A    between atoms: N_17  and  C_18
REMARK                            x       y       z     vdW  Elec       q    Type
REMARK                         _______ _______ _______ _____ _____    ______ ____
ROOT
ATOM      1  C   UNL     1       6.536   4.390  16.819  0.00  0.00    +0.000 C 
ENDROOT
BRANCH   1   2
ATOM      2  C   UNL     1       6.788   5.882  16.759  0.00  0.00    +0.000 C 
ATOM      3  O   UNL     1       6.448   6.528  15.770  0.00  0.00    +0.000 OA
ATOM      4  N   UNL     1       7.436   6.374  17.868  0.00  0.00    +0.000 N 
ATOM      5  C   UNL     1       7.762   7.697  17.998  0.00  0.00    +0.000 A 
ATOM      6  N   UNL     1       7.190   8.682  17.250  0.00  0.00    +0.000 NA
ATOM      7  C   UNL     1       7.832   9.765  17.611  0.00  0.00    +0.000 A 
ATOM      8  N   UNL     1       8.772   9.439  18.535  0.00  0.00    +0.000 N 
ATOM      9  N   UNL     1       8.687   8.128  18.864  0.00  0.00    +0.000 NA
ATOM     10  H   UNL     1       7.900   5.762  18.523  0.00  0.00    +0.000 HD
BRANCH   8  11
ATOM     11  C   UNL     1       9.823  10.302  19.065  0.00  0.00    +0.000 C 
ATOM     12  C   UNL     1       9.362  11.015  20.348  0.00  0.00    +0.000 C 
ATOM     13  C   UNL     1      10.419  11.977  20.885  0.00  0.00    +0.000 C 
ATOM     14  C   UNL     1      10.856  12.978  19.820  0.00  0.00    +0.000 C 
ATOM     15  C   UNL     1      11.365  12.266  18.571  0.00  0.00    +0.000 C 
ATOM     16  C   UNL     1      10.323  11.297  18.011  0.00  0.00    +0.000 C 
ENDBRANCH   8  11
ENDBRANCH   1   2
BRANCH   1  17
ATOM     17  C   UNL     1       5.672   4.046  18.037  0.00  0.00    +0.000 C 
BRANCH  17  21
ATOM     18  C   UNL     1       2.897   6.250  18.384  0.00  0.00    +0.000 A 
ATOM     19  N   UNL     1       2.262   5.175  17.886  0.00  0.00    +0.000 NA
ATOM     20  O   UNL     1       3.286   4.251  17.690  0.00  0.00    +0.000 OA
ATOM     21  C   UNL     1       4.438   4.856  18.097  0.00  0.00    +0.000 A 
ATOM     22  N   UNL     1       4.258   6.084  18.520  0.00  0.00    +0.000 NA
BRANCH  18  26
ATOM     23  C   UNL     1       0.787   8.984  21.993  0.00  0.00    +0.000 C 
ATOM     24  C   UNL     1       1.186   8.796  20.562  0.00  0.00    +0.000 A 
ATOM     25  C   UNL     1       1.860   7.641  20.144  0.00  0.00    +0.000 A 
ATOM     26  C   UNL     1       2.239   7.476  18.798  0.00  0.00    +0.000 A 
ATOM     27  C   UNL     1       1.943   8.489  17.873  0.00  0.00    +0.000 A 
ATOM     28  C   UNL     1       1.258   9.634  18.282  0.00  0.00    +0.000 A 
ATOM     29  C   UNL     1       0.888   9.774  19.615  0.00  0.00    +0.000 A 
ATOM     30  F   UNL     1       0.223  10.881  19.987  0.00  0.00    +0.000 F 
ENDBRANCH  18  26
ENDBRANCH  17  21
ENDBRANCH   1  17
TORSDOF 5
ENDMDL
MODEL 4
REMARK VINA RESULT:      -8.6      3.638     11.454
REMARK  Name = 
REMARK  6 active torsions:
REMARK  status: ('A' for Active; 'I' for Inactive)
REMARK    1  A    between atoms: C_1  and  C_2
REMARK    2  A    between atoms: C_4  and  C_5
REMARK    3  A    between atoms: C_8  and  C_9
REMARK    4  A    between atoms: C_9  and  C_10
REMARK    5  A    between atoms: C_10  and  C_11
REMARK    6  A    between atoms: N_17  and  C_18
REMARK                            x       y       z     vdW  Elec       q    Type
REMARK                         _______ _______ _______ _____ _____    ______ ____
ROOT
ATOM      1  C   UNL     1       7.413   8.702  17.658  0.00  0.00    +0.000 C 
ENDROOT
BRANCH   1   2
ATOM      2  C   UNL     1       8.407   9.683  18.243  0.00  0.00    +0.000 C 
ATOM      3  O   UNL     1       9.163   9.333  19.148  0.00  0.00    +0.000 OA
ATOM      4  N   UNL     1       8.327  10.940  17.691  0.00  0.00    +0.000 N 
ATOM      5  C   UNL     1       9.136  11.970  18.094  0.00  0.00    +0.000 A 
ATOM      6  N   UNL     1      10.291  11.779  18.792  0.00  0.00    +0.000 NA
ATOM      7  C   UNL     1      10.705  12.994  19.054  0.00  0.00    +0.000 A 
ATOM      8  N   UNL     1       9.816  13.886  18.545  0.00  0.00    +0.000 N 
ATOM      9  N   UNL     1       8.845  13.251  17.847  0.00  0.00    +0.000 NA
ATOM     10  H   UNL     1       7.533  11.224  17.138  0.00  0.00    +0.000 HD
BRANCH   8  11
ATOM     11  C   UNL     1       9.793  15.329  18.766  0.00  0.00    +0.000 C 
ATOM     12  C   UNL     1       8.489  15.951  18.236  0.00  0.00    +0.000 C 
ATOM     13  C   UNL     1       8.470  17.470  18.393  0.00  0.00    +0.000 C 
ATOM     14  C   UNL     1       9.693  18.113  17.750  0.00  0.00    +0.000 C 
ATOM     15  C   UNL     1      10.984  17.533  18.318  0.00  0.00    +0.000 C 
ATOM     16  C   UNL     1      11.030  16.012  18.171  0.00  0.00    +0.000 C 
ENDBRANCH   8  11
ENDBRANCH   1   2
BRANCH   1  17
ATOM     17  C   UNL     1       8.003   7.289  17.653  0.00  0.00    +0.000 C 
BRANCH  17  21
ATOM     18  C   UNL     1       5.447   4.997  18.596  0.00  0.00    +0.000 A 
ATOM     19  N   UNL     1       6.331   4.756  19.580  0.00  0.00    +0.000 NA
ATOM     20  O   UNL     1       7.396   5.602  19.278  0.00  0.00    +0.000 OA
ATOM     21  C   UNL     1       7.046   6.278  18.147  0.00  0.00    +0.000 A 
ATOM     22  N   UNL     1       5.868   5.937  17.682  0.00  0.00    +0.000 NA
BRANCH  18  26
ATOM     23  C   UNL     1       0.936   4.157  20.571  0.00  0.00    +0.000 C 
ATOM     24  C   UNL     1       1.943   3.952  19.482  0.00  0.00    +0.000 A 
ATOM     25  C   UNL     1       3.199   4.571  19.530  0.00  0.00    +0.000 A 
ATOM     26  C   UNL     1       4.137   4.379  18.498  0.00  0.00    +0.000 A 
ATOM     27  C   UNL     1       3.799   3.565  17.406  0.00  0.00    +0.000 A 
ATOM     28  C   UNL     1       2.554   2.935  17.361  0.00  0.00    +0.000 A 
ATOM     29  C   UNL     1       1.645   3.133  18.394  0.00  0.00    +0.000 A 
ATOM     30  F   UNL     1       0.456   2.511  18.336  0.00  0.00    +0.000 F 
ENDBRANCH  18  26
ENDBRANCH  17  21
ENDBRANCH   1  17
TORSDOF 5
ENDMDL
MODEL 5
REMARK VINA RESULT:      -8.4      3.756     11.308
REMARK  Name = 
REMARK  6 active torsions:
REMARK  status: ('A' for Active; 'I' for Inactive)
REMARK    1  A    between atoms: C_1  and  C_2
REMARK    2  A    between atoms: C_4  and  C_5
REMARK    3  A    between atoms: C_8  and  C_9
REMARK    4  A    between atoms: C_9  and  C_10
REMARK    5  A    between atoms: C_10  and  C_11
REMARK    6  A    between atoms: N_17  and  C_18
REMARK                            x       y       z     vdW  Elec       q    Type
REMARK                         _______ _______ _______ _____ _____    ______ ____
ROOT
ATOM      1  C   UNL     1       7.213   7.856  17.064  0.00  0.00    +0.000 C 
ENDROOT
BRANCH   1   2
ATOM      2  C   UNL     1       8.123   8.653  17.976  0.00  0.00    +0.000 C 
ATOM      3  O   UNL     1       8.673   8.109  18.931  0.00  0.00    +0.000 OA
ATOM      4  N   UNL     1       8.212   9.982  17.635  0.00  0.00    +0.000 N 
ATOM      5  C   UNL     1       8.978  10.870  18.343  0.00  0.00    +0.000 A 
ATOM      6  N   UNL     1       9.967  10.483  19.198  0.00  0.00    +0.000 NA
ATOM      7  C   UNL     1      10.381  11.606  19.730  0.00  0.00    +0.000 A 
ATOM      8  N   UNL     1       9.651  12.634  19.223  0.00  0.00    +0.000 N 
ATOM      9  N   UNL     1       8.802  12.194  18.264  0.00  0.00    +0.000 NA
ATOM     10  H   UNL     1       7.553  10.410  17.002  0.00  0.00    +0.000 HD
BRANCH   8  11
ATOM     11  C   UNL     1       9.656  14.023  19.672  0.00  0.00    +0.000 C 
ATOM     12  C   UNL     1       9.359  14.985  18.509  0.00  0.00    +0.000 C 
ATOM     13  C   UNL     1       9.427  16.448  18.939  0.00  0.00    +0.000 C 
ATOM     14  C   UNL     1      10.760  16.775  19.603  0.00  0.00    +0.000 C 
ATOM     15  C   UNL     1      11.024  15.855  20.791  0.00  0.00    +0.000 C 
ATOM     16  C   UNL     1      10.965  14.382  20.386  0.00  0.00    +0.000 C 
ENDBRANCH   8  11
ENDBRANCH   1   2
BRANCH   1  17
ATOM     17  C   UNL     1       7.594   6.373  17.100  0.00  0.00    +0.000 C 
BRANCH  17  21
ATOM     18  C   UNL     1       4.992   4.552  18.711  0.00  0.00    +0.000 A 
ATOM     19  N   UNL     1       5.979   4.359  19.603  0.00  0.00    +0.000 NA
ATOM     20  O   UNL     1       7.066   5.025  19.039  0.00  0.00    +0.000 OA
ATOM     21  C   UNL     1       6.626   5.562  17.866  0.00  0.00    +0.000 A 
ATOM     22  N   UNL     1       5.367   5.293  17.611  0.00  0.00    +0.000 NA
BRANCH  18  26
ATOM     23  C   UNL     1       1.455   2.585  21.637  0.00  0.00    +0.000 C 
ATOM     24  C   UNL     1       1.913   3.095  20.307  0.00  0.00    +0.000 A 
ATOM     25  C   UNL     1       3.209   3.595  20.129  0.00  0.00    +0.000 A 
ATOM     26  C   UNL     1       3.629   4.080  18.876  0.00  0.00    +0.000 A 
ATOM     27  C   UNL     1       2.730   4.068  17.800  0.00  0.00    +0.000 A 
ATOM     28  C   UNL     1       1.442   3.557  17.967  0.00  0.00    +0.000 A 
ATOM     29  C   UNL     1       1.050   3.077  19.211  0.00  0.00    +0.000 A 
ATOM     30  F   UNL     1      -0.191   2.582  19.351  0.00  0.00    +0.000 F 
ENDBRANCH  18  26
ENDBRANCH  17  21
ENDBRANCH   1  17
TORSDOF 5
ENDMDL
MODEL 6
REMARK VINA RESULT:      -8.4      6.780      9.180
REMARK  Name = 
REMARK  6 active torsions:
REMARK  status: ('A' for Active; 'I' for Inactive)
REMARK    1  A    between atoms: C_1  and  C_2
REMARK    2  A    between atoms: C_4  and  C_5
REMARK    3  A    between atoms: C_8  and  C_9
REMARK    4  A    between atoms: C_9  and  C_10
REMARK    5  A    between atoms: C_10  and  C_11
REMARK    6  A    between atoms: N_17  and  C_18
REMARK                            x       y       z     vdW  Elec       q    Type
REMARK                         _______ _______ _______ _____ _____    ______ ____
ROOT
ATOM      1  C   UNL     1       3.594   4.475  19.664  0.00  0.00    +0.000 C 
ENDROOT
BRANCH   1   2
ATOM      2  C   UNL     1       2.587   5.448  20.240  0.00  0.00    +0.000 C 
ATOM      3  O   UNL     1       1.767   5.069  21.075  0.00  0.00    +0.000 OA
ATOM      4  N   UNL     1       2.682   6.713  19.710  0.00  0.00    +0.000 N 
ATOM      5  C   UNL     1       1.852   7.732  20.095  0.00  0.00    +0.000 A 
ATOM      6  N   UNL     1       1.119   7.702  21.244  0.00  0.00    +0.000 NA
ATOM      7  C   UNL     1       0.407   8.800  21.193  0.00  0.00    +0.000 A 
ATOM      8  N   UNL     1       0.690   9.461  20.040  0.00  0.00    +0.000 N 
ATOM      9  N   UNL     1       1.681   8.837  19.360  0.00  0.00    +0.000 NA
ATOM     10  H   UNL     1       3.202   6.894  18.865  0.00  0.00    +0.000 HD
BRANCH   8  11
ATOM     11  C   UNL     1      -0.005  10.624  19.499  0.00  0.00    +0.000 C 
ATOM     12  C   UNL     1      -0.386  11.613  20.615  0.00  0.00    +0.000 C 
ATOM     13  C   UNL     1      -1.175  12.807  20.083  0.00  0.00    +0.000 C 
ATOM     14  C   UNL     1      -2.401  12.360  19.295  0.00  0.00    +0.000 C 
ATOM     15  C   UNL     1      -2.013  11.425  18.155  0.00  0.00    +0.000 C 
ATOM     16  C   UNL     1      -1.223  10.217  18.661  0.00  0.00    +0.000 C 
ENDBRANCH   8  11
ENDBRANCH   1   2
BRANCH   1  17
ATOM     17  C   UNL     1       4.912   5.194  19.359  0.00  0.00    +0.000 C 
BRANCH  17  21
ATOM     18  C   UNL     1       5.579   5.452  15.872  0.00  0.00    +0.000 A 
ATOM     19  N   UNL     1       5.036   6.663  16.080  0.00  0.00    +0.000 NA
ATOM     20  O   UNL     1       4.713   6.649  17.436  0.00  0.00    +0.000 OA
ATOM     21  C   UNL     1       5.101   5.433  17.914  0.00  0.00    +0.000 A 
ATOM     22  N   UNL     1       5.627   4.657  16.996  0.00  0.00    +0.000 NA
BRANCH  18  26
ATOM     23  C   UNL     1       5.135   2.636  11.770  0.00  0.00    +0.000 C 
ATOM     24  C   UNL     1       5.908   3.602  12.612  0.00  0.00    +0.000 A 
ATOM     25  C   UNL     1       5.391   4.086  13.821  0.00  0.00    +0.000 A 
ATOM     26  C   UNL     1       6.121   5.001  14.602  0.00  0.00    +0.000 A 
ATOM     27  C   UNL     1       7.377   5.437  14.154  0.00  0.00    +0.000 A 
ATOM     28  C   UNL     1       7.904   4.947  12.958  0.00  0.00    +0.000 A 
ATOM     29  C   UNL     1       7.169   4.039  12.205  0.00  0.00    +0.000 A 
ATOM     30  F   UNL     1       7.696   3.572  11.061  0.00  0.00    +0.000 F 
ENDBRANCH  18  26
ENDBRANCH  17  21
ENDBRANCH   1  17
TORSDOF 5
ENDMDL
MODEL 7
REMARK VINA RESULT:      -8.2      4.293      5.427
REMARK  Name = 
REMARK  6 active torsions:
REMARK  status: ('A' for Active; 'I' for Inactive)
REMARK    1  A    between atoms: C_1  and  C_2
REMARK    2  A    between atoms: C_4  and  C_5
REMARK    3  A    between atoms: C_8  and  C_9
REMARK    4  A    between atoms: C_9  and  C_10
REMARK    5  A    between atoms: C_10  and  C_11
REMARK    6  A    between atoms: N_17  and  C_18
REMARK                            x       y       z     vdW  Elec       q    Type
REMARK                         _______ _______ _______ _____ _____    ______ ____
ROOT
ATOM      1  C   UNL     1       5.072   6.252  16.044  0.00  0.00    +0.000 C 
ENDROOT
BRANCH   1   2
ATOM      2  C   UNL     1       4.170   6.399  17.251  0.00  0.00    +0.000 C 
ATOM      3  O   UNL     1       3.962   5.438  17.989  0.00  0.00    +0.000 OA
ATOM      4  N   UNL     1       3.623   7.655  17.378  0.00  0.00    +0.000 N 
ATOM      5  C   UNL     1       2.773   7.983  18.401  0.00  0.00    +0.000 A 
ATOM      6  N   UNL     1       2.666   7.249  19.545  0.00  0.00    +0.000 NA
ATOM      7  C   UNL     1       1.700   7.836  20.206  0.00  0.00    +0.000 A 
ATOM      8  N   UNL     1       1.228   8.879  19.474  0.00  0.00    +0.000 N 
ATOM      9  N   UNL     1       1.962   9.046  18.348  0.00  0.00    +0.000 NA
ATOM     10  H   UNL     1       3.635   8.315  16.616  0.00  0.00    +0.000 HD
BRANCH   8  11
ATOM     11  C   UNL     1       0.042   9.683  19.750  0.00  0.00    +0.000 C 
ATOM     12  C   UNL     1      -0.418  10.444  18.494  0.00  0.00    +0.000 C 
ATOM     13  C   UNL     1      -1.617  11.346  18.774  0.00  0.00    +0.000 C 
ATOM     14  C   UNL     1      -1.341  12.300  19.930  0.00  0.00    +0.000 C 
ATOM     15  C   UNL     1      -0.940  11.539  21.189  0.00  0.00    +0.000 C 
ATOM     16  C   UNL     1       0.263  10.628  20.937  0.00  0.00    +0.000 C 
ENDBRANCH   8  11
ENDBRANCH   1   2
BRANCH   1  17
ATOM     17  C   UNL     1       6.463   5.777  16.476  0.00  0.00    +0.000 C 
BRANCH  17  21
ATOM     18  C   UNL     1       8.120   8.455  18.136  0.00  0.00    +0.000 A 
ATOM     19  N   UNL     1       8.483   7.442  18.940  0.00  0.00    +0.000 NA
ATOM     20  O   UNL     1       7.851   6.334  18.377  0.00  0.00    +0.000 OA
ATOM     21  C   UNL     1       7.176   6.788  17.283  0.00  0.00    +0.000 A 
ATOM     22  N   UNL     1       7.298   8.080  17.096  0.00  0.00    +0.000 NA
BRANCH  18  26
ATOM     23  C   UNL     1      10.829  11.836  20.623  0.00  0.00    +0.000 C 
ATOM     24  C   UNL     1       9.878  11.479  19.524  0.00  0.00    +0.000 A 
ATOM     25  C   UNL     1       9.459  10.156  19.329  0.00  0.00    +0.000 A 
ATOM     26  C   UNL     1       8.571   9.828  18.288  0.00  0.00    +0.000 A 
ATOM     27  C   UNL     1       8.110  10.841  17.433  0.00  0.00    +0.000 A 
ATOM     28  C   UNL     1       8.512  12.163  17.633  0.00  0.00    +0.000 A 
ATOM     29  C   UNL     1       9.386  12.466  18.671  0.00  0.00    +0.000 A 
ATOM     30  F   UNL     1       9.755  13.745  18.852  0.00  0.00    +0.000 F 
ENDBRANCH  18  26
ENDBRANCH  17  21
ENDBRANCH   1  17
TORSDOF 5
ENDMDL
MODEL 8
REMARK VINA RESULT:      -8.2      6.294      9.185
REMARK  Name = 
REMARK  6 active torsions:
REMARK  status: ('A' for Active; 'I' for Inactive)
REMARK    1  A    between atoms: C_1  and  C_2
REMARK    2  A    between atoms: C_4  and  C_5
REMARK    3  A    between atoms: C_8  and  C_9
REMARK    4  A    between atoms: C_9  and  C_10
REMARK    5  A    between atoms: C_10  and  C_11
REMARK    6  A    between atoms: N_17  and  C_18
REMARK                            x       y       z     vdW  Elec       q    Type
REMARK                         _______ _______ _______ _____ _____    ______ ____
ROOT
ATOM      1  C   UNL     1       2.509   3.584  19.187  0.00  0.00    +0.000 C 
ENDROOT
BRANCH   1   2
ATOM      2  C   UNL     1       1.980   4.882  19.759  0.00  0.00    +0.000 C 
ATOM      3  O   UNL     1       1.289   4.875  20.776  0.00  0.00    +0.000 OA
ATOM      4  N   UNL     1       2.322   5.988  19.016  0.00  0.00    +0.000 N 
ATOM      5  C   UNL     1       1.929   7.253  19.364  0.00  0.00    +0.000 A 
ATOM      6  N   UNL     1       1.488   7.579  20.612  0.00  0.00    +0.000 NA
ATOM      7  C   UNL     1       1.133   8.835  20.502  0.00  0.00    +0.000 A 
ATOM      8  N   UNL     1       1.337   9.246  19.223  0.00  0.00    +0.000 N 
ATOM      9  N   UNL     1       1.931   8.271  18.495  0.00  0.00    +0.000 NA
ATOM     10  H   UNL     1       2.673   5.903  18.074  0.00  0.00    +0.000 HD
BRANCH   8  11
ATOM     11  C   UNL     1       0.910  10.507  18.625  0.00  0.00    +0.000 C 
ATOM     12  C   UNL     1       1.625  11.702  19.278  0.00  0.00    +0.000 C 
ATOM     13  C   UNL     1       1.145  13.039  18.717  0.00  0.00    +0.000 C 
ATOM     14  C   UNL     1      -0.370  13.175  18.818  0.00  0.00    +0.000 C 
ATOM     15  C   UNL     1      -1.076  12.017  18.120  0.00  0.00    +0.000 C 
ATOM     16  C   UNL     1      -0.615  10.665  18.667  0.00  0.00    +0.000 C 
ENDBRANCH   8  11
ENDBRANCH   1   2
BRANCH   1  17
ATOM     17  C   UNL     1       4.023   3.488  19.401  0.00  0.00    +0.000 C 
BRANCH  17  21
ATOM     18  C   UNL     1       5.765   4.637  16.517  0.00  0.00    +0.000 A 
ATOM     19  N   UNL     1       6.243   5.508  17.422  0.00  0.00    +0.000 NA
ATOM     20  O   UNL     1       5.590   5.149  18.599  0.00  0.00    +0.000 OA
ATOM     21  C   UNL     1       4.788   4.091  18.290  0.00  0.00    +0.000 A 
ATOM     22  N   UNL     1       4.849   3.744  17.027  0.00  0.00    +0.000 NA
BRANCH  18  26
ATOM     23  C   UNL     1       5.054   2.919  11.881  0.00  0.00    +0.000 C 
ATOM     24  C   UNL     1       5.847   3.714  12.870  0.00  0.00    +0.000 A 
ATOM     25  C   UNL     1       5.440   3.822  14.206  0.00  0.00    +0.000 A 
ATOM     26  C   UNL     1       6.187   4.579  15.128  0.00  0.00    +0.000 A 
ATOM     27  C   UNL     1       7.347   5.238  14.695  0.00  0.00    +0.000 A 
ATOM     28  C   UNL     1       7.766   5.122  13.368  0.00  0.00    +0.000 A 
ATOM     29  C   UNL     1       7.016   4.364  12.475  0.00  0.00    +0.000 A 
ATOM     30  F   UNL     1       7.439   4.258  11.205  0.00  0.00    +0.000 F 
ENDBRANCH  18  26
ENDBRANCH  17  21
ENDBRANCH   1  17
TORSDOF 5
ENDMDL
MODEL 9
REMARK VINA RESULT:      -8.1      8.273     10.402
REMARK  Name = 
REMARK  6 active torsions:
REMARK  status: ('A' for Active; 'I' for Inactive)
REMARK    1  A    between atoms: C_1  and  C_2
REMARK    2  A    between atoms: C_4  and  C_5
REMARK    3  A    between atoms: C_8  and  C_9
REMARK    4  A    between atoms: C_9  and  C_10
REMARK    5  A    between atoms: C_10  and  C_11
REMARK    6  A    between atoms: N_17  and  C_18
REMARK                            x       y       z     vdW  Elec       q    Type
REMARK                         _______ _______ _______ _____ _____    ______ ____
ROOT
ATOM      1  C   UNL     1       0.509  11.150  19.040  0.00  0.00    +0.000 C 
ENDROOT
BRANCH   1   2
ATOM      2  C   UNL     1       1.379  10.029  18.509  0.00  0.00    +0.000 C 
ATOM      3  O   UNL     1       1.893  10.119  17.396  0.00  0.00    +0.000 OA
ATOM      4  N   UNL     1       1.476   8.958  19.366  0.00  0.00    +0.000 N 
ATOM      5  C   UNL     1       2.208   7.841  19.062  0.00  0.00    +0.000 A 
ATOM      6  N   UNL     1       3.164   7.821  18.090  0.00  0.00    +0.000 NA
ATOM      7  C   UNL     1       3.552   6.570  18.056  0.00  0.00    +0.000 A 
ATOM      8  N   UNL     1       2.838   5.858  18.967  0.00  0.00    +0.000 N 
ATOM      9  N   UNL     1       2.030   6.673  19.687  0.00  0.00    +0.000 NA
ATOM     10  H   UNL     1       0.841   8.843  20.141  0.00  0.00    +0.000 HD
BRANCH   8  11
ATOM     11  C   UNL     1       2.819   4.408  19.132  0.00  0.00    +0.000 C 
ATOM     12  C   UNL     1       2.549   3.700  17.793  0.00  0.00    +0.000 C 
ATOM     13  C   UNL     1       2.456   2.184  17.951  0.00  0.00    +0.000 C 
ATOM     14  C   UNL     1       1.424   1.794  19.004  0.00  0.00    +0.000 C 
ATOM     15  C   UNL     1       1.728   2.454  20.345  0.00  0.00    +0.000 C 
ATOM     16  C   UNL     1       1.824   3.975  20.215  0.00  0.00    +0.000 C 
ENDBRANCH   8  11
ENDBRANCH   1   2
BRANCH   1  17
ATOM     17  C   UNL     1       0.965  11.554  20.446  0.00  0.00    +0.000 C 
BRANCH  17  21
ATOM     18  C   UNL     1      -1.889  11.805  22.560  0.00  0.00    +0.000 A 
ATOM     19  N   UNL     1      -1.066  11.134  23.383  0.00  0.00    +0.000 NA
ATOM     20  O   UNL     1       0.090  10.963  22.624  0.00  0.00    +0.000 OA
ATOM     21  C   UNL     1      -0.147  11.555  21.418  0.00  0.00    +0.000 A 
ATOM     22  N   UNL     1      -1.347  12.076  21.323  0.00  0.00    +0.000 NA
BRANCH  18  26
ATOM     23  C   UNL     1      -6.255  13.815  21.198  0.00  0.00    +0.000 C 
ATOM     24  C   UNL     1      -5.342  13.269  22.251  0.00  0.00    +0.000 A 
ATOM     25  C   UNL     1      -4.069  12.781  21.925  0.00  0.00    +0.000 A 
ATOM     26  C   UNL     1      -3.220  12.263  22.920  0.00  0.00    +0.000 A 
ATOM     27  C   UNL     1      -3.663  12.227  24.250  0.00  0.00    +0.000 A 
ATOM     28  C   UNL     1      -4.924  12.725  24.583  0.00  0.00    +0.000 A 
ATOM     29  C   UNL     1      -5.745  13.239  23.585  0.00  0.00    +0.000 A 
ATOM     30  F   UNL     1      -6.952  13.721  23.926  0.00  0.00    +0.000 F 
ENDBRANCH  18  26
ENDBRANCH  17  21
ENDBRANCH   1  17
TORSDOF 5
ENDMDL
