MODEL 1
REMARK VINA RESULT:      -7.9      0.000      0.000
REMARK  Name = 
REMARK  4 active torsions:
REMARK  status: ('A' for Active; 'I' for Inactive)
REMARK    1  A    between atoms: C_2  and  C_19
REMARK    2  A    between atoms: N_3  and  C_4
REMARK    3  A    between atoms: N_7  and  C_8
REMARK    4  A    between atoms: C_11  and  C_12
REMARK                            x       y       z     vdW  Elec       q    Type
REMARK                         _______ _______ _______ _____ _____    ______ ____
ROOT
ATOM      1  C   UNL     1       2.430   7.417  18.910  0.00  0.00    +0.000 A 
ATOM      2  C   UNL     1       2.372   8.481  17.992  0.00  0.00    +0.000 A 
ATOM      3  N   UNL     1       1.577   9.471  18.407  0.00  0.00    +0.000 NA
ATOM      4  N   UNL     1       1.159   9.072  19.637  0.00  0.00    +0.000 N 
ATOM      5  C   UNL     1       1.603   7.803  19.933  0.00  0.00    +0.000 A 
ENDROOT
BRANCH   4   6
ATOM      6  C   UNL     1       0.402   9.933  20.474  0.00  0.00    +0.000 A 
ATOM      7  C   UNL     1       0.286   9.651  21.843  0.00  0.00    +0.000 A 
ATOM      8  C   UNL     1      -0.483  10.479  22.662  0.00  0.00    +0.000 A 
ATOM      9  C   UNL     1      -1.155  11.588  22.128  0.00  0.00    +0.000 A 
ATOM     10  C   UNL     1      -1.034  11.862  20.757  0.00  0.00    +0.000 A 
ATOM     11  C   UNL     1      -0.257  11.045  19.936  0.00  0.00    +0.000 A 
BRANCH   9  12
ATOM     12  C   UNL     1      -1.994  12.489  22.994  0.00  0.00    +0.000 C 
ATOM     13  F   UNL     1      -2.868  11.821  23.801  0.00  0.00    +0.000 F 
ATOM     14  F   UNL     1      -1.234  13.258  23.824  0.00  0.00    +0.000 F 
ATOM     15  F   UNL     1      -2.746  13.359  22.266  0.00  0.00    +0.000 F 
ENDBRANCH   9  12
ENDBRANCH   4   6
BRANCH   1  18
ATOM     16  O   UNL     1       4.855   6.827  17.526  0.00  0.00    +0.000 OA
ATOM     17  C   UNL     1       4.241   5.970  18.162  0.00  0.00    +0.000 C 
ATOM     18  N   UNL     1       3.100   6.215  18.902  0.00  0.00    +0.000 N 
ATOM     19  H   UNL     1       2.748   5.476  19.508  0.00  0.00    +0.000 HD
BRANCH  17  20
ATOM     20  C   UNL     1       4.736   4.508  18.196  0.00  0.00    +0.000 C 
ATOM     21  C   UNL     1       4.399   3.660  16.968  0.00  0.00    +0.000 C 
ATOM     22  C   UNL     1       3.267   2.779  17.443  0.00  0.00    +0.000 C 
ATOM     23  O   UNL     1       2.006   3.472  17.389  0.00  0.00    +0.000 OA
ATOM     24  C   UNL     1       1.267   3.095  18.570  0.00  0.00    +0.000 C 
ATOM     25  C   UNL     1       2.200   2.322  19.491  0.00  0.00    +0.000 C 
ATOM     26  C   UNL     1       3.571   2.557  18.911  0.00  0.00    +0.000 C 
ATOM     27  N   UNL     1       4.156   3.823  19.373  0.00  0.00    +0.000 NA
ATOM     28  H   UNL     1       4.885   3.661  20.068  0.00  0.00    +0.000 HD
ENDBRANCH  17  20
ENDBRANCH   1  18
TORSDOF 4
ENDMDL
MODEL 2
REMARK VINA RESULT:      -7.9      1.833      3.228
REMARK  Name = 
REMARK  4 active torsions:
REMARK  status: ('A' for Active; 'I' for Inactive)
REMARK    1  A    between atoms: C_2  and  C_19
REMARK    2  A    between atoms: N_3  and  C_4
REMARK    3  A    between atoms: N_7  and  C_8
REMARK    4  A    between atoms: C_11  and  C_12
REMARK                            x       y       z     vdW  Elec       q    Type
REMARK                         _______ _______ _______ _____ _____    ______ ____
ROOT
ATOM      1  C   UNL     1       2.693   6.788  19.304  0.00  0.00    +0.000 A 
ATOM      2  C   UNL     1       2.064   5.958  20.248  0.00  0.00    +0.000 A 
ATOM      3  N   UNL     1       1.273   6.639  21.082  0.00  0.00    +0.000 NA
ATOM      4  N   UNL     1       1.345   7.922  20.638  0.00  0.00    +0.000 N 
ATOM      5  C   UNL     1       2.251   8.049  19.610  0.00  0.00    +0.000 A 
ENDROOT
BRANCH   4   6
ATOM      6  C   UNL     1       0.518   8.938  21.184  0.00  0.00    +0.000 A 
ATOM      7  C   UNL     1       0.020   9.953  20.355  0.00  0.00    +0.000 A 
ATOM      8  C   UNL     1      -0.767  10.971  20.896  0.00  0.00    +0.000 A 
ATOM      9  C   UNL     1      -1.056  10.998  22.267  0.00  0.00    +0.000 A 
ATOM     10  C   UNL     1      -0.553   9.979  23.090  0.00  0.00    +0.000 A 
ATOM     11  C   UNL     1       0.224   8.953  22.553  0.00  0.00    +0.000 A 
BRANCH   9  12
ATOM     12  C   UNL     1      -1.899  12.091  22.870  0.00  0.00    +0.000 C 
ATOM     13  F   UNL     1      -1.179  13.034  23.544  0.00  0.00    +0.000 F 
ATOM     14  F   UNL     1      -2.613  12.769  21.929  0.00  0.00    +0.000 F 
ATOM     15  F   UNL     1      -2.814  11.614  23.758  0.00  0.00    +0.000 F 
ENDBRANCH   9  12
ENDBRANCH   4   6
BRANCH   1  18
ATOM     16  O   UNL     1       2.654   4.540  17.546  0.00  0.00    +0.000 OA
ATOM     17  C   UNL     1       3.541   5.391  17.497  0.00  0.00    +0.000 C 
ATOM     18  N   UNL     1       3.574   6.531  18.278  0.00  0.00    +0.000 N 
ATOM     19  H   UNL     1       4.268   7.245  18.065  0.00  0.00    +0.000 HD
BRANCH  17  20
ATOM     20  C   UNL     1       4.714   5.252  16.503  0.00  0.00    +0.000 C 
ATOM     21  C   UNL     1       5.564   3.988  16.647  0.00  0.00    +0.000 C 
ATOM     22  C   UNL     1       6.825   4.481  17.317  0.00  0.00    +0.000 C 
ATOM     23  O   UNL     1       6.649   4.602  18.741  0.00  0.00    +0.000 OA
ATOM     24  C   UNL     1       7.333   5.806  19.151  0.00  0.00    +0.000 C 
ATOM     25  C   UNL     1       7.748   6.568  17.901  0.00  0.00    +0.000 C 
ATOM     26  C   UNL     1       6.992   5.891  16.787  0.00  0.00    +0.000 C 
ATOM     27  N   UNL     1       5.624   6.410  16.653  0.00  0.00    +0.000 NA
ATOM     28  H   UNL     1       5.537   7.020  15.841  0.00  0.00    +0.000 HD
ENDBRANCH  17  20
ENDBRANCH   1  18
TORSDOF 4
ENDMDL
MODEL 3
REMARK VINA RESULT:      -7.9      5.694      9.508
REMARK  Name = 
REMARK  4 active torsions:
REMARK  status: ('A' for Active; 'I' for Inactive)
REMARK    1  A    between atoms: C_2  and  C_19
REMARK    2  A    between atoms: N_3  and  C_4
REMARK    3  A    between atoms: N_7  and  C_8
REMARK    4  A    between atoms: C_11  and  C_12
REMARK                            x       y       z     vdW  Elec       q    Type
REMARK                         _______ _______ _______ _____ _____    ______ ____
ROOT
ATOM      1  C   UNL     1       1.479   8.901  19.668  0.00  0.00    +0.000 A 
ATOM      2  C   UNL     1       1.585   7.778  20.507  0.00  0.00    +0.000 A 
ATOM      3  N   UNL     1       2.239   6.766  19.929  0.00  0.00    +0.000 NA
ATOM      4  N   UNL     1       2.614   7.259  18.719  0.00  0.00    +0.000 N 
ATOM      5  C   UNL     1       2.106   8.521  18.509  0.00  0.00    +0.000 A 
ENDROOT
BRANCH   4   6
ATOM      6  C   UNL     1       3.467   6.523  17.856  0.00  0.00    +0.000 A 
ATOM      7  C   UNL     1       4.367   7.199  17.021  0.00  0.00    +0.000 A 
ATOM      8  C   UNL     1       5.185   6.478  16.149  0.00  0.00    +0.000 A 
ATOM      9  C   UNL     1       5.106   5.080  16.088  0.00  0.00    +0.000 A 
ATOM     10  C   UNL     1       4.202   4.411  16.926  0.00  0.00    +0.000 A 
ATOM     11  C   UNL     1       3.392   5.125  17.808  0.00  0.00    +0.000 A 
BRANCH   9  12
ATOM     12  C   UNL     1       5.975   4.285  15.149  0.00  0.00    +0.000 C 
ATOM     13  F   UNL     1       7.276   4.696  15.122  0.00  0.00    +0.000 F 
ATOM     14  F   UNL     1       6.009   2.963  15.474  0.00  0.00    +0.000 F 
ATOM     15  F   UNL     1       5.539   4.341  13.861  0.00  0.00    +0.000 F 
ENDBRANCH   9  12
ENDBRANCH   4   6
BRANCH   1  18
ATOM     16  O   UNL     1      -0.929   9.837  18.455  0.00  0.00    +0.000 OA
ATOM     17  C   UNL     1      -0.236  10.558  19.172  0.00  0.00    +0.000 C 
ATOM     18  N   UNL     1       0.901  10.138  19.836  0.00  0.00    +0.000 N 
ATOM     19  H   UNL     1       1.325  10.766  20.517  0.00  0.00    +0.000 HD
BRANCH  17  20
ATOM     20  C   UNL     1      -0.618  12.035  19.408  0.00  0.00    +0.000 C 
ATOM     21  C   UNL     1       0.354  12.847  20.267  0.00  0.00    +0.000 C 
ATOM     22  C   UNL     1      -0.352  12.955  21.598  0.00  0.00    +0.000 C 
ATOM     23  O   UNL     1      -0.162  11.768  22.391  0.00  0.00    +0.000 OA
ATOM     24  C   UNL     1      -1.418  11.492  23.046  0.00  0.00    +0.000 C 
ATOM     25  C   UNL     1      -2.477  12.412  22.456  0.00  0.00    +0.000 C 
ATOM     26  C   UNL     1      -1.822  12.990  21.228  0.00  0.00    +0.000 C 
ATOM     27  N   UNL     1      -1.942  12.099  20.066  0.00  0.00    +0.000 NA
ATOM     28  H   UNL     1      -2.636  12.446  19.405  0.00  0.00    +0.000 HD
ENDBRANCH  17  20
ENDBRANCH   1  18
TORSDOF 4
ENDMDL
MODEL 4
REMARK VINA RESULT:      -7.9      5.660      9.417
REMARK  Name = 
REMARK  4 active torsions:
REMARK  status: ('A' for Active; 'I' for Inactive)
REMARK    1  A    between atoms: C_2  and  C_19
REMARK    2  A    between atoms: N_3  and  C_4
REMARK    3  A    between atoms: N_7  and  C_8
REMARK    4  A    between atoms: C_11  and  C_12
REMARK                            x       y       z     vdW  Elec       q    Type
REMARK                         _______ _______ _______ _____ _____    ______ ____
ROOT
ATOM      1  C   UNL     1       1.431   8.805  19.750  0.00  0.00    +0.000 A 
ATOM      2  C   UNL     1       1.554   7.676  20.578  0.00  0.00    +0.000 A 
ATOM      3  N   UNL     1       2.211   6.675  19.985  0.00  0.00    +0.000 NA
ATOM      4  N   UNL     1       2.572   7.182  18.777  0.00  0.00    +0.000 N 
ATOM      5  C   UNL     1       2.051   8.441  18.583  0.00  0.00    +0.000 A 
ENDROOT
BRANCH   4   6
ATOM      6  C   UNL     1       3.423   6.461  17.899  0.00  0.00    +0.000 A 
ATOM      7  C   UNL     1       3.385   5.059  17.886  0.00  0.00    +0.000 A 
ATOM      8  C   UNL     1       4.243   4.347  17.046  0.00  0.00    +0.000 A 
ATOM      9  C   UNL     1       5.155   5.020  16.221  0.00  0.00    +0.000 A 
ATOM     10  C   UNL     1       5.187   6.422  16.241  0.00  0.00    +0.000 A 
ATOM     11  C   UNL     1       4.324   7.139  17.069  0.00  0.00    +0.000 A 
BRANCH   9  12
ATOM     12  C   UNL     1       6.092   4.269  15.312  0.00  0.00    +0.000 C 
ATOM     13  F   UNL     1       5.966   2.912  15.388  0.00  0.00    +0.000 F 
ATOM     14  F   UNL     1       5.904   4.587  14.001  0.00  0.00    +0.000 F 
ATOM     15  F   UNL     1       7.401   4.537  15.576  0.00  0.00    +0.000 F 
ENDBRANCH   9  12
ENDBRANCH   4   6
BRANCH   1  18
ATOM     16  O   UNL     1      -0.663   9.947  18.184  0.00  0.00    +0.000 OA
ATOM     17  C   UNL     1      -0.126  10.564  19.103  0.00  0.00    +0.000 C 
ATOM     18  N   UNL     1       0.845  10.037  19.934  0.00  0.00    +0.000 N 
ATOM     19  H   UNL     1       1.125  10.573  20.753  0.00  0.00    +0.000 HD
BRANCH  17  20
ATOM     20  C   UNL     1      -0.532  12.019  19.420  0.00  0.00    +0.000 C 
ATOM     21  C   UNL     1       0.432  12.801  20.315  0.00  0.00    +0.000 C 
ATOM     22  C   UNL     1      -0.266  12.825  21.655  0.00  0.00    +0.000 C 
ATOM     23  O   UNL     1      -0.048  11.602  22.381  0.00  0.00    +0.000 OA
ATOM     24  C   UNL     1      -1.294  11.268  23.030  0.00  0.00    +0.000 C 
ATOM     25  C   UNL     1      -2.373  12.199  22.497  0.00  0.00    +0.000 C 
ATOM     26  C   UNL     1      -1.738  12.853  21.298  0.00  0.00    +0.000 C 
ATOM     27  N   UNL     1      -1.852  12.023  20.091  0.00  0.00    +0.000 NA
ATOM     28  H   UNL     1      -2.557  12.392  19.454  0.00  0.00    +0.000 HD
ENDBRANCH  17  20
ENDBRANCH   1  18
TORSDOF 4
ENDMDL
MODEL 5
REMARK VINA RESULT:      -7.8      0.665      1.060
REMARK  Name = 
REMARK  4 active torsions:
REMARK  status: ('A' for Active; 'I' for Inactive)
REMARK    1  A    between atoms: C_2  and  C_19
REMARK    2  A    between atoms: N_3  and  C_4
REMARK    3  A    between atoms: N_7  and  C_8
REMARK    4  A    between atoms: C_11  and  C_12
REMARK                            x       y       z     vdW  Elec       q    Type
REMARK                         _______ _______ _______ _____ _____    ______ ____
ROOT
ATOM      1  C   UNL     1       2.719   7.206  18.846  0.00  0.00    +0.000 A 
ATOM      2  C   UNL     1       2.597   8.241  17.902  0.00  0.00    +0.000 A 
ATOM      3  N   UNL     1       1.767   9.207  18.306  0.00  0.00    +0.000 NA
ATOM      4  N   UNL     1       1.390   8.824  19.554  0.00  0.00    +0.000 N 
ATOM      5  C   UNL     1       1.895   7.584  19.874  0.00  0.00    +0.000 A 
ENDROOT
BRANCH   4   6
ATOM      6  C   UNL     1       0.612   9.674  20.382  0.00  0.00    +0.000 A 
ATOM      7  C   UNL     1       0.452   9.367  21.741  0.00  0.00    +0.000 A 
ATOM      8  C   UNL     1      -0.338  10.185  22.551  0.00  0.00    +0.000 A 
ATOM      9  C   UNL     1      -0.987  11.307  22.016  0.00  0.00    +0.000 A 
ATOM     10  C   UNL     1      -0.821  11.606  20.655  0.00  0.00    +0.000 A 
ATOM     11  C   UNL     1      -0.024  10.800  19.845  0.00  0.00    +0.000 A 
BRANCH   9  12
ATOM     12  C   UNL     1      -1.848  12.198  22.872  0.00  0.00    +0.000 C 
ATOM     13  F   UNL     1      -1.140  13.070  23.647  0.00  0.00    +0.000 F 
ATOM     14  F   UNL     1      -2.696  12.963  22.129  0.00  0.00    +0.000 F 
ATOM     15  F   UNL     1      -2.637  11.493  23.729  0.00  0.00    +0.000 F 
ENDBRANCH   9  12
ENDBRANCH   4   6
BRANCH   1  18
ATOM     16  O   UNL     1       4.688   6.399  16.944  0.00  0.00    +0.000 OA
ATOM     17  C   UNL     1       4.340   5.670  17.872  0.00  0.00    +0.000 C 
ATOM     18  N   UNL     1       3.442   6.035  18.857  0.00  0.00    +0.000 N 
ATOM     19  H   UNL     1       3.327   5.419  19.660  0.00  0.00    +0.000 HD
BRANCH  17  20
ATOM     20  C   UNL     1       4.925   4.249  18.020  0.00  0.00    +0.000 C 
ATOM     21  C   UNL     1       4.170   3.137  17.289  0.00  0.00    +0.000 C 
ATOM     22  C   UNL     1       3.427   2.424  18.394  0.00  0.00    +0.000 C 
ATOM     23  O   UNL     1       2.210   3.112  18.737  0.00  0.00    +0.000 OA
ATOM     24  C   UNL     1       2.079   3.049  20.174  0.00  0.00    +0.000 C 
ATOM     25  C   UNL     1       3.377   2.500  20.747  0.00  0.00    +0.000 C 
ATOM     26  C   UNL     1       4.345   2.556  19.594  0.00  0.00    +0.000 C 
ATOM     27  N   UNL     1       4.962   3.882  19.454  0.00  0.00    +0.000 NA
ATOM     28  H   UNL     1       5.928   3.877  19.780  0.00  0.00    +0.000 HD
ENDBRANCH  17  20
ENDBRANCH   1  18
TORSDOF 4
ENDMDL
MODEL 6
REMARK VINA RESULT:      -7.8      0.144      1.219
REMARK  Name = 
REMARK  4 active torsions:
REMARK  status: ('A' for Active; 'I' for Inactive)
REMARK    1  A    between atoms: C_2  and  C_19
REMARK    2  A    between atoms: N_3  and  C_4
REMARK    3  A    between atoms: N_7  and  C_8
REMARK    4  A    between atoms: C_11  and  C_12
REMARK                            x       y       z     vdW  Elec       q    Type
REMARK                         _______ _______ _______ _____ _____    ______ ____
ROOT
ATOM      1  C   UNL     1       2.527   7.345  18.837  0.00  0.00    +0.000 A 
ATOM      2  C   UNL     1       2.520   8.438  17.953  0.00  0.00    +0.000 A 
ATOM      3  N   UNL     1       1.713   9.422  18.361  0.00  0.00    +0.000 NA
ATOM      4  N   UNL     1       1.235   8.987  19.557  0.00  0.00    +0.000 N 
ATOM      5  C   UNL     1       1.655   7.705  19.832  0.00  0.00    +0.000 A 
ENDROOT
BRANCH   4   6
ATOM      6  C   UNL     1       0.445   9.827  20.384  0.00  0.00    +0.000 A 
ATOM      7  C   UNL     1      -0.182  10.955  19.837  0.00  0.00    +0.000 A 
ATOM      8  C   UNL     1      -0.934  11.800  20.656  0.00  0.00    +0.000 A 
ATOM      9  C   UNL     1      -1.059  11.540  22.028  0.00  0.00    +0.000 A 
ATOM     10  C   UNL     1      -0.427  10.409  22.567  0.00  0.00    +0.000 A 
ATOM     11  C   UNL     1       0.315   9.555  21.752  0.00  0.00    +0.000 A 
BRANCH   9  12
ATOM     12  C   UNL     1      -1.860  12.443  22.928  0.00  0.00    +0.000 C 
ATOM     13  F   UNL     1      -1.097  13.258  23.712  0.00  0.00    +0.000 F 
ATOM     14  F   UNL     1      -2.686  13.268  22.225  0.00  0.00    +0.000 F 
ATOM     15  F   UNL     1      -2.664  11.749  23.780  0.00  0.00    +0.000 F 
ENDBRANCH   9  12
ENDBRANCH   4   6
BRANCH   1  18
ATOM     16  O   UNL     1       4.998   6.771  17.530  0.00  0.00    +0.000 OA
ATOM     17  C   UNL     1       4.355   5.903  18.119  0.00  0.00    +0.000 C 
ATOM     18  N   UNL     1       3.189   6.138  18.822  0.00  0.00    +0.000 N 
ATOM     19  H   UNL     1       2.808   5.386  19.394  0.00  0.00    +0.000 HD
BRANCH  17  20
ATOM     20  C   UNL     1       4.838   4.437  18.133  0.00  0.00    +0.000 C 
ATOM     21  C   UNL     1       4.446   3.594  16.918  0.00  0.00    +0.000 C 
ATOM     22  C   UNL     1       3.325   2.723  17.434  0.00  0.00    +0.000 C 
ATOM     23  O   UNL     1       2.070   3.427  17.430  0.00  0.00    +0.000 OA
ATOM     24  C   UNL     1       1.372   3.054  18.639  0.00  0.00    +0.000 C 
ATOM     25  C   UNL     1       2.333   2.272  19.522  0.00  0.00    +0.000 C 
ATOM     26  C   UNL     1       3.683   2.496  18.890  0.00  0.00    +0.000 C 
ATOM     27  N   UNL     1       4.297   3.755  19.330  0.00  0.00    +0.000 NA
ATOM     28  H   UNL     1       5.050   3.586  19.996  0.00  0.00    +0.000 HD
ENDBRANCH  17  20
ENDBRANCH   1  18
TORSDOF 4
ENDMDL
MODEL 7
REMARK VINA RESULT:      -7.8      5.706      9.433
REMARK  Name = 
REMARK  4 active torsions:
REMARK  status: ('A' for Active; 'I' for Inactive)
REMARK    1  A    between atoms: C_2  and  C_19
REMARK    2  A    between atoms: N_3  and  C_4
REMARK    3  A    between atoms: N_7  and  C_8
REMARK    4  A    between atoms: C_11  and  C_12
REMARK                            x       y       z     vdW  Elec       q    Type
REMARK                         _______ _______ _______ _____ _____    ______ ____
ROOT
ATOM      1  C   UNL     1       1.487   8.427  19.953  0.00  0.00    +0.000 A 
ATOM      2  C   UNL     1       1.657   7.250  20.703  0.00  0.00    +0.000 A 
ATOM      3  N   UNL     1       2.323   6.307  20.030  0.00  0.00    +0.000 NA
ATOM      4  N   UNL     1       2.640   6.899  18.849  0.00  0.00    +0.000 N 
ATOM      5  C   UNL     1       2.085   8.155  18.750  0.00  0.00    +0.000 A 
ENDROOT
BRANCH   4   6
ATOM      6  C   UNL     1       3.485   6.258  17.906  0.00  0.00    +0.000 A 
ATOM      7  C   UNL     1       4.361   7.021  17.122  0.00  0.00    +0.000 A 
ATOM      8  C   UNL     1       5.171   6.395  16.172  0.00  0.00    +0.000 A 
ATOM      9  C   UNL     1       5.108   5.008  15.983  0.00  0.00    +0.000 A 
ATOM     10  C   UNL     1       4.227   4.252  16.771  0.00  0.00    +0.000 A 
ATOM     11  C   UNL     1       3.425   4.869  17.729  0.00  0.00    +0.000 A 
BRANCH   9  12
ATOM     12  C   UNL     1       5.969   4.315  14.959  0.00  0.00    +0.000 C 
ATOM     13  F   UNL     1       5.397   4.233  13.723  0.00  0.00    +0.000 F 
ATOM     14  F   UNL     1       7.161   4.949  14.777  0.00  0.00    +0.000 F 
ATOM     15  F   UNL     1       6.276   3.038  15.315  0.00  0.00    +0.000 F 
ENDBRANCH   9  12
ENDBRANCH   4   6
BRANCH   1  18
ATOM     16  O   UNL     1       1.373   9.737  22.486  0.00  0.00    +0.000 OA
ATOM     17  C   UNL     1       0.801  10.185  21.494  0.00  0.00    +0.000 C 
ATOM     18  N   UNL     1       0.876   9.629  20.231  0.00  0.00    +0.000 N 
ATOM     19  H   UNL     1       0.487  10.150  19.448  0.00  0.00    +0.000 HD
BRANCH  17  20
ATOM     20  C   UNL     1      -0.057  11.465  21.590  0.00  0.00    +0.000 C 
ATOM     21  C   UNL     1      -1.137  11.626  20.519  0.00  0.00    +0.000 C 
ATOM     22  C   UNL     1      -0.561  12.663  19.583  0.00  0.00    +0.000 C 
ATOM     23  O   UNL     1       0.364  12.072  18.651  0.00  0.00    +0.000 OA
ATOM     24  C   UNL     1       1.463  12.996  18.504  0.00  0.00    +0.000 C 
ATOM     25  C   UNL     1       1.315  14.086  19.555  0.00  0.00    +0.000 C 
ATOM     26  C   UNL     1       0.260  13.556  20.492  0.00  0.00    +0.000 C 
ATOM     27  N   UNL     1       0.824  12.652  21.503  0.00  0.00    +0.000 NA
ATOM     28  H   UNL     1       0.878  13.105  22.415  0.00  0.00    +0.000 HD
ENDBRANCH  17  20
ENDBRANCH   1  18
TORSDOF 4
ENDMDL
MODEL 8
REMARK VINA RESULT:      -7.8      1.105      1.338
REMARK  Name = 
REMARK  4 active torsions:
REMARK  status: ('A' for Active; 'I' for Inactive)
REMARK    1  A    between atoms: C_2  and  C_19
REMARK    2  A    between atoms: N_3  and  C_4
REMARK    3  A    between atoms: N_7  and  C_8
REMARK    4  A    between atoms: C_11  and  C_12
REMARK                            x       y       z     vdW  Elec       q    Type
REMARK                         _______ _______ _______ _____ _____    ______ ____
ROOT
ATOM      1  C   UNL     1       2.329   7.750  18.739  0.00  0.00    +0.000 A 
ATOM      2  C   UNL     1       2.168   8.806  17.826  0.00  0.00    +0.000 A 
ATOM      3  N   UNL     1       1.353   9.760  18.286  0.00  0.00    +0.000 NA
ATOM      4  N   UNL     1       1.026   9.345  19.538  0.00  0.00    +0.000 N 
ATOM      5  C   UNL     1       1.546   8.100  19.808  0.00  0.00    +0.000 A 
ENDROOT
BRANCH   4   6
ATOM      6  C   UNL     1       0.279  10.173  20.417  0.00  0.00    +0.000 A 
ATOM      7  C   UNL     1       0.086   9.780  21.749  0.00  0.00    +0.000 A 
ATOM      8  C   UNL     1      -0.674  10.577  22.606  0.00  0.00    +0.000 A 
ATOM      9  C   UNL     1      -1.260  11.765  22.146  0.00  0.00    +0.000 A 
ATOM     10  C   UNL     1      -1.062  12.149  20.812  0.00  0.00    +0.000 A 
ATOM     11  C   UNL     1      -0.294  11.364  19.954  0.00  0.00    +0.000 A 
BRANCH   9  12
ATOM     12  C   UNL     1      -2.088  12.634  23.055  0.00  0.00    +0.000 C 
ATOM     13  F   UNL     1      -2.903  11.935  23.896  0.00  0.00    +0.000 F 
ATOM     14  F   UNL     1      -1.317  13.424  23.854  0.00  0.00    +0.000 F 
ATOM     15  F   UNL     1      -2.901  13.482  22.367  0.00  0.00    +0.000 F 
ENDBRANCH   9  12
ENDBRANCH   4   6
BRANCH   1  18
ATOM     16  O   UNL     1       1.490   5.265  17.612  0.00  0.00    +0.000 OA
ATOM     17  C   UNL     1       2.571   5.389  18.188  0.00  0.00    +0.000 C 
ATOM     18  N   UNL     1       3.054   6.581  18.693  0.00  0.00    +0.000 N 
ATOM     19  H   UNL     1       4.018   6.612  19.023  0.00  0.00    +0.000 HD
BRANCH  17  20
ATOM     20  C   UNL     1       3.509   4.177  18.373  0.00  0.00    +0.000 C 
ATOM     21  C   UNL     1       2.966   2.832  17.884  0.00  0.00    +0.000 C 
ATOM     22  C   UNL     1       2.584   2.118  19.159  0.00  0.00    +0.000 C 
ATOM     23  O   UNL     1       1.291   2.540  19.630  0.00  0.00    +0.000 OA
ATOM     24  C   UNL     1       1.376   2.639  21.068  0.00  0.00    +0.000 C 
ATOM     25  C   UNL     1       2.837   2.492  21.470  0.00  0.00    +0.000 C 
ATOM     26  C   UNL     1       3.593   2.619  20.174  0.00  0.00    +0.000 C 
ATOM     27  N   UNL     1       3.831   4.022  19.809  0.00  0.00    +0.000 NA
ATOM     28  H   UNL     1       4.803   4.287  19.972  0.00  0.00    +0.000 HD
ENDBRANCH  17  20
ENDBRANCH   1  18
TORSDOF 4
ENDMDL
MODEL 9
REMARK VINA RESULT:      -7.7      1.096      1.807
REMARK  Name = 
REMARK  4 active torsions:
REMARK  status: ('A' for Active; 'I' for Inactive)
REMARK    1  A    between atoms: C_2  and  C_19
REMARK    2  A    between atoms: N_3  and  C_4
REMARK    3  A    between atoms: N_7  and  C_8
REMARK    4  A    between atoms: C_11  and  C_12
REMARK                            x       y       z     vdW  Elec       q    Type
REMARK                         _______ _______ _______ _____ _____    ______ ____
ROOT
ATOM      1  C   UNL     1       2.390   7.710  18.739  0.00  0.00    +0.000 A 
ATOM      2  C   UNL     1       2.321   8.805  17.861  0.00  0.00    +0.000 A 
ATOM      3  N   UNL     1       1.500   9.763  18.301  0.00  0.00    +0.000 NA
ATOM      4  N   UNL     1       1.075   9.310  19.510  0.00  0.00    +0.000 N 
ATOM      5  C   UNL     1       1.542   8.040  19.764  0.00  0.00    +0.000 A 
ENDROOT
BRANCH   4   6
ATOM      6  C   UNL     1       0.289  10.123  20.367  0.00  0.00    +0.000 A 
ATOM      7  C   UNL     1      -0.438  11.198  19.836  0.00  0.00    +0.000 A 
ATOM      8  C   UNL     1      -1.187  12.018  20.683  0.00  0.00    +0.000 A 
ATOM      9  C   UNL     1      -1.211  11.786  22.065  0.00  0.00    +0.000 A 
ATOM     10  C   UNL     1      -0.480  10.708  22.587  0.00  0.00    +0.000 A 
ATOM     11  C   UNL     1       0.260   9.879  21.746  0.00  0.00    +0.000 A 
BRANCH   9  12
ATOM     12  C   UNL     1      -2.008  12.662  22.994  0.00  0.00    +0.000 C 
ATOM     13  F   UNL     1      -1.242  13.405  23.845  0.00  0.00    +0.000 F 
ATOM     14  F   UNL     1      -2.786  13.555  22.319  0.00  0.00    +0.000 F 
ATOM     15  F   UNL     1      -2.859  11.949  23.782  0.00  0.00    +0.000 F 
ENDBRANCH   9  12
ENDBRANCH   4   6
BRANCH   1  18
ATOM     16  O   UNL     1       1.517   5.261  17.562  0.00  0.00    +0.000 OA
ATOM     17  C   UNL     1       2.585   5.350  18.165  0.00  0.00    +0.000 C 
ATOM     18  N   UNL     1       3.086   6.524  18.697  0.00  0.00    +0.000 N 
ATOM     19  H   UNL     1       4.041   6.526  19.051  0.00  0.00    +0.000 HD
BRANCH  17  20
ATOM     20  C   UNL     1       3.488   4.112  18.358  0.00  0.00    +0.000 C 
ATOM     21  C   UNL     1       2.894   2.777  17.906  0.00  0.00    +0.000 C 
ATOM     22  C   UNL     1       2.512   2.100  19.201  0.00  0.00    +0.000 C 
ATOM     23  O   UNL     1       1.242   2.573  19.686  0.00  0.00    +0.000 OA
ATOM     24  C   UNL     1       1.356   2.696  21.120  0.00  0.00    +0.000 C 
ATOM     25  C   UNL     1       2.818   2.510  21.500  0.00  0.00    +0.000 C 
ATOM     26  C   UNL     1       3.554   2.588  20.188  0.00  0.00    +0.000 C 
ATOM     27  N   UNL     1       3.831   3.976  19.792  0.00  0.00    +0.000 NA
ATOM     28  H   UNL     1       4.813   4.212  19.932  0.00  0.00    +0.000 HD
ENDBRANCH  17  20
ENDBRANCH   1  18
TORSDOF 4
ENDMDL
