MODEL 1
REMARK VINA RESULT:      -8.6      0.000      0.000
REMARK  Name = 
REMARK  5 active torsions:
REMARK  status: ('A' for Active; 'I' for Inactive)
REMARK    1  A    between atoms: C_2  and  C_16
REMARK    2  A    between atoms: N_3  and  C_4
REMARK    3  A    between atoms: C_4  and  C_5
REMARK    4  A    between atoms: C_10  and  N_11
REMARK    5  A    between atoms: C_18  and  C_19
REMARK                            x       y       z     vdW  Elec       q    Type
REMARK                         _______ _______ _______ _____ _____    ______ ____
ROOT
ATOM      1  O   UNL     1       1.540   8.993  19.016  0.00  0.00    +0.000 OA
ATOM      2  C   UNL     1       1.508   8.566  20.171  0.00  0.00    +0.000 C 
ATOM      3  N   UNL     1       2.050   7.354  20.519  0.00  0.00    +0.000 N 
ATOM      4  H   UNL     1       1.928   6.997  21.461  0.00  0.00    +0.000 HD
ENDROOT
BRANCH   2   5
ATOM      5  C   UNL     1       0.885   9.337  21.239  0.00  0.00    +0.000 A 
ATOM      6  C   UNL     1      -0.087  10.341  21.033  0.00  0.00    +0.000 A 
ATOM      7  C   UNL     1      -0.362  10.849  22.276  0.00  0.00    +0.000 A 
ATOM      8  O   UNL     1       0.389  10.167  23.192  0.00  0.00    +0.000 OA
ATOM      9  N   UNL     1       1.170   9.210  22.546  0.00  0.00    +0.000 NA
BRANCH   7  10
ATOM     10  C   UNL     1      -1.229  11.920  22.755  0.00  0.00    +0.000 A 
ATOM     11  C   UNL     1      -2.489  11.663  23.312  0.00  0.00    +0.000 A 
ATOM     12  C   UNL     1      -3.285  12.711  23.791  0.00  0.00    +0.000 A 
ATOM     13  C   UNL     1      -2.835  14.029  23.719  0.00  0.00    +0.000 A 
ATOM     14  C   UNL     1      -1.591  14.303  23.162  0.00  0.00    +0.000 A 
ATOM     15  C   UNL     1      -0.805  13.258  22.687  0.00  0.00    +0.000 A 
ATOM     16  F   UNL     1       0.388  13.576  22.159  0.00  0.00    +0.000 F 
ENDBRANCH   7  10
ENDBRANCH   2   5
BRANCH   3  17
ATOM     17  C   UNL     1       2.660   6.509  19.527  0.00  0.00    +0.000 C 
BRANCH  17  18
ATOM     18  C   UNL     1       2.456   5.044  19.812  0.00  0.00    +0.000 A 
ATOM     19  C   UNL     1       1.372   4.655  20.621  0.00  0.00    +0.000 A 
ATOM     20  C   UNL     1       1.072   3.312  20.805  0.00  0.00    +0.000 A 
ATOM     21  C   UNL     1       1.845   2.377  20.147  0.00  0.00    +0.000 A 
ATOM     22  N   UNL     1       2.894   2.696  19.358  0.00  0.00    +0.000 NA
ATOM     23  C   UNL     1       3.223   4.018  19.244  0.00  0.00    +0.000 A 
BRANCH  23  24
ATOM     24  N   UNL     1       4.423   4.308  18.527  0.00  0.00    +0.000 N 
ATOM     25  C   UNL     1       4.549   4.369  17.154  0.00  0.00    +0.000 A 
ATOM     26  C   UNL     1       5.874   4.600  16.878  0.00  0.00    +0.000 A 
ATOM     27  C   UNL     1       6.495   4.628  18.135  0.00  0.00    +0.000 A 
ATOM     28  N   UNL     1       5.628   4.494  19.140  0.00  0.00    +0.000 NA
ENDBRANCH  23  24
ENDBRANCH  17  18
ENDBRANCH   3  17
TORSDOF 5
ENDMDL
MODEL 2
REMARK VINA RESULT:      -8.5      2.918      5.197
REMARK  Name = 
REMARK  5 active torsions:
REMARK  status: ('A' for Active; 'I' for Inactive)
REMARK    1  A    between atoms: C_2  and  C_16
REMARK    2  A    between atoms: N_3  and  C_4
REMARK    3  A    between atoms: C_4  and  C_5
REMARK    4  A    between atoms: C_10  and  N_11
REMARK    5  A    between atoms: C_18  and  C_19
REMARK                            x       y       z     vdW  Elec       q    Type
REMARK                         _______ _______ _______ _____ _____    ______ ____
ROOT
ATOM      1  O   UNL     1       4.322   4.800  19.244  0.00  0.00    +0.000 OA
ATOM      2  C   UNL     1       3.879   5.481  18.318  0.00  0.00    +0.000 C 
ATOM      3  N   UNL     1       4.059   5.133  17.002  0.00  0.00    +0.000 N 
ATOM      4  H   UNL     1       3.757   5.763  16.267  0.00  0.00    +0.000 HD
ENDROOT
BRANCH   2   5
ATOM      5  C   UNL     1       3.135   6.707  18.576  0.00  0.00    +0.000 A 
ATOM      6  C   UNL     1       2.459   6.987  19.784  0.00  0.00    +0.000 A 
ATOM      7  C   UNL     1       1.848   8.199  19.592  0.00  0.00    +0.000 A 
ATOM      8  O   UNL     1       2.162   8.641  18.338  0.00  0.00    +0.000 OA
ATOM      9  N   UNL     1       2.977   7.710  17.696  0.00  0.00    +0.000 NA
BRANCH   7  10
ATOM     10  C   UNL     1       0.973   9.025  20.416  0.00  0.00    +0.000 A 
ATOM     11  C   UNL     1       0.602   8.650  21.715  0.00  0.00    +0.000 A 
ATOM     12  C   UNL     1      -0.216   9.479  22.492  0.00  0.00    +0.000 A 
ATOM     13  C   UNL     1      -0.675  10.695  21.983  0.00  0.00    +0.000 A 
ATOM     14  C   UNL     1      -0.324  11.078  20.694  0.00  0.00    +0.000 A 
ATOM     15  C   UNL     1       0.488  10.250  19.926  0.00  0.00    +0.000 A 
ATOM     16  F   UNL     1       0.797  10.668  18.689  0.00  0.00    +0.000 F 
ENDBRANCH   7  10
ENDBRANCH   2   5
BRANCH   3  17
ATOM     17  C   UNL     1       4.807   3.955  16.648  0.00  0.00    +0.000 C 
BRANCH  17  18
ATOM     18  C   UNL     1       5.757   4.197  15.504  0.00  0.00    +0.000 A 
ATOM     19  C   UNL     1       5.468   3.626  14.251  0.00  0.00    +0.000 A 
ATOM     20  C   UNL     1       6.247   3.926  13.140  0.00  0.00    +0.000 A 
ATOM     21  C   UNL     1       7.285   4.822  13.297  0.00  0.00    +0.000 A 
ATOM     22  N   UNL     1       7.603   5.399  14.476  0.00  0.00    +0.000 NA
ATOM     23  C   UNL     1       6.874   5.039  15.575  0.00  0.00    +0.000 A 
BRANCH  23  24
ATOM     24  N   UNL     1       7.331   5.551  16.828  0.00  0.00    +0.000 N 
ATOM     25  C   UNL     1       7.597   4.804  17.957  0.00  0.00    +0.000 A 
ATOM     26  C   UNL     1       7.940   5.683  18.954  0.00  0.00    +0.000 A 
ATOM     27  C   UNL     1       7.821   6.949  18.362  0.00  0.00    +0.000 A 
ATOM     28  N   UNL     1       7.495   6.884  17.070  0.00  0.00    +0.000 NA
ENDBRANCH  23  24
ENDBRANCH  17  18
ENDBRANCH   3  17
TORSDOF 5
ENDMDL
MODEL 3
REMARK VINA RESULT:      -8.3      3.640      6.354
REMARK  Name = 
REMARK  5 active torsions:
REMARK  status: ('A' for Active; 'I' for Inactive)
REMARK    1  A    between atoms: C_2  and  C_16
REMARK    2  A    between atoms: N_3  and  C_4
REMARK    3  A    between atoms: C_4  and  C_5
REMARK    4  A    between atoms: C_10  and  N_11
REMARK    5  A    between atoms: C_18  and  C_19
REMARK                            x       y       z     vdW  Elec       q    Type
REMARK                         _______ _______ _______ _____ _____    ______ ____
ROOT
ATOM      1  O   UNL     1       3.699   2.668  17.546  0.00  0.00    +0.000 OA
ATOM      2  C   UNL     1       3.948   3.858  17.348  0.00  0.00    +0.000 C 
ATOM      3  N   UNL     1       4.615   4.289  16.228  0.00  0.00    +0.000 N 
ATOM      4  H   UNL     1       4.879   5.265  16.141  0.00  0.00    +0.000 HD
ENDROOT
BRANCH   2   5
ATOM      5  C   UNL     1       3.544   4.880  18.305  0.00  0.00    +0.000 A 
ATOM      6  C   UNL     1       2.632   5.920  18.020  0.00  0.00    +0.000 A 
ATOM      7  C   UNL     1       2.576   6.683  19.157  0.00  0.00    +0.000 A 
ATOM      8  O   UNL     1       3.396   6.116  20.092  0.00  0.00    +0.000 OA
ATOM      9  N   UNL     1       4.002   4.977  19.564  0.00  0.00    +0.000 NA
BRANCH   7  10
ATOM     10  C   UNL     1       1.871   7.909  19.511  0.00  0.00    +0.000 A 
ATOM     11  C   UNL     1       1.367   8.132  20.800  0.00  0.00    +0.000 A 
ATOM     12  C   UNL     1       0.720   9.333  21.117  0.00  0.00    +0.000 A 
ATOM     13  C   UNL     1       0.567  10.328  20.151  0.00  0.00    +0.000 A 
ATOM     14  C   UNL     1       1.053  10.121  18.865  0.00  0.00    +0.000 A 
ATOM     15  C   UNL     1       1.693   8.925  18.556  0.00  0.00    +0.000 A 
ATOM     16  F   UNL     1       2.144   8.776  17.300  0.00  0.00    +0.000 F 
ENDBRANCH   7  10
ENDBRANCH   2   5
BRANCH   3  17
ATOM     17  C   UNL     1       5.081   3.350  15.241  0.00  0.00    +0.000 C 
BRANCH  17  18
ATOM     18  C   UNL     1       6.139   3.934  14.343  0.00  0.00    +0.000 A 
ATOM     19  C   UNL     1       6.176   3.540  12.993  0.00  0.00    +0.000 A 
ATOM     20  C   UNL     1       7.052   4.146  12.101  0.00  0.00    +0.000 A 
ATOM     21  C   UNL     1       7.856   5.164  12.572  0.00  0.00    +0.000 A 
ATOM     22  N   UNL     1       7.859   5.582  13.856  0.00  0.00    +0.000 NA
ATOM     23  C   UNL     1       7.044   4.928  14.738  0.00  0.00    +0.000 A 
BRANCH  23  24
ATOM     24  N   UNL     1       7.183   5.293  16.112  0.00  0.00    +0.000 N 
ATOM     25  C   UNL     1       7.692   4.492  17.113  0.00  0.00    +0.000 A 
ATOM     26  C   UNL     1       7.581   5.192  18.289  0.00  0.00    +0.000 A 
ATOM     27  C   UNL     1       6.958   6.395  17.924  0.00  0.00    +0.000 A 
ATOM     28  N   UNL     1       6.749   6.488  16.610  0.00  0.00    +0.000 NA
ENDBRANCH  23  24
ENDBRANCH  17  18
ENDBRANCH   3  17
TORSDOF 5
ENDMDL
MODEL 4
REMARK VINA RESULT:      -8.3      2.425      4.048
REMARK  Name = 
REMARK  5 active torsions:
REMARK  status: ('A' for Active; 'I' for Inactive)
REMARK    1  A    between atoms: C_2  and  C_16
REMARK    2  A    between atoms: N_3  and  C_4
REMARK    3  A    between atoms: C_4  and  C_5
REMARK    4  A    between atoms: C_10  and  N_11
REMARK    5  A    between atoms: C_18  and  C_19
REMARK                            x       y       z     vdW  Elec       q    Type
REMARK                         _______ _______ _______ _____ _____    ______ ____
ROOT
ATOM      1  O   UNL     1       2.407   6.005  18.533  0.00  0.00    +0.000 OA
ATOM      2  C   UNL     1       2.715   7.132  18.146  0.00  0.00    +0.000 C 
ATOM      3  N   UNL     1       3.742   7.348  17.261  0.00  0.00    +0.000 N 
ATOM      4  H   UNL     1       4.022   8.296  17.033  0.00  0.00    +0.000 HD
ENDROOT
BRANCH   2   5
ATOM      5  C   UNL     1       1.995   8.309  18.615  0.00  0.00    +0.000 A 
ATOM      6  C   UNL     1       1.634   8.538  19.960  0.00  0.00    +0.000 A 
ATOM      7  C   UNL     1       0.930   9.713  19.960  0.00  0.00    +0.000 A 
ATOM      8  O   UNL     1       0.889  10.186  18.678  0.00  0.00    +0.000 OA
ATOM      9  N   UNL     1       1.563   9.310  17.828  0.00  0.00    +0.000 NA
BRANCH   7  10
ATOM     10  C   UNL     1       0.250  10.478  20.999  0.00  0.00    +0.000 A 
ATOM     11  C   UNL     1       0.201  11.879  20.979  0.00  0.00    +0.000 A 
ATOM     12  C   UNL     1      -0.486  12.584  21.975  0.00  0.00    +0.000 A 
ATOM     13  C   UNL     1      -1.134  11.900  23.005  0.00  0.00    +0.000 A 
ATOM     14  C   UNL     1      -1.087  10.512  23.045  0.00  0.00    +0.000 A 
ATOM     15  C   UNL     1      -0.403   9.816  22.053  0.00  0.00    +0.000 A 
ATOM     16  F   UNL     1      -0.390   8.477  22.138  0.00  0.00    +0.000 F 
ENDBRANCH   7  10
ENDBRANCH   2   5
BRANCH   3  17
ATOM     17  C   UNL     1       4.530   6.250  16.766  0.00  0.00    +0.000 C 
BRANCH  17  18
ATOM     18  C   UNL     1       5.787   6.033  17.567  0.00  0.00    +0.000 A 
ATOM     19  C   UNL     1       6.809   6.998  17.499  0.00  0.00    +0.000 A 
ATOM     20  C   UNL     1       7.928   6.903  18.316  0.00  0.00    +0.000 A 
ATOM     21  C   UNL     1       7.989   5.857  19.214  0.00  0.00    +0.000 A 
ATOM     22  N   UNL     1       7.036   4.907  19.323  0.00  0.00    +0.000 NA
ATOM     23  C   UNL     1       5.975   4.972  18.462  0.00  0.00    +0.000 A 
BRANCH  23  24
ATOM     24  N   UNL     1       5.066   3.872  18.501  0.00  0.00    +0.000 N 
ATOM     25  C   UNL     1       4.370   3.361  17.425  0.00  0.00    +0.000 A 
ATOM     26  C   UNL     1       3.557   2.364  17.903  0.00  0.00    +0.000 A 
ATOM     27  C   UNL     1       3.789   2.355  19.287  0.00  0.00    +0.000 A 
ATOM     28  N   UNL     1       4.725   3.230  19.657  0.00  0.00    +0.000 NA
ENDBRANCH  23  24
ENDBRANCH  17  18
ENDBRANCH   3  17
TORSDOF 5
ENDMDL
MODEL 5
REMARK VINA RESULT:      -8.2      3.383      5.775
REMARK  Name = 
REMARK  5 active torsions:
REMARK  status: ('A' for Active; 'I' for Inactive)
REMARK    1  A    between atoms: C_2  and  C_16
REMARK    2  A    between atoms: N_3  and  C_4
REMARK    3  A    between atoms: C_4  and  C_5
REMARK    4  A    between atoms: C_10  and  N_11
REMARK    5  A    between atoms: C_18  and  C_19
REMARK                            x       y       z     vdW  Elec       q    Type
REMARK                         _______ _______ _______ _____ _____    ______ ____
ROOT
ATOM      1  O   UNL     1       5.106   3.600  19.435  0.00  0.00    +0.000 OA
ATOM      2  C   UNL     1       4.328   4.209  18.699  0.00  0.00    +0.000 C 
ATOM      3  N   UNL     1       4.321   4.035  17.338  0.00  0.00    +0.000 N 
ATOM      4  H   UNL     1       3.726   4.618  16.757  0.00  0.00    +0.000 HD
ENDROOT
BRANCH   2   5
ATOM      5  C   UNL     1       3.366   5.157  19.245  0.00  0.00    +0.000 A 
ATOM      6  C   UNL     1       3.215   6.486  18.793  0.00  0.00    +0.000 A 
ATOM      7  C   UNL     1       2.258   7.044  19.600  0.00  0.00    +0.000 A 
ATOM      8  O   UNL     1       1.833   6.090  20.482  0.00  0.00    +0.000 OA
ATOM      9  N   UNL     1       2.522   4.898  20.259  0.00  0.00    +0.000 NA
BRANCH   7  10
ATOM     10  C   UNL     1       1.675   8.377  19.694  0.00  0.00    +0.000 A 
ATOM     11  C   UNL     1       1.272   8.928  20.919  0.00  0.00    +0.000 A 
ATOM     12  C   UNL     1       0.743  10.223  20.980  0.00  0.00    +0.000 A 
ATOM     13  C   UNL     1       0.608  10.987  19.820  0.00  0.00    +0.000 A 
ATOM     14  C   UNL     1       0.994  10.453  18.596  0.00  0.00    +0.000 A 
ATOM     15  C   UNL     1       1.518   9.165  18.541  0.00  0.00    +0.000 A 
ATOM     16  F   UNL     1       1.876   8.698  17.334  0.00  0.00    +0.000 F 
ENDBRANCH   7  10
ENDBRANCH   2   5
BRANCH   3  17
ATOM     17  C   UNL     1       5.255   3.142  16.704  0.00  0.00    +0.000 C 
BRANCH  17  18
ATOM     18  C   UNL     1       6.048   3.815  15.614  0.00  0.00    +0.000 A 
ATOM     19  C   UNL     1       5.823   3.434  14.279  0.00  0.00    +0.000 A 
ATOM     20  C   UNL     1       6.439   4.114  13.235  0.00  0.00    +0.000 A 
ATOM     21  C   UNL     1       7.246   5.189  13.547  0.00  0.00    +0.000 A 
ATOM     22  N   UNL     1       7.493   5.597  14.810  0.00  0.00    +0.000 NA
ATOM     23  C   UNL     1       6.939   4.874  15.830  0.00  0.00    +0.000 A 
BRANCH  23  24
ATOM     24  N   UNL     1       7.341   5.240  17.151  0.00  0.00    +0.000 N 
ATOM     25  C   UNL     1       7.153   6.473  17.740  0.00  0.00    +0.000 A 
ATOM     26  C   UNL     1       7.747   6.428  18.976  0.00  0.00    +0.000 A 
ATOM     27  C   UNL     1       8.309   5.145  19.049  0.00  0.00    +0.000 A 
ATOM     28  N   UNL     1       8.038   4.403  17.974  0.00  0.00    +0.000 NA
ENDBRANCH  23  24
ENDBRANCH  17  18
ENDBRANCH   3  17
TORSDOF 5
ENDMDL
MODEL 6
REMARK VINA RESULT:      -8.2      2.967      5.139
REMARK  Name = 
REMARK  5 active torsions:
REMARK  status: ('A' for Active; 'I' for Inactive)
REMARK    1  A    between atoms: C_2  and  C_16
REMARK    2  A    between atoms: N_3  and  C_4
REMARK    3  A    between atoms: C_4  and  C_5
REMARK    4  A    between atoms: C_10  and  N_11
REMARK    5  A    between atoms: C_18  and  C_19
REMARK                            x       y       z     vdW  Elec       q    Type
REMARK                         _______ _______ _______ _____ _____    ______ ____
ROOT
ATOM      1  O   UNL     1       2.417   4.622  18.238  0.00  0.00    +0.000 OA
ATOM      2  C   UNL     1       3.036   5.624  17.878  0.00  0.00    +0.000 C 
ATOM      3  N   UNL     1       4.178   5.545  17.120  0.00  0.00    +0.000 N 
ATOM      4  H   UNL     1       4.708   6.386  16.916  0.00  0.00    +0.000 HD
ENDROOT
BRANCH   2   5
ATOM      5  C   UNL     1       2.582   6.959  18.245  0.00  0.00    +0.000 A 
ATOM      6  C   UNL     1       1.901   7.267  19.443  0.00  0.00    +0.000 A 
ATOM      7  C   UNL     1       1.608   8.603  19.368  0.00  0.00    +0.000 A 
ATOM      8  O   UNL     1       2.110   9.086  18.192  0.00  0.00    +0.000 OA
ATOM      9  N   UNL     1       2.730   8.057  17.484  0.00  0.00    +0.000 NA
BRANCH   7  10
ATOM     10  C   UNL     1       0.891   9.525  20.241  0.00  0.00    +0.000 A 
ATOM     11  C   UNL     1       0.252  10.671  19.748  0.00  0.00    +0.000 A 
ATOM     12  C   UNL     1      -0.454  11.522  20.608  0.00  0.00    +0.000 A 
ATOM     13  C   UNL     1      -0.532  11.241  21.972  0.00  0.00    +0.000 A 
ATOM     14  C   UNL     1       0.103  10.113  22.480  0.00  0.00    +0.000 A 
ATOM     15  C   UNL     1       0.804   9.272  21.621  0.00  0.00    +0.000 A 
ATOM     16  F   UNL     1       1.398   8.197  22.162  0.00  0.00    +0.000 F 
ENDBRANCH   7  10
ENDBRANCH   2   5
BRANCH   3  17
ATOM     17  C   UNL     1       4.719   4.269  16.734  0.00  0.00    +0.000 C 
BRANCH  17  18
ATOM     18  C   UNL     1       5.703   4.378  15.599  0.00  0.00    +0.000 A 
ATOM     19  C   UNL     1       5.391   3.768  14.370  0.00  0.00    +0.000 A 
ATOM     20  C   UNL     1       6.208   3.949  13.261  0.00  0.00    +0.000 A 
ATOM     21  C   UNL     1       7.309   4.770  13.394  0.00  0.00    +0.000 A 
ATOM     22  N   UNL     1       7.652   5.382  14.548  0.00  0.00    +0.000 NA
ATOM     23  C   UNL     1       6.880   5.136  15.650  0.00  0.00    +0.000 A 
BRANCH  23  24
ATOM     24  N   UNL     1       7.356   5.675  16.884  0.00  0.00    +0.000 N 
ATOM     25  C   UNL     1       7.578   4.962  18.044  0.00  0.00    +0.000 A 
ATOM     26  C   UNL     1       7.958   5.864  19.007  0.00  0.00    +0.000 A 
ATOM     27  C   UNL     1       7.906   7.109  18.363  0.00  0.00    +0.000 A 
ATOM     28  N   UNL     1       7.584   7.007  17.073  0.00  0.00    +0.000 NA
ENDBRANCH  23  24
ENDBRANCH  17  18
ENDBRANCH   3  17
TORSDOF 5
ENDMDL
MODEL 7
REMARK VINA RESULT:      -8.1      1.349      1.566
REMARK  Name = 
REMARK  5 active torsions:
REMARK  status: ('A' for Active; 'I' for Inactive)
REMARK    1  A    between atoms: C_2  and  C_16
REMARK    2  A    between atoms: N_3  and  C_4
REMARK    3  A    between atoms: C_4  and  C_5
REMARK    4  A    between atoms: C_10  and  N_11
REMARK    5  A    between atoms: C_18  and  C_19
REMARK                            x       y       z     vdW  Elec       q    Type
REMARK                         _______ _______ _______ _____ _____    ______ ____
ROOT
ATOM      1  O   UNL     1       2.177   8.808  17.800  0.00  0.00    +0.000 OA
ATOM      2  C   UNL     1       2.053   8.211  18.869  0.00  0.00    +0.000 C 
ATOM      3  N   UNL     1       2.499   6.925  19.045  0.00  0.00    +0.000 N 
ATOM      4  H   UNL     1       2.302   6.435  19.912  0.00  0.00    +0.000 HD
ENDROOT
BRANCH   2   5
ATOM      5  C   UNL     1       1.415   8.847  20.015  0.00  0.00    +0.000 A 
ATOM      6  C   UNL     1       0.745  10.089  19.965  0.00  0.00    +0.000 A 
ATOM      7  C   UNL     1       0.349  10.347  21.251  0.00  0.00    +0.000 A 
ATOM      8  O   UNL     1       0.740   9.299  22.037  0.00  0.00    +0.000 OA
ATOM      9  N   UNL     1       1.405   8.348  21.263  0.00  0.00    +0.000 NA
BRANCH   7  10
ATOM     10  C   UNL     1      -0.340  11.465  21.886  0.00  0.00    +0.000 A 
ATOM     11  C   UNL     1      -1.460  11.278  22.707  0.00  0.00    +0.000 A 
ATOM     12  C   UNL     1      -2.082  12.369  23.326  0.00  0.00    +0.000 A 
ATOM     13  C   UNL     1      -1.594  13.662  23.135  0.00  0.00    +0.000 A 
ATOM     14  C   UNL     1      -0.489  13.866  22.317  0.00  0.00    +0.000 A 
ATOM     15  C   UNL     1       0.124  12.779  21.703  0.00  0.00    +0.000 A 
ATOM     16  F   UNL     1       1.188  13.031  20.925  0.00  0.00    +0.000 F 
ENDBRANCH   7  10
ENDBRANCH   2   5
BRANCH   3  17
ATOM     17  C   UNL     1       3.115   6.204  17.962  0.00  0.00    +0.000 C 
BRANCH  17  18
ATOM     18  C   UNL     1       2.944   4.713  18.090  0.00  0.00    +0.000 A 
ATOM     19  C   UNL     1       1.684   4.204  18.454  0.00  0.00    +0.000 A 
ATOM     20  C   UNL     1       1.448   2.835  18.461  0.00  0.00    +0.000 A 
ATOM     21  C   UNL     1       2.473   1.998  18.069  0.00  0.00    +0.000 A 
ATOM     22  N   UNL     1       3.699   2.434  17.708  0.00  0.00    +0.000 NA
ATOM     23  C   UNL     1       3.939   3.779  17.776  0.00  0.00    +0.000 A 
BRANCH  23  24
ATOM     24  N   UNL     1       5.285   4.190  17.534  0.00  0.00    +0.000 N 
ATOM     25  C   UNL     1       5.879   4.321  16.296  0.00  0.00    +0.000 A 
ATOM     26  C   UNL     1       7.191   4.664  16.509  0.00  0.00    +0.000 A 
ATOM     27  C   UNL     1       7.326   4.683  17.905  0.00  0.00    +0.000 A 
ATOM     28  N   UNL     1       6.177   4.440  18.537  0.00  0.00    +0.000 NA
ENDBRANCH  23  24
ENDBRANCH  17  18
ENDBRANCH   3  17
TORSDOF 5
ENDMDL
MODEL 8
REMARK VINA RESULT:      -8.1      1.034      1.392
REMARK  Name = 
REMARK  5 active torsions:
REMARK  status: ('A' for Active; 'I' for Inactive)
REMARK    1  A    between atoms: C_2  and  C_16
REMARK    2  A    between atoms: N_3  and  C_4
REMARK    3  A    between atoms: C_4  and  C_5
REMARK    4  A    between atoms: C_10  and  N_11
REMARK    5  A    between atoms: C_18  and  C_19
REMARK                            x       y       z     vdW  Elec       q    Type
REMARK                         _______ _______ _______ _____ _____    ______ ____
ROOT
ATOM      1  O   UNL     1       1.293   9.144  18.876  0.00  0.00    +0.000 OA
ATOM      2  C   UNL     1       1.376   8.808  20.058  0.00  0.00    +0.000 C 
ATOM      3  N   UNL     1       2.008   7.654  20.448  0.00  0.00    +0.000 N 
ATOM      4  H   UNL     1       1.981   7.366  21.421  0.00  0.00    +0.000 HD
ENDROOT
BRANCH   2   5
ATOM      5  C   UNL     1       0.798   9.629  21.114  0.00  0.00    +0.000 A 
ATOM      6  C   UNL     1       0.060  10.812  20.889  0.00  0.00    +0.000 A 
ATOM      7  C   UNL     1      -0.245  11.299  22.132  0.00  0.00    +0.000 A 
ATOM      8  O   UNL     1       0.262  10.438  23.065  0.00  0.00    +0.000 OA
ATOM      9  N   UNL     1       0.914   9.382  22.430  0.00  0.00    +0.000 NA
BRANCH   7  10
ATOM     10  C   UNL     1      -0.941  12.491  22.602  0.00  0.00    +0.000 A 
ATOM     11  C   UNL     1      -0.449  13.782  22.363  0.00  0.00    +0.000 A 
ATOM     12  C   UNL     1      -1.155  14.909  22.801  0.00  0.00    +0.000 A 
ATOM     13  C   UNL     1      -2.364  14.763  23.484  0.00  0.00    +0.000 A 
ATOM     14  C   UNL     1      -2.862  13.490  23.737  0.00  0.00    +0.000 A 
ATOM     15  C   UNL     1      -2.155  12.374  23.300  0.00  0.00    +0.000 A 
ATOM     16  F   UNL     1      -2.681  11.169  23.570  0.00  0.00    +0.000 F 
ENDBRANCH   7  10
ENDBRANCH   2   5
BRANCH   3  17
ATOM     17  C   UNL     1       2.583   6.764  19.474  0.00  0.00    +0.000 C 
BRANCH  17  18
ATOM     18  C   UNL     1       2.629   5.336  19.953  0.00  0.00    +0.000 A 
ATOM     19  C   UNL     1       1.550   4.839  20.706  0.00  0.00    +0.000 A 
ATOM     20  C   UNL     1       1.492   3.496  21.059  0.00  0.00    +0.000 A 
ATOM     21  C   UNL     1       2.503   2.666  20.622  0.00  0.00    +0.000 A 
ATOM     22  N   UNL     1       3.559   3.091  19.896  0.00  0.00    +0.000 NA
ATOM     23  C   UNL     1       3.641   4.427  19.618  0.00  0.00    +0.000 A 
BRANCH  23  24
ATOM     24  N   UNL     1       4.842   4.865  18.981  0.00  0.00    +0.000 N 
ATOM     25  C   UNL     1       5.044   4.962  17.619  0.00  0.00    +0.000 A 
ATOM     26  C   UNL     1       6.348   5.348  17.429  0.00  0.00    +0.000 A 
ATOM     27  C   UNL     1       6.883   5.427  18.724  0.00  0.00    +0.000 A 
ATOM     28  N   UNL     1       5.977   5.179  19.671  0.00  0.00    +0.000 NA
ENDBRANCH  23  24
ENDBRANCH  17  18
ENDBRANCH   3  17
TORSDOF 5
ENDMDL
MODEL 9
REMARK VINA RESULT:      -8.1      3.340      9.376
REMARK  Name = 
REMARK  5 active torsions:
REMARK  status: ('A' for Active; 'I' for Inactive)
REMARK    1  A    between atoms: C_2  and  C_16
REMARK    2  A    between atoms: N_3  and  C_4
REMARK    3  A    between atoms: C_4  and  C_5
REMARK    4  A    between atoms: C_10  and  N_11
REMARK    5  A    between atoms: C_18  and  C_19
REMARK                            x       y       z     vdW  Elec       q    Type
REMARK                         _______ _______ _______ _____ _____    ______ ____
ROOT
ATOM      1  O   UNL     1       2.248   9.770  17.493  0.00  0.00    +0.000 OA
ATOM      2  C   UNL     1       1.712   9.348  18.519  0.00  0.00    +0.000 C 
ATOM      3  N   UNL     1       0.841  10.110  19.257  0.00  0.00    +0.000 N 
ATOM      4  H   UNL     1       0.488   9.760  20.141  0.00  0.00    +0.000 HD
ENDROOT
BRANCH   2   5
ATOM      5  C   UNL     1       1.982   8.002  19.007  0.00  0.00    +0.000 A 
ATOM      6  C   UNL     1       2.439   6.938  18.198  0.00  0.00    +0.000 A 
ATOM      7  C   UNL     1       2.507   5.848  19.024  0.00  0.00    +0.000 A 
ATOM      8  O   UNL     1       2.134   6.239  20.280  0.00  0.00    +0.000 OA
ATOM      9  N   UNL     1       1.809   7.595  20.276  0.00  0.00    +0.000 NA
BRANCH   7  10
ATOM     10  C   UNL     1       2.857   4.447  18.815  0.00  0.00    +0.000 A 
ATOM     11  C   UNL     1       3.874   3.819  19.545  0.00  0.00    +0.000 A 
ATOM     12  C   UNL     1       4.167   2.464  19.342  0.00  0.00    +0.000 A 
ATOM     13  C   UNL     1       3.448   1.719  18.407  0.00  0.00    +0.000 A 
ATOM     14  C   UNL     1       2.441   2.329  17.668  0.00  0.00    +0.000 A 
ATOM     15  C   UNL     1       2.155   3.675  17.873  0.00  0.00    +0.000 A 
ATOM     16  F   UNL     1       1.173   4.215  17.134  0.00  0.00    +0.000 F 
ENDBRANCH   7  10
ENDBRANCH   2   5
BRANCH   3  17
ATOM     17  C   UNL     1       0.536  11.462  18.870  0.00  0.00    +0.000 C 
BRANCH  17  18
ATOM     18  C   UNL     1       1.319  12.479  19.659  0.00  0.00    +0.000 A 
ATOM     19  C   UNL     1       2.391  13.142  19.034  0.00  0.00    +0.000 A 
ATOM     20  C   UNL     1       3.059  14.175  19.681  0.00  0.00    +0.000 A 
ATOM     21  C   UNL     1       2.618  14.549  20.934  0.00  0.00    +0.000 A 
ATOM     22  N   UNL     1       1.593  13.948  21.576  0.00  0.00    +0.000 NA
ATOM     23  C   UNL     1       0.993  12.886  20.959  0.00  0.00    +0.000 A 
BRANCH  23  24
ATOM     24  N   UNL     1       0.017  12.181  21.728  0.00  0.00    +0.000 N 
ATOM     25  C   UNL     1      -1.219  12.665  22.103  0.00  0.00    +0.000 A 
ATOM     26  C   UNL     1      -1.809  11.706  22.888  0.00  0.00    +0.000 A 
ATOM     27  C   UNL     1      -0.852  10.685  22.975  0.00  0.00    +0.000 A 
ATOM     28  N   UNL     1       0.237  10.938  22.248  0.00  0.00    +0.000 NA
ENDBRANCH  23  24
ENDBRANCH  17  18
ENDBRANCH   3  17
TORSDOF 5
ENDMDL
