MODEL 1
REMARK VINA RESULT:      -9.6      0.000      0.000
REMARK  Name = 
REMARK  3 active torsions:
REMARK  status: ('A' for Active; 'I' for Inactive)
REMARK    1  A    between atoms: C_6  and  C_7
REMARK    2  A    between atoms: C_12  and  C_14
REMARK    3  A    between atoms: C_16  and  C_17
REMARK                            x       y       z     vdW  Elec       q    Type
REMARK                         _______ _______ _______ _____ _____    ______ ____
ROOT
ATOM      1  C   UNL     1      -2.270  12.463  19.070  0.00  0.00    +0.000 C 
ATOM      2  C   UNL     1      -2.833  11.501  18.004  0.00  0.00    +0.000 C 
ATOM      3  C   UNL     1      -2.300  10.085  18.121  0.00  0.00    +0.000 C 
ATOM      4  C   UNL     1      -0.785  10.101  18.166  0.00  0.00    +0.000 C 
ATOM      5  N   UNL     1      -0.346  10.819  19.357  0.00  0.00    +0.000 N 
ATOM      6  C   UNL     1       0.618  10.355  20.274  0.00  0.00    +0.000 C 
ATOM      7  O   UNL     1       0.898  11.013  21.279  0.00  0.00    +0.000 OA
ATOM      8  C   UNL     1      -0.792  12.213  19.448  0.00  0.00    +0.000 C 
ENDROOT
BRANCH   1  14
ATOM      9  N   UNL     1      -6.806  12.106  20.210  0.00  0.00    +0.000 N 
ATOM     10  C   UNL     1      -5.532  12.352  20.674  0.00  0.00    +0.000 A 
ATOM     11  N   UNL     1      -5.338  12.511  21.984  0.00  0.00    +0.000 NA
ATOM     12  C   UNL     1      -4.065  12.713  22.376  0.00  0.00    +0.000 A 
ATOM     13  C   UNL     1      -2.988  12.762  21.515  0.00  0.00    +0.000 A 
ATOM     14  C   UNL     1      -3.290  12.598  20.182  0.00  0.00    +0.000 A 
ATOM     15  N   UNL     1      -4.565  12.417  19.759  0.00  0.00    +0.000 NA
ATOM     16  H   UNL     1      -7.488  12.440  20.873  0.00  0.00    +0.000 HD
ATOM     17  H   UNL     1      -6.887  12.420  19.253  0.00  0.00    +0.000 HD
ENDBRANCH   1  14
BRANCH   6  18
ATOM     18  C   UNL     1       1.249   9.029  20.070  0.00  0.00    +0.000 A 
ATOM     19  C   UNL     1       1.834   8.565  18.856  0.00  0.00    +0.000 A 
ATOM     20  C   UNL     1       2.335   7.305  19.120  0.00  0.00    +0.000 A 
ATOM     21  N   UNL     1       2.025   7.088  20.435  0.00  0.00    +0.000 N 
ATOM     22  N   UNL     1       1.303   8.061  21.003  0.00  0.00    +0.000 NA
ATOM     23  H   UNL     1       2.280   6.288  21.004  0.00  0.00    +0.000 HD
BRANCH  20  24
ATOM     24  C   UNL     1       3.060   6.340  18.298  0.00  0.00    +0.000 A 
ATOM     25  C   UNL     1       2.630   5.012  18.207  0.00  0.00    +0.000 A 
ATOM     26  C   UNL     1       3.336   4.089  17.428  0.00  0.00    +0.000 A 
ATOM     27  C   UNL     1       4.491   4.472  16.728  0.00  0.00    +0.000 A 
ATOM     28  C   UNL     1       5.225   3.557  15.955  0.00  0.00    +0.000 A 
ATOM     29  C   UNL     1       6.379   3.958  15.278  0.00  0.00    +0.000 A 
ATOM     30  C   UNL     1       6.810   5.278  15.358  0.00  0.00    +0.000 A 
ATOM     31  C   UNL     1       6.090   6.200  16.117  0.00  0.00    +0.000 A 
ATOM     32  C   UNL     1       4.933   5.810  16.810  0.00  0.00    +0.000 A 
ATOM     33  C   UNL     1       4.209   6.725  17.592  0.00  0.00    +0.000 A 
ENDBRANCH  20  24
ENDBRANCH   6  18
TORSDOF 3
ENDMDL
MODEL 2
REMARK VINA RESULT:      -9.5      2.112      3.242
REMARK  Name = 
REMARK  3 active torsions:
REMARK  status: ('A' for Active; 'I' for Inactive)
REMARK    1  A    between atoms: C_6  and  C_7
REMARK    2  A    between atoms: C_12  and  C_14
REMARK    3  A    between atoms: C_16  and  C_17
REMARK                            x       y       z     vdW  Elec       q    Type
REMARK                         _______ _______ _______ _____ _____    ______ ____
ROOT
ATOM      1  C   UNL     1      -3.250  13.048  20.673  0.00  0.00    +0.000 C 
ATOM      2  C   UNL     1      -3.138  12.528  19.224  0.00  0.00    +0.000 C 
ATOM      3  C   UNL     1      -2.375  11.223  19.104  0.00  0.00    +0.000 C 
ATOM      4  C   UNL     1      -1.033  11.339  19.798  0.00  0.00    +0.000 C 
ATOM      5  N   UNL     1      -1.245  11.577  21.222  0.00  0.00    +0.000 N 
ATOM      6  C   UNL     1      -0.610  10.872  22.264  0.00  0.00    +0.000 C 
ATOM      7  O   UNL     1      -0.882  11.114  23.443  0.00  0.00    +0.000 OA
ATOM      8  C   UNL     1      -2.003  12.788  21.549  0.00  0.00    +0.000 C 
ENDROOT
BRANCH   1  14
ATOM      9  N   UNL     1      -5.823  12.429  24.546  0.00  0.00    +0.000 N 
ATOM     10  C   UNL     1      -5.823  12.429  23.168  0.00  0.00    +0.000 A 
ATOM     11  N   UNL     1      -6.976  12.260  22.518  0.00  0.00    +0.000 NA
ATOM     12  C   UNL     1      -6.913  12.307  21.173  0.00  0.00    +0.000 A 
ATOM     13  C   UNL     1      -5.750  12.512  20.459  0.00  0.00    +0.000 A 
ATOM     14  C   UNL     1      -4.611  12.664  21.217  0.00  0.00    +0.000 A 
ATOM     15  N   UNL     1      -4.644  12.599  22.570  0.00  0.00    +0.000 NA
ATOM     16  H   UNL     1      -6.632  11.937  24.893  0.00  0.00    +0.000 HD
ATOM     17  H   UNL     1      -4.916  12.144  24.887  0.00  0.00    +0.000 HD
ENDBRANCH   1  14
BRANCH   6  18
ATOM     18  C   UNL     1       0.341   9.782  21.943  0.00  0.00    +0.000 A 
ATOM     19  C   UNL     1       0.171   8.806  20.919  0.00  0.00    +0.000 A 
ATOM     20  C   UNL     1       1.303   8.014  20.941  0.00  0.00    +0.000 A 
ATOM     21  N   UNL     1       2.061   8.538  21.953  0.00  0.00    +0.000 N 
ATOM     22  N   UNL     1       1.476   9.537  22.624  0.00  0.00    +0.000 NA
ATOM     23  H   UNL     1       2.991   8.253  22.236  0.00  0.00    +0.000 HD
BRANCH  20  24
ATOM     24  C   UNL     1       1.728   6.877  20.129  0.00  0.00    +0.000 A 
ATOM     25  C   UNL     1       2.471   7.070  18.960  0.00  0.00    +0.000 A 
ATOM     26  C   UNL     1       2.864   5.978  18.179  0.00  0.00    +0.000 A 
ATOM     27  C   UNL     1       2.518   4.668  18.549  0.00  0.00    +0.000 A 
ATOM     28  C   UNL     1       2.887   3.558  17.770  0.00  0.00    +0.000 A 
ATOM     29  C   UNL     1       2.520   2.266  18.150  0.00  0.00    +0.000 A 
ATOM     30  C   UNL     1       1.786   2.064  19.314  0.00  0.00    +0.000 A 
ATOM     31  C   UNL     1       1.416   3.154  20.100  0.00  0.00    +0.000 A 
ATOM     32  C   UNL     1       1.771   4.460  19.728  0.00  0.00    +0.000 A 
ATOM     33  C   UNL     1       1.388   5.568  20.502  0.00  0.00    +0.000 A 
ENDBRANCH  20  24
ENDBRANCH   6  18
TORSDOF 3
ENDMDL
MODEL 3
REMARK VINA RESULT:      -9.5      0.828      1.314
REMARK  Name = 
REMARK  3 active torsions:
REMARK  status: ('A' for Active; 'I' for Inactive)
REMARK    1  A    between atoms: C_6  and  C_7
REMARK    2  A    between atoms: C_12  and  C_14
REMARK    3  A    between atoms: C_16  and  C_17
REMARK                            x       y       z     vdW  Elec       q    Type
REMARK                         _______ _______ _______ _____ _____    ______ ____
ROOT
ATOM      1  C   UNL     1      -2.224  12.384  19.254  0.00  0.00    +0.000 C 
ATOM      2  C   UNL     1      -2.685  11.492  18.082  0.00  0.00    +0.000 C 
ATOM      3  C   UNL     1      -2.166  10.068  18.162  0.00  0.00    +0.000 C 
ATOM      4  C   UNL     1      -0.663  10.071  18.350  0.00  0.00    +0.000 C 
ATOM      5  N   UNL     1      -0.337  10.713  19.619  0.00  0.00    +0.000 N 
ATOM      6  C   UNL     1       0.536  10.187  20.592  0.00  0.00    +0.000 C 
ATOM      7  O   UNL     1       0.721  10.781  21.658  0.00  0.00    +0.000 OA
ATOM      8  C   UNL     1      -0.788  12.101  19.754  0.00  0.00    +0.000 C 
ENDROOT
BRANCH   1  14
ATOM      9  N   UNL     1      -3.284  12.675  23.815  0.00  0.00    +0.000 N 
ATOM     10  C   UNL     1      -3.782  12.650  22.530  0.00  0.00    +0.000 A 
ATOM     11  N   UNL     1      -5.088  12.840  22.336  0.00  0.00    +0.000 NA
ATOM     12  C   UNL     1      -5.505  12.840  21.055  0.00  0.00    +0.000 A 
ATOM     13  C   UNL     1      -4.673  12.656  19.970  0.00  0.00    +0.000 A 
ATOM     14  C   UNL     1      -3.345  12.457  20.271  0.00  0.00    +0.000 A 
ATOM     15  N   UNL     1      -2.903  12.430  21.552  0.00  0.00    +0.000 NA
ATOM     16  H   UNL     1      -4.017  12.469  24.476  0.00  0.00    +0.000 HD
ATOM     17  H   UNL     1      -2.438  12.126  23.863  0.00  0.00    +0.000 HD
ENDBRANCH   1  14
BRANCH   6  18
ATOM     18  C   UNL     1       1.182   8.872  20.368  0.00  0.00    +0.000 A 
ATOM     19  C   UNL     1       1.810   8.450  19.160  0.00  0.00    +0.000 A 
ATOM     20  C   UNL     1       2.312   7.186  19.400  0.00  0.00    +0.000 A 
ATOM     21  N   UNL     1       1.960   6.925  20.697  0.00  0.00    +0.000 N 
ATOM     22  N   UNL     1       1.213   7.875  21.271  0.00  0.00    +0.000 NA
ATOM     23  H   UNL     1       2.201   6.109  21.248  0.00  0.00    +0.000 HD
BRANCH  20  24
ATOM     24  C   UNL     1       3.069   6.251  18.574  0.00  0.00    +0.000 A 
ATOM     25  C   UNL     1       3.021   4.876  18.819  0.00  0.00    +0.000 A 
ATOM     26  C   UNL     1       3.760   3.986  18.031  0.00  0.00    +0.000 A 
ATOM     27  C   UNL     1       4.568   4.455  16.983  0.00  0.00    +0.000 A 
ATOM     28  C   UNL     1       5.332   3.581  16.191  0.00  0.00    +0.000 A 
ATOM     29  C   UNL     1       6.139   4.071  15.162  0.00  0.00    +0.000 A 
ATOM     30  C   UNL     1       6.188   5.437  14.906  0.00  0.00    +0.000 A 
ATOM     31  C   UNL     1       5.433   6.317  15.680  0.00  0.00    +0.000 A 
ATOM     32  C   UNL     1       4.622   5.841  16.723  0.00  0.00    +0.000 A 
ATOM     33  C   UNL     1       3.870   6.719  17.521  0.00  0.00    +0.000 A 
ENDBRANCH  20  24
ENDBRANCH   6  18
TORSDOF 3
ENDMDL
MODEL 4
REMARK VINA RESULT:      -9.4      1.790      2.840
REMARK  Name = 
REMARK  3 active torsions:
REMARK  status: ('A' for Active; 'I' for Inactive)
REMARK    1  A    between atoms: C_6  and  C_7
REMARK    2  A    between atoms: C_12  and  C_14
REMARK    3  A    between atoms: C_16  and  C_17
REMARK                            x       y       z     vdW  Elec       q    Type
REMARK                         _______ _______ _______ _____ _____    ______ ____
ROOT
ATOM      1  C   UNL     1      -5.138  12.193  18.835  0.00  0.00    +0.000 C 
ATOM      2  C   UNL     1      -5.135  11.483  17.465  0.00  0.00    +0.000 C 
ATOM      3  C   UNL     1      -3.929  10.589  17.247  0.00  0.00    +0.000 C 
ATOM      4  C   UNL     1      -2.653  11.359  17.518  0.00  0.00    +0.000 C 
ATOM      5  N   UNL     1      -2.627  11.771  18.918  0.00  0.00    +0.000 N 
ATOM      6  C   UNL     1      -1.538  11.596  19.794  0.00  0.00    +0.000 C 
ATOM      7  O   UNL     1      -1.621  11.939  20.976  0.00  0.00    +0.000 OA
ATOM      8  C   UNL     1      -3.742  12.625  19.340  0.00  0.00    +0.000 C 
ENDROOT
BRANCH   1  14
ATOM      9  N   UNL     1      -7.201  12.157  23.049  0.00  0.00    +0.000 N 
ATOM     10  C   UNL     1      -7.060  11.502  21.845  0.00  0.00    +0.000 A 
ATOM     11  N   UNL     1      -7.807  10.423  21.602  0.00  0.00    +0.000 NA
ATOM     12  C   UNL     1      -7.647   9.849  20.393  0.00  0.00    +0.000 A 
ATOM     13  C   UNL     1      -6.776  10.309  19.427  0.00  0.00    +0.000 A 
ATOM     14  C   UNL     1      -6.042  11.420  19.774  0.00  0.00    +0.000 A 
ATOM     15  N   UNL     1      -6.166  12.002  20.992  0.00  0.00    +0.000 NA
ATOM     16  H   UNL     1      -7.581  11.533  23.742  0.00  0.00    +0.000 HD
ATOM     17  H   UNL     1      -6.345  12.645  23.273  0.00  0.00    +0.000 HD
ENDBRANCH   1  14
BRANCH   6  18
ATOM     18  C   UNL     1      -0.306  10.928  19.312  0.00  0.00    +0.000 A 
ATOM     19  C   UNL     1       0.073   9.583  19.590  0.00  0.00    +0.000 A 
ATOM     20  C   UNL     1       1.259   9.363  18.917  0.00  0.00    +0.000 A 
ATOM     21  N   UNL     1       1.522  10.556  18.298  0.00  0.00    +0.000 N 
ATOM     22  N   UNL     1       0.652  11.532  18.584  0.00  0.00    +0.000 NA
ATOM     23  H   UNL     1       2.284  10.766  17.665  0.00  0.00    +0.000 HD
BRANCH  20  24
ATOM     24  C   UNL     1       2.119   8.190  18.790  0.00  0.00    +0.000 A 
ATOM     25  C   UNL     1       2.099   7.180  19.756  0.00  0.00    +0.000 A 
ATOM     26  C   UNL     1       2.935   6.064  19.636  0.00  0.00    +0.000 A 
ATOM     27  C   UNL     1       3.815   5.939  18.549  0.00  0.00    +0.000 A 
ATOM     28  C   UNL     1       4.675   4.836  18.418  0.00  0.00    +0.000 A 
ATOM     29  C   UNL     1       5.552   4.738  17.335  0.00  0.00    +0.000 A 
ATOM     30  C   UNL     1       5.574   5.736  16.366  0.00  0.00    +0.000 A 
ATOM     31  C   UNL     1       4.723   6.835  16.479  0.00  0.00    +0.000 A 
ATOM     32  C   UNL     1       3.842   6.950  17.566  0.00  0.00    +0.000 A 
ATOM     33  C   UNL     1       2.992   8.061  17.700  0.00  0.00    +0.000 A 
ENDBRANCH  20  24
ENDBRANCH   6  18
TORSDOF 3
ENDMDL
MODEL 5
REMARK VINA RESULT:      -9.2      1.262      1.541
REMARK  Name = 
REMARK  3 active torsions:
REMARK  status: ('A' for Active; 'I' for Inactive)
REMARK    1  A    between atoms: C_6  and  C_7
REMARK    2  A    between atoms: C_12  and  C_14
REMARK    3  A    between atoms: C_16  and  C_17
REMARK                            x       y       z     vdW  Elec       q    Type
REMARK                         _______ _______ _______ _____ _____    ______ ____
ROOT
ATOM      1  C   UNL     1      -3.518  11.954  18.265  0.00  0.00    +0.000 C 
ATOM      2  C   UNL     1      -3.580  10.850  17.188  0.00  0.00    +0.000 C 
ATOM      3  C   UNL     1      -2.758   9.621  17.530  0.00  0.00    +0.000 C 
ATOM      4  C   UNL     1      -1.342  10.025  17.885  0.00  0.00    +0.000 C 
ATOM      5  N   UNL     1      -1.364  10.865  19.077  0.00  0.00    +0.000 N 
ATOM      6  C   UNL     1      -0.543  10.688  20.208  0.00  0.00    +0.000 C 
ATOM      7  O   UNL     1      -0.660  11.424  21.192  0.00  0.00    +0.000 OA
ATOM      8  C   UNL     1      -2.145  12.100  18.959  0.00  0.00    +0.000 C 
ENDROOT
BRANCH   1  14
ATOM      9  N   UNL     1      -7.478   9.570  19.068  0.00  0.00    +0.000 N 
ATOM     10  C   UNL     1      -6.664  10.599  19.489  0.00  0.00    +0.000 A 
ATOM     11  N   UNL     1      -6.961  11.240  20.621  0.00  0.00    +0.000 NA
ATOM     12  C   UNL     1      -6.106  12.211  20.995  0.00  0.00    +0.000 A 
ATOM     13  C   UNL     1      -4.976  12.564  20.286  0.00  0.00    +0.000 A 
ATOM     14  C   UNL     1      -4.760  11.854  19.127  0.00  0.00    +0.000 A 
ATOM     15  N   UNL     1      -5.617  10.888  18.716  0.00  0.00    +0.000 NA
ATOM     16  H   UNL     1      -8.398   9.667  19.469  0.00  0.00    +0.000 HD
ATOM     17  H   UNL     1      -7.410   9.470  18.065  0.00  0.00    +0.000 HD
ENDBRANCH   1  14
BRANCH   6  18
ATOM     18  C   UNL     1       0.421   9.563  20.249  0.00  0.00    +0.000 A 
ATOM     19  C   UNL     1       0.893   8.831  19.121  0.00  0.00    +0.000 A 
ATOM     20  C   UNL     1       1.800   7.908  19.605  0.00  0.00    +0.000 A 
ATOM     21  N   UNL     1       1.814   8.125  20.956  0.00  0.00    +0.000 N 
ATOM     22  N   UNL     1       0.939   9.046  21.379  0.00  0.00    +0.000 NA
ATOM     23  H   UNL     1       2.401   7.672  21.647  0.00  0.00    +0.000 HD
BRANCH  20  24
ATOM     24  C   UNL     1       2.629   6.902  18.948  0.00  0.00    +0.000 A 
ATOM     25  C   UNL     1       2.677   5.589  19.428  0.00  0.00    +0.000 A 
ATOM     26  C   UNL     1       3.483   4.632  18.801  0.00  0.00    +0.000 A 
ATOM     27  C   UNL     1       4.264   4.970  17.684  0.00  0.00    +0.000 A 
ATOM     28  C   UNL     1       5.093   4.029  17.051  0.00  0.00    +0.000 A 
ATOM     29  C   UNL     1       5.871   4.391  15.949  0.00  0.00    +0.000 A 
ATOM     30  C   UNL     1       5.825   5.692  15.461  0.00  0.00    +0.000 A 
ATOM     31  C   UNL     1       5.003   6.637  16.075  0.00  0.00    +0.000 A 
ATOM     32  C   UNL     1       4.221   6.290  17.188  0.00  0.00    +0.000 A 
ATOM     33  C   UNL     1       3.402   7.237  17.826  0.00  0.00    +0.000 A 
ENDBRANCH  20  24
ENDBRANCH   6  18
TORSDOF 3
ENDMDL
MODEL 6
REMARK VINA RESULT:      -9.1      1.483      2.412
REMARK  Name = 
REMARK  3 active torsions:
REMARK  status: ('A' for Active; 'I' for Inactive)
REMARK    1  A    between atoms: C_6  and  C_7
REMARK    2  A    between atoms: C_12  and  C_14
REMARK    3  A    between atoms: C_16  and  C_17
REMARK                            x       y       z     vdW  Elec       q    Type
REMARK                         _______ _______ _______ _____ _____    ______ ____
ROOT
ATOM      1  C   UNL     1      -3.401  12.904  20.360  0.00  0.00    +0.000 C 
ATOM      2  C   UNL     1      -3.175  12.362  18.933  0.00  0.00    +0.000 C 
ATOM      3  C   UNL     1      -2.343  11.094  18.889  0.00  0.00    +0.000 C 
ATOM      4  C   UNL     1      -1.054  11.291  19.661  0.00  0.00    +0.000 C 
ATOM      5  N   UNL     1      -1.365  11.545  21.063  0.00  0.00    +0.000 N 
ATOM      6  C   UNL     1      -0.762  10.894  22.157  0.00  0.00    +0.000 C 
ATOM      7  O   UNL     1      -1.119  11.144  23.312  0.00  0.00    +0.000 OA
ATOM      8  C   UNL     1      -2.199  12.724  21.316  0.00  0.00    +0.000 C 
ENDROOT
BRANCH   1  14
ATOM      9  N   UNL     1      -6.249  12.433  24.059  0.00  0.00    +0.000 N 
ATOM     10  C   UNL     1      -6.129  12.309  22.692  0.00  0.00    +0.000 A 
ATOM     11  N   UNL     1      -7.207  11.992  21.972  0.00  0.00    +0.000 NA
ATOM     12  C   UNL     1      -7.031  11.921  20.638  0.00  0.00    +0.000 A 
ATOM     13  C   UNL     1      -5.829  12.154  20.002  0.00  0.00    +0.000 A 
ATOM     14  C   UNL     1      -4.773  12.463  20.829  0.00  0.00    +0.000 A 
ATOM     15  N   UNL     1      -4.918  12.518  22.176  0.00  0.00    +0.000 NA
ATOM     16  H   UNL     1      -7.047  11.912  24.387  0.00  0.00    +0.000 HD
ATOM     17  H   UNL     1      -5.356  12.253  24.496  0.00  0.00    +0.000 HD
ENDBRANCH   1  14
BRANCH   6  18
ATOM     18  C   UNL     1       0.258   9.845  21.920  0.00  0.00    +0.000 A 
ATOM     19  C   UNL     1       0.252   8.908  20.847  0.00  0.00    +0.000 A 
ATOM     20  C   UNL     1       1.398   8.149  20.983  0.00  0.00    +0.000 A 
ATOM     21  N   UNL     1       2.005   8.654  22.101  0.00  0.00    +0.000 N 
ATOM     22  N   UNL     1       1.307   9.607  22.729  0.00  0.00    +0.000 NA
ATOM     23  H   UNL     1       2.902   8.386  22.489  0.00  0.00    +0.000 HD
BRANCH  20  24
ATOM     24  C   UNL     1       1.961   7.060  20.190  0.00  0.00    +0.000 A 
ATOM     25  C   UNL     1       1.708   5.726  20.525  0.00  0.00    +0.000 A 
ATOM     26  C   UNL     1       2.260   4.686  19.769  0.00  0.00    +0.000 A 
ATOM     27  C   UNL     1       3.083   4.959  18.664  0.00  0.00    +0.000 A 
ATOM     28  C   UNL     1       3.662   3.930  17.902  0.00  0.00    +0.000 A 
ATOM     29  C   UNL     1       4.487   4.225  16.815  0.00  0.00    +0.000 A 
ATOM     30  C   UNL     1       4.738   5.549  16.470  0.00  0.00    +0.000 A 
ATOM     31  C   UNL     1       4.168   6.581  17.214  0.00  0.00    +0.000 A 
ATOM     32  C   UNL     1       3.342   6.301  18.314  0.00  0.00    +0.000 A 
ATOM     33  C   UNL     1       2.775   7.332  19.081  0.00  0.00    +0.000 A 
ENDBRANCH  20  24
ENDBRANCH   6  18
TORSDOF 3
ENDMDL
MODEL 7
REMARK VINA RESULT:      -9.0      1.962      3.056
REMARK  Name = 
REMARK  3 active torsions:
REMARK  status: ('A' for Active; 'I' for Inactive)
REMARK    1  A    between atoms: C_6  and  C_7
REMARK    2  A    between atoms: C_12  and  C_14
REMARK    3  A    between atoms: C_16  and  C_17
REMARK                            x       y       z     vdW  Elec       q    Type
REMARK                         _______ _______ _______ _____ _____    ______ ____
ROOT
ATOM      1  C   UNL     1      -4.743  11.981  18.144  0.00  0.00    +0.000 C 
ATOM      2  C   UNL     1      -4.691  11.253  16.785  0.00  0.00    +0.000 C 
ATOM      3  C   UNL     1      -3.481  10.351  16.624  0.00  0.00    +0.000 C 
ATOM      4  C   UNL     1      -2.213  11.122  16.934  0.00  0.00    +0.000 C 
ATOM      5  N   UNL     1      -2.239  11.553  18.327  0.00  0.00    +0.000 N 
ATOM      6  C   UNL     1      -1.184  11.386  19.246  0.00  0.00    +0.000 C 
ATOM      7  O   UNL     1      -1.310  11.746  20.420  0.00  0.00    +0.000 OA
ATOM      8  C   UNL     1      -3.365  12.416  18.696  0.00  0.00    +0.000 C 
ENDROOT
BRANCH   1  14
ATOM      9  N   UNL     1      -7.143  12.109  22.173  0.00  0.00    +0.000 N 
ATOM     10  C   UNL     1      -6.873  11.385  21.032  0.00  0.00    +0.000 A 
ATOM     11  N   UNL     1      -7.546  10.256  20.804  0.00  0.00    +0.000 NA
ATOM     12  C   UNL     1      -7.260   9.615  19.654  0.00  0.00    +0.000 A 
ATOM     13  C   UNL     1      -6.335  10.056  18.731  0.00  0.00    +0.000 A 
ATOM     14  C   UNL     1      -5.684  11.224  19.059  0.00  0.00    +0.000 A 
ATOM     15  N   UNL     1      -5.936  11.876  20.220  0.00  0.00    +0.000 NA
ATOM     16  H   UNL     1      -7.551  11.511  22.875  0.00  0.00    +0.000 HD
ATOM     17  H   UNL     1      -6.332  12.654  22.430  0.00  0.00    +0.000 HD
ENDBRANCH   1  14
BRANCH   6  18
ATOM     18  C   UNL     1       0.063  10.707  18.820  0.00  0.00    +0.000 A 
ATOM     19  C   UNL     1       0.278   9.299  18.800  0.00  0.00    +0.000 A 
ATOM     20  C   UNL     1       1.551   9.104  18.300  0.00  0.00    +0.000 A 
ATOM     21  N   UNL     1       2.018  10.368  18.065  0.00  0.00    +0.000 N 
ATOM     22  N   UNL     1       1.187  11.346  18.444  0.00  0.00    +0.000 NA
ATOM     23  H   UNL     1       2.902  10.630  17.644  0.00  0.00    +0.000 HD
BRANCH  20  24
ATOM     24  C   UNL     1       2.326   7.899  18.020  0.00  0.00    +0.000 A 
ATOM     25  C   UNL     1       3.624   7.986  17.507  0.00  0.00    +0.000 A 
ATOM     26  C   UNL     1       4.358   6.828  17.228  0.00  0.00    +0.000 A 
ATOM     27  C   UNL     1       3.807   5.556  17.451  0.00  0.00    +0.000 A 
ATOM     28  C   UNL     1       4.519   4.381  17.162  0.00  0.00    +0.000 A 
ATOM     29  C   UNL     1       3.946   3.126  17.379  0.00  0.00    +0.000 A 
ATOM     30  C   UNL     1       2.658   3.029  17.895  0.00  0.00    +0.000 A 
ATOM     31  C   UNL     1       1.939   4.187  18.192  0.00  0.00    +0.000 A 
ATOM     32  C   UNL     1       2.499   5.455  17.972  0.00  0.00    +0.000 A 
ATOM     33  C   UNL     1       1.778   6.629  18.251  0.00  0.00    +0.000 A 
ENDBRANCH  20  24
ENDBRANCH   6  18
TORSDOF 3
ENDMDL
MODEL 8
REMARK VINA RESULT:      -9.0      1.901      2.983
REMARK  Name = 
REMARK  3 active torsions:
REMARK  status: ('A' for Active; 'I' for Inactive)
REMARK    1  A    between atoms: C_6  and  C_7
REMARK    2  A    between atoms: C_12  and  C_14
REMARK    3  A    between atoms: C_16  and  C_17
REMARK                            x       y       z     vdW  Elec       q    Type
REMARK                         _______ _______ _______ _____ _____    ______ ____
ROOT
ATOM      1  C   UNL     1      -3.101  12.499  18.865  0.00  0.00    +0.000 C 
ATOM      2  C   UNL     1      -3.762  11.298  18.157  0.00  0.00    +0.000 C 
ATOM      3  C   UNL     1      -2.901  10.049  18.148  0.00  0.00    +0.000 C 
ATOM      4  C   UNL     1      -1.522  10.371  17.608  0.00  0.00    +0.000 C 
ATOM      5  N   UNL     1      -0.869  11.330  18.493  0.00  0.00    +0.000 N 
ATOM      6  C   UNL     1       0.440  11.205  18.997  0.00  0.00    +0.000 C 
ATOM      7  O   UNL     1       0.897  12.047  19.775  0.00  0.00    +0.000 OA
ATOM      8  C   UNL     1      -1.572  12.605  18.662  0.00  0.00    +0.000 C 
ENDROOT
BRANCH   1  14
ATOM      9  N   UNL     1      -6.920  12.031  21.549  0.00  0.00    +0.000 N 
ATOM     10  C   UNL     1      -5.567  12.291  21.531  0.00  0.00    +0.000 A 
ATOM     11  N   UNL     1      -4.916  12.427  22.688  0.00  0.00    +0.000 NA
ATOM     12  C   UNL     1      -3.589  12.645  22.601  0.00  0.00    +0.000 A 
ATOM     13  C   UNL     1      -2.895  12.732  21.412  0.00  0.00    +0.000 A 
ATOM     14  C   UNL     1      -3.654  12.591  20.273  0.00  0.00    +0.000 A 
ATOM     15  N   UNL     1      -4.994  12.394  20.332  0.00  0.00    +0.000 NA
ATOM     16  H   UNL     1      -7.321  12.338  22.422  0.00  0.00    +0.000 HD
ATOM     17  H   UNL     1      -7.342  12.363  20.694  0.00  0.00    +0.000 HD
ENDBRANCH   1  14
BRANCH   6  18
ATOM     18  C   UNL     1       1.254  10.016  18.649  0.00  0.00    +0.000 A 
ATOM     19  C   UNL     1       1.431   8.862  19.465  0.00  0.00    +0.000 A 
ATOM     20  C   UNL     1       2.223   7.990  18.744  0.00  0.00    +0.000 A 
ATOM     21  N   UNL     1       2.475   8.653  17.574  0.00  0.00    +0.000 N 
ATOM     22  N   UNL     1       1.982   9.896  17.523  0.00  0.00    +0.000 NA
ATOM     23  H   UNL     1       2.981   8.307  16.767  0.00  0.00    +0.000 HD
BRANCH  20  24
ATOM     24  C   UNL     1       2.726   6.649  19.028  0.00  0.00    +0.000 A 
ATOM     25  C   UNL     1       3.755   6.093  18.263  0.00  0.00    +0.000 A 
ATOM     26  C   UNL     1       4.224   4.802  18.532  0.00  0.00    +0.000 A 
ATOM     27  C   UNL     1       3.668   4.037  19.569  0.00  0.00    +0.000 A 
ATOM     28  C   UNL     1       4.112   2.733  19.846  0.00  0.00    +0.000 A 
ATOM     29  C   UNL     1       3.536   1.985  20.874  0.00  0.00    +0.000 A 
ATOM     30  C   UNL     1       2.515   2.533  21.645  0.00  0.00    +0.000 A 
ATOM     31  C   UNL     1       2.067   3.828  21.387  0.00  0.00    +0.000 A 
ATOM     32  C   UNL     1       2.631   4.589  20.352  0.00  0.00    +0.000 A 
ATOM     33  C   UNL     1       2.176   5.888  20.071  0.00  0.00    +0.000 A 
ENDBRANCH  20  24
ENDBRANCH   6  18
TORSDOF 3
ENDMDL
MODEL 9
REMARK VINA RESULT:      -8.9      2.421      3.467
REMARK  Name = 
REMARK  3 active torsions:
REMARK  status: ('A' for Active; 'I' for Inactive)
REMARK    1  A    between atoms: C_6  and  C_7
REMARK    2  A    between atoms: C_12  and  C_14
REMARK    3  A    between atoms: C_16  and  C_17
REMARK                            x       y       z     vdW  Elec       q    Type
REMARK                         _______ _______ _______ _____ _____    ______ ____
ROOT
ATOM      1  C   UNL     1      -1.527  12.221  22.104  0.00  0.00    +0.000 C 
ATOM      2  C   UNL     1      -1.562  11.208  23.268  0.00  0.00    +0.000 C 
ATOM      3  C   UNL     1      -0.518  10.114  23.152  0.00  0.00    +0.000 C 
ATOM      4  C   UNL     1      -0.603   9.455  21.790  0.00  0.00    +0.000 C 
ATOM      5  N   UNL     1      -0.299  10.441  20.758  0.00  0.00    +0.000 N 
ATOM      6  C   UNL     1       0.608  10.250  19.697  0.00  0.00    +0.000 C 
ATOM      7  O   UNL     1       0.833  11.157  18.892  0.00  0.00    +0.000 OA
ATOM      8  C   UNL     1      -1.187  11.608  20.726  0.00  0.00    +0.000 C 
ENDROOT
BRANCH   1  14
ATOM      9  N   UNL     1       2.246  14.913  21.378  0.00  0.00    +0.000 N 
ATOM     10  C   UNL     1       1.087  14.750  22.106  0.00  0.00    +0.000 A 
ATOM     11  N   UNL     1       0.713  15.709  22.955  0.00  0.00    +0.000 NA
ATOM     12  C   UNL     1      -0.447  15.505  23.608  0.00  0.00    +0.000 A 
ATOM     13  C   UNL     1      -1.241  14.388  23.447  0.00  0.00    +0.000 A 
ATOM     14  C   UNL     1      -0.766  13.450  22.559  0.00  0.00    +0.000 A 
ATOM     15  N   UNL     1       0.409  13.620  21.906  0.00  0.00    +0.000 NA
ATOM     16  H   UNL     1       2.859  15.564  21.843  0.00  0.00    +0.000 HD
ATOM     17  H   UNL     1       2.620  14.008  21.127  0.00  0.00    +0.000 HD
ENDBRANCH   1  14
BRANCH   6  18
ATOM     18  C   UNL     1       1.354   8.975  19.587  0.00  0.00    +0.000 A 
ATOM     19  C   UNL     1       1.839   8.396  18.378  0.00  0.00    +0.000 A 
ATOM     20  C   UNL     1       2.506   7.241  18.736  0.00  0.00    +0.000 A 
ATOM     21  N   UNL     1       2.380   7.188  20.098  0.00  0.00    +0.000 N 
ATOM     22  N   UNL     1       1.627   8.161  20.624  0.00  0.00    +0.000 NA
ATOM     23  H   UNL     1       2.788   6.507  20.728  0.00  0.00    +0.000 HD
BRANCH  20  24
ATOM     24  C   UNL     1       3.230   6.239  17.960  0.00  0.00    +0.000 A 
ATOM     25  C   UNL     1       2.894   4.885  18.047  0.00  0.00    +0.000 A 
ATOM     26  C   UNL     1       3.601   3.928  17.310  0.00  0.00    +0.000 A 
ATOM     27  C   UNL     1       4.664   4.305  16.475  0.00  0.00    +0.000 A 
ATOM     28  C   UNL     1       5.398   3.359  15.740  0.00  0.00    +0.000 A 
ATOM     29  C   UNL     1       6.461   3.756  14.925  0.00  0.00    +0.000 A 
ATOM     30  C   UNL     1       6.798   5.102  14.827  0.00  0.00    +0.000 A 
ATOM     31  C   UNL     1       6.076   6.054  15.546  0.00  0.00    +0.000 A 
ATOM     32  C   UNL     1       5.011   5.669  16.375  0.00  0.00    +0.000 A 
ATOM     33  C   UNL     1       4.287   6.617  17.119  0.00  0.00    +0.000 A 
ENDBRANCH  20  24
ENDBRANCH   6  18
TORSDOF 3
ENDMDL
