MODEL 1
REMARK VINA RESULT:      -8.9      0.000      0.000
REMARK  Name = 
REMARK  5 active torsions:
REMARK  status: ('A' for Active; 'I' for Inactive)
REMARK    1  A    between atoms: C_1  and  C_2
REMARK    2  A    between atoms: N_5  and  C_6
REMARK    3  A    between atoms: C_6  and  C_7
REMARK    4  A    between atoms: C_11  and  C_12
REMARK    5  A    between atoms: N_18  and  C_19
REMARK                            x       y       z     vdW  Elec       q    Type
REMARK                         _______ _______ _______ _____ _____    ______ ____
ROOT
ATOM      1  C   UNL     1       3.744   5.237  17.628  0.00  0.00    +0.000 A 
ATOM      2  C   UNL     1       3.358   6.575  17.769  0.00  0.00    +0.000 A 
ATOM      3  C   UNL     1       2.567   6.917  18.852  0.00  0.00    +0.000 A 
ATOM      4  C   UNL     1       2.157   6.002  19.818  0.00  0.00    +0.000 A 
ATOM      5  C   UNL     1       2.519   4.666  19.709  0.00  0.00    +0.000 A 
ATOM      6  C   UNL     1       3.324   4.299  18.606  0.00  0.00    +0.000 A 
ATOM      7  C   UNL     1       1.332   6.708  20.853  0.00  0.00    +0.000 C 
ATOM      8  N   UNL     1       1.305   8.079  20.371  0.00  0.00    +0.000 N 
ATOM      9  C   UNL     1       2.019   8.229  19.185  0.00  0.00    +0.000 C 
ATOM     10  O   UNL     1       2.210   9.211  18.490  0.00  0.00    +0.000 OA
ENDROOT
BRANCH   8  11
ATOM     11  C   UNL     1       0.592   9.108  21.020  0.00  0.00    +0.000 A 
ATOM     12  C   UNL     1       0.483   9.121  22.417  0.00  0.00    +0.000 A 
ATOM     13  C   UNL     1      -0.243  10.114  23.076  0.00  0.00    +0.000 A 
ATOM     14  C   UNL     1      -0.888  11.090  22.334  0.00  0.00    +0.000 A 
ATOM     15  C   UNL     1      -0.781  11.085  20.949  0.00  0.00    +0.000 A 
ATOM     16  F   UNL     1      -1.441  12.005  20.234  0.00  0.00    +0.000 F 
ATOM     17  C   UNL     1      -0.033  10.117  20.285  0.00  0.00    +0.000 A 
ENDBRANCH   8  11
BRANCH   5  18
ATOM     18  C   UNL     1       2.063   3.615  20.692  0.00  0.00    +0.000 C 
ATOM     19  F   UNL     1       2.423   3.892  21.976  0.00  0.00    +0.000 F 
ATOM     20  F   UNL     1       0.712   3.467  20.708  0.00  0.00    +0.000 F 
ATOM     21  F   UNL     1       2.573   2.382  20.423  0.00  0.00    +0.000 F 
ENDBRANCH   5  18
BRANCH   1  22
ATOM     22  C   UNL     1       4.613   4.825  16.454  0.00  0.00    +0.000 C 
BRANCH  22  27
ATOM     23  C   UNL     1       7.480   7.232  17.418  0.00  0.00    +0.000 C 
ATOM     24  C   UNL     1       6.968   6.036  18.140  0.00  0.00    +0.000 C 
ATOM     25  C   UNL     1       7.883   4.694  18.192  0.00  0.00    +0.000 C 
ATOM     26  C   UNL     1       6.653   4.813  17.541  0.00  0.00    +0.000 C 
ATOM     27  N   UNL     1       5.829   4.121  16.864  0.00  0.00    +0.000 NA
ENDBRANCH  22  27
ENDBRANCH   1  22
TORSDOF 4
ENDMDL
MODEL 2
REMARK VINA RESULT:      -8.7      0.862      1.224
REMARK  Name = 
REMARK  5 active torsions:
REMARK  status: ('A' for Active; 'I' for Inactive)
REMARK    1  A    between atoms: C_1  and  C_2
REMARK    2  A    between atoms: N_5  and  C_6
REMARK    3  A    between atoms: C_6  and  C_7
REMARK    4  A    between atoms: C_11  and  C_12
REMARK    5  A    between atoms: N_18  and  C_19
REMARK                            x       y       z     vdW  Elec       q    Type
REMARK                         _______ _______ _______ _____ _____    ______ ____
ROOT
ATOM      1  C   UNL     1       3.830   5.286  17.584  0.00  0.00    +0.000 A 
ATOM      2  C   UNL     1       3.455   6.633  17.624  0.00  0.00    +0.000 A 
ATOM      3  C   UNL     1       2.657   7.060  18.671  0.00  0.00    +0.000 A 
ATOM      4  C   UNL     1       2.230   6.220  19.698  0.00  0.00    +0.000 A 
ATOM      5  C   UNL     1       2.582   4.877  19.688  0.00  0.00    +0.000 A 
ATOM      6  C   UNL     1       3.393   4.425  18.623  0.00  0.00    +0.000 A 
ATOM      7  C   UNL     1       1.403   7.006  20.671  0.00  0.00    +0.000 C 
ATOM      8  N   UNL     1       1.392   8.339  20.090  0.00  0.00    +0.000 N 
ATOM      9  C   UNL     1       2.118   8.397  18.904  0.00  0.00    +0.000 C 
ATOM     10  O   UNL     1       2.324   9.324  18.141  0.00  0.00    +0.000 OA
ENDROOT
BRANCH   8  11
ATOM     11  C   UNL     1       0.683   9.418  20.657  0.00  0.00    +0.000 A 
ATOM     12  C   UNL     1       0.619  10.650  19.992  0.00  0.00    +0.000 A 
ATOM     13  C   UNL     1      -0.053  11.738  20.550  0.00  0.00    +0.000 A 
ATOM     14  C   UNL     1      -0.646  11.606  21.796  0.00  0.00    +0.000 A 
ATOM     15  C   UNL     1      -0.589  10.387  22.458  0.00  0.00    +0.000 A 
ATOM     16  F   UNL     1      -1.126  10.275  23.680  0.00  0.00    +0.000 F 
ATOM     17  C   UNL     1       0.052   9.287  21.895  0.00  0.00    +0.000 A 
ENDBRANCH   8  11
BRANCH   5  18
ATOM     18  C   UNL     1       2.108   3.904  20.740  0.00  0.00    +0.000 C 
ATOM     19  F   UNL     1       2.448   4.276  22.006  0.00  0.00    +0.000 F 
ATOM     20  F   UNL     1       0.756   3.758  20.746  0.00  0.00    +0.000 F 
ATOM     21  F   UNL     1       2.619   2.653  20.573  0.00  0.00    +0.000 F 
ENDBRANCH   5  18
BRANCH   1  22
ATOM     22  C   UNL     1       4.705   4.783  16.451  0.00  0.00    +0.000 C 
BRANCH  22  27
ATOM     23  C   UNL     1       7.536   7.257  17.350  0.00  0.00    +0.000 C 
ATOM     24  C   UNL     1       7.016   6.097  18.122  0.00  0.00    +0.000 C 
ATOM     25  C   UNL     1       7.938   4.766  18.262  0.00  0.00    +0.000 C 
ATOM     26  C   UNL     1       6.722   4.841  17.580  0.00  0.00    +0.000 C 
ATOM     27  N   UNL     1       5.916   4.110  16.922  0.00  0.00    +0.000 NA
ENDBRANCH  22  27
ENDBRANCH   1  22
TORSDOF 4
ENDMDL
MODEL 3
REMARK VINA RESULT:      -8.7      3.058      7.959
REMARK  Name = 
REMARK  5 active torsions:
REMARK  status: ('A' for Active; 'I' for Inactive)
REMARK    1  A    between atoms: C_1  and  C_2
REMARK    2  A    between atoms: N_5  and  C_6
REMARK    3  A    between atoms: C_6  and  C_7
REMARK    4  A    between atoms: C_11  and  C_12
REMARK    5  A    between atoms: N_18  and  C_19
REMARK                            x       y       z     vdW  Elec       q    Type
REMARK                         _______ _______ _______ _____ _____    ______ ____
ROOT
ATOM      1  C   UNL     1       2.740   6.154  19.364  0.00  0.00    +0.000 A 
ATOM      2  C   UNL     1       3.419   6.647  18.244  0.00  0.00    +0.000 A 
ATOM      3  C   UNL     1       3.985   5.738  17.368  0.00  0.00    +0.000 A 
ATOM      4  C   UNL     1       3.892   4.358  17.534  0.00  0.00    +0.000 A 
ATOM      5  C   UNL     1       3.229   3.833  18.635  0.00  0.00    +0.000 A 
ATOM      6  C   UNL     1       2.649   4.749  19.541  0.00  0.00    +0.000 A 
ATOM      7  C   UNL     1       4.597   3.672  16.400  0.00  0.00    +0.000 C 
ATOM      8  N   UNL     1       5.100   4.783  15.608  0.00  0.00    +0.000 N 
ATOM      9  C   UNL     1       4.760   6.015  16.162  0.00  0.00    +0.000 C 
ATOM     10  O   UNL     1       5.010   7.149  15.793  0.00  0.00    +0.000 OA
ENDROOT
BRANCH   8  11
ATOM     11  C   UNL     1       5.879   4.607  14.446  0.00  0.00    +0.000 A 
ATOM     12  C   UNL     1       5.484   3.691  13.461  0.00  0.00    +0.000 A 
ATOM     13  C   UNL     1       6.256   3.481  12.319  0.00  0.00    +0.000 A 
ATOM     14  C   UNL     1       7.448   4.172  12.167  0.00  0.00    +0.000 A 
ATOM     15  C   UNL     1       7.844   5.083  13.137  0.00  0.00    +0.000 A 
ATOM     16  F   UNL     1       9.016   5.717  13.008  0.00  0.00    +0.000 F 
ATOM     17  C   UNL     1       7.064   5.323  14.265  0.00  0.00    +0.000 A 
ENDBRANCH   8  11
BRANCH   5  18
ATOM     18  C   UNL     1       3.139   2.350  18.901  0.00  0.00    +0.000 C 
ATOM     19  F   UNL     1       2.701   1.639  17.825  0.00  0.00    +0.000 F 
ATOM     20  F   UNL     1       4.338   1.807  19.242  0.00  0.00    +0.000 F 
ATOM     21  F   UNL     1       2.286   2.045  19.917  0.00  0.00    +0.000 F 
ENDBRANCH   5  18
BRANCH   1  22
ATOM     22  C   UNL     1       2.106   7.122  20.345  0.00  0.00    +0.000 C 
BRANCH  22  27
ATOM     23  C   UNL     1      -0.446   9.035  22.528  0.00  0.00    +0.000 C 
ATOM     24  C   UNL     1       0.744   9.549  21.798  0.00  0.00    +0.000 C 
ATOM     25  C   UNL     1       0.522  10.469  20.477  0.00  0.00    +0.000 C 
ATOM     26  C   UNL     1       1.095   9.196  20.491  0.00  0.00    +0.000 C 
ATOM     27  N   UNL     1       1.619   8.344  19.705  0.00  0.00    +0.000 NA
ENDBRANCH  22  27
ENDBRANCH   1  22
TORSDOF 4
ENDMDL
MODEL 4
REMARK VINA RESULT:      -8.7      1.558      2.268
REMARK  Name = 
REMARK  5 active torsions:
REMARK  status: ('A' for Active; 'I' for Inactive)
REMARK    1  A    between atoms: C_1  and  C_2
REMARK    2  A    between atoms: N_5  and  C_6
REMARK    3  A    between atoms: C_6  and  C_7
REMARK    4  A    between atoms: C_11  and  C_12
REMARK    5  A    between atoms: N_18  and  C_19
REMARK                            x       y       z     vdW  Elec       q    Type
REMARK                         _______ _______ _______ _____ _____    ______ ____
ROOT
ATOM      1  C   UNL     1       3.864   4.252  17.808  0.00  0.00    +0.000 A 
ATOM      2  C   UNL     1       3.599   5.625  17.739  0.00  0.00    +0.000 A 
ATOM      3  C   UNL     1       2.831   6.194  18.739  0.00  0.00    +0.000 A 
ATOM      4  C   UNL     1       2.329   5.475  19.821  0.00  0.00    +0.000 A 
ATOM      5  C   UNL     1       2.569   4.111  19.919  0.00  0.00    +0.000 A 
ATOM      6  C   UNL     1       3.349   3.513  18.904  0.00  0.00    +0.000 A 
ATOM      7  C   UNL     1       1.561   6.398  20.719  0.00  0.00    +0.000 C 
ATOM      8  N   UNL     1       1.664   7.679  20.037  0.00  0.00    +0.000 N 
ATOM      9  C   UNL     1       2.402   7.585  18.860  0.00  0.00    +0.000 C 
ATOM     10  O   UNL     1       2.689   8.430  18.031  0.00  0.00    +0.000 OA
ENDROOT
BRANCH   8  11
ATOM     11  C   UNL     1       1.041   8.852  20.509  0.00  0.00    +0.000 A 
ATOM     12  C   UNL     1       0.898   9.965  19.668  0.00  0.00    +0.000 A 
ATOM     13  C   UNL     1       0.311  11.145  20.125  0.00  0.00    +0.000 A 
ATOM     14  C   UNL     1      -0.115  11.228  21.441  0.00  0.00    +0.000 A 
ATOM     15  C   UNL     1       0.021  10.128  22.279  0.00  0.00    +0.000 A 
ATOM     16  F   UNL     1      -0.352  10.226  23.561  0.00  0.00    +0.000 F 
ATOM     17  C   UNL     1       0.577   8.936  21.822  0.00  0.00    +0.000 A 
ENDBRANCH   8  11
BRANCH   5  18
ATOM     18  C   UNL     1       2.009   3.264  21.036  0.00  0.00    +0.000 C 
ATOM     19  F   UNL     1       2.400   1.961  20.969  0.00  0.00    +0.000 F 
ATOM     20  F   UNL     1       2.389   3.704  22.266  0.00  0.00    +0.000 F 
ATOM     21  F   UNL     1       0.647   3.240  21.051  0.00  0.00    +0.000 F 
ENDBRANCH   5  18
BRANCH   1  22
ATOM     22  C   UNL     1       4.704   3.594  16.729  0.00  0.00    +0.000 C 
BRANCH  22  27
ATOM     23  C   UNL     1       5.974   3.509  13.080  0.00  0.00    +0.000 C 
ATOM     24  C   UNL     1       5.946   4.642  14.043  0.00  0.00    +0.000 C 
ATOM     25  C   UNL     1       7.345   5.180  14.670  0.00  0.00    +0.000 C 
ATOM     26  C   UNL     1       6.320   4.560  15.388  0.00  0.00    +0.000 C 
ATOM     27  N   UNL     1       6.020   4.214  16.574  0.00  0.00    +0.000 NA
ENDBRANCH  22  27
ENDBRANCH   1  22
TORSDOF 4
ENDMDL
MODEL 5
REMARK VINA RESULT:      -8.7      2.928      7.977
REMARK  Name = 
REMARK  5 active torsions:
REMARK  status: ('A' for Active; 'I' for Inactive)
REMARK    1  A    between atoms: C_1  and  C_2
REMARK    2  A    between atoms: N_5  and  C_6
REMARK    3  A    between atoms: C_6  and  C_7
REMARK    4  A    between atoms: C_11  and  C_12
REMARK    5  A    between atoms: N_18  and  C_19
REMARK                            x       y       z     vdW  Elec       q    Type
REMARK                         _______ _______ _______ _____ _____    ______ ____
ROOT
ATOM      1  C   UNL     1       2.728   6.245  19.384  0.00  0.00    +0.000 A 
ATOM      2  C   UNL     1       3.418   6.689  18.250  0.00  0.00    +0.000 A 
ATOM      3  C   UNL     1       3.961   5.741  17.402  0.00  0.00    +0.000 A 
ATOM      4  C   UNL     1       3.836   4.369  17.607  0.00  0.00    +0.000 A 
ATOM      5  C   UNL     1       3.160   3.893  18.723  0.00  0.00    +0.000 A 
ATOM      6  C   UNL     1       2.602   4.848  19.602  0.00  0.00    +0.000 A 
ATOM      7  C   UNL     1       4.523   3.635  16.495  0.00  0.00    +0.000 C 
ATOM      8  N   UNL     1       5.053   4.710  15.671  0.00  0.00    +0.000 N 
ATOM      9  C   UNL     1       4.743   5.965  16.189  0.00  0.00    +0.000 C 
ATOM     10  O   UNL     1       5.020   7.081  15.787  0.00  0.00    +0.000 OA
ENDROOT
BRANCH   8  11
ATOM     11  C   UNL     1       5.827   4.481  14.515  0.00  0.00    +0.000 A 
ATOM     12  C   UNL     1       7.036   5.165  14.326  0.00  0.00    +0.000 A 
ATOM     13  C   UNL     1       7.801   4.974  13.175  0.00  0.00    +0.000 A 
ATOM     14  C   UNL     1       7.345   4.113  12.189  0.00  0.00    +0.000 A 
ATOM     15  C   UNL     1       6.149   3.430  12.372  0.00  0.00    +0.000 A 
ATOM     16  F   UNL     1       5.691   2.632  11.399  0.00  0.00    +0.000 F 
ATOM     17  C   UNL     1       5.395   3.590  13.531  0.00  0.00    +0.000 A 
ENDBRANCH   8  11
BRANCH   5  18
ATOM     18  C   UNL     1       3.035   2.421  19.032  0.00  0.00    +0.000 C 
ATOM     19  F   UNL     1       2.508   1.701  18.003  0.00  0.00    +0.000 F 
ATOM     20  F   UNL     1       4.233   1.843  19.315  0.00  0.00    +0.000 F 
ATOM     21  F   UNL     1       2.234   2.171  20.105  0.00  0.00    +0.000 F 
ENDBRANCH   5  18
BRANCH   1  22
ATOM     22  C   UNL     1       2.117   7.256  20.337  0.00  0.00    +0.000 C 
BRANCH  22  27
ATOM     23  C   UNL     1      -0.384   9.195  22.555  0.00  0.00    +0.000 C 
ATOM     24  C   UNL     1       0.721   9.713  21.704  0.00  0.00    +0.000 C 
ATOM     25  C   UNL     1       0.356  10.516  20.340  0.00  0.00    +0.000 C 
ATOM     26  C   UNL     1       1.001   9.279  20.405  0.00  0.00    +0.000 C 
ATOM     27  N   UNL     1       1.517   8.399  19.646  0.00  0.00    +0.000 NA
ENDBRANCH  22  27
ENDBRANCH   1  22
TORSDOF 4
ENDMDL
MODEL 6
REMARK VINA RESULT:      -8.6      1.055      1.127
REMARK  Name = 
REMARK  5 active torsions:
REMARK  status: ('A' for Active; 'I' for Inactive)
REMARK    1  A    between atoms: C_1  and  C_2
REMARK    2  A    between atoms: N_5  and  C_6
REMARK    3  A    between atoms: C_6  and  C_7
REMARK    4  A    between atoms: C_11  and  C_12
REMARK    5  A    between atoms: N_18  and  C_19
REMARK                            x       y       z     vdW  Elec       q    Type
REMARK                         _______ _______ _______ _____ _____    ______ ____
ROOT
ATOM      1  C   UNL     1       4.034   5.748  17.407  0.00  0.00    +0.000 A 
ATOM      2  C   UNL     1       3.598   7.075  17.315  0.00  0.00    +0.000 A 
ATOM      3  C   UNL     1       2.712   7.540  18.269  0.00  0.00    +0.000 A 
ATOM      4  C   UNL     1       2.251   6.762  19.329  0.00  0.00    +0.000 A 
ATOM      5  C   UNL     1       2.660   5.441  19.450  0.00  0.00    +0.000 A 
ATOM      6  C   UNL     1       3.563   4.949  18.480  0.00  0.00    +0.000 A 
ATOM      7  C   UNL     1       1.323   7.579  20.179  0.00  0.00    +0.000 C 
ATOM      8  N   UNL     1       1.296   8.862  19.494  0.00  0.00    +0.000 N 
ATOM      9  C   UNL     1       2.100   8.863  18.358  0.00  0.00    +0.000 C 
ATOM     10  O   UNL     1       2.318   9.739  17.539  0.00  0.00    +0.000 OA
ENDROOT
BRANCH   8  11
ATOM     11  C   UNL     1       0.502   9.945  19.924  0.00  0.00    +0.000 A 
ATOM     12  C   UNL     1       0.797  10.606  21.124  0.00  0.00    +0.000 A 
ATOM     13  C   UNL     1       0.006  11.660  21.582  0.00  0.00    +0.000 A 
ATOM     14  C   UNL     1      -1.106  12.044  20.849  0.00  0.00    +0.000 A 
ATOM     15  C   UNL     1      -1.401  11.396  19.657  0.00  0.00    +0.000 A 
ATOM     16  F   UNL     1      -2.500  11.741  18.973  0.00  0.00    +0.000 F 
ATOM     17  C   UNL     1      -0.600  10.364  19.177  0.00  0.00    +0.000 A 
ENDBRANCH   8  11
BRANCH   5  18
ATOM     18  C   UNL     1       2.156   4.530  20.542  0.00  0.00    +0.000 C 
ATOM     19  F   UNL     1       2.483   4.961  21.792  0.00  0.00    +0.000 F 
ATOM     20  F   UNL     1       0.803   4.403  20.534  0.00  0.00    +0.000 F 
ATOM     21  F   UNL     1       2.652   3.264  20.447  0.00  0.00    +0.000 F 
ENDBRANCH   5  18
BRANCH   1  22
ATOM     22  C   UNL     1       5.008   5.203  16.379  0.00  0.00    +0.000 C 
BRANCH  22  27
ATOM     23  C   UNL     1       7.754   7.650  17.566  0.00  0.00    +0.000 C 
ATOM     24  C   UNL     1       7.139   6.501  18.284  0.00  0.00    +0.000 C 
ATOM     25  C   UNL     1       8.023   5.161  18.532  0.00  0.00    +0.000 C 
ATOM     26  C   UNL     1       6.890   5.246  17.721  0.00  0.00    +0.000 C 
ATOM     27  N   UNL     1       6.152   4.519  16.983  0.00  0.00    +0.000 NA
ENDBRANCH  22  27
ENDBRANCH   1  22
TORSDOF 4
ENDMDL
MODEL 7
REMARK VINA RESULT:      -8.6      2.393      7.244
REMARK  Name = 
REMARK  5 active torsions:
REMARK  status: ('A' for Active; 'I' for Inactive)
REMARK    1  A    between atoms: C_1  and  C_2
REMARK    2  A    between atoms: N_5  and  C_6
REMARK    3  A    between atoms: C_6  and  C_7
REMARK    4  A    between atoms: C_11  and  C_12
REMARK    5  A    between atoms: N_18  and  C_19
REMARK                            x       y       z     vdW  Elec       q    Type
REMARK                         _______ _______ _______ _____ _____    ______ ____
ROOT
ATOM      1  C   UNL     1       1.529   6.784  20.644  0.00  0.00    +0.000 A 
ATOM      2  C   UNL     1       2.294   7.193  19.545  0.00  0.00    +0.000 A 
ATOM      3  C   UNL     1       3.004   6.232  18.847  0.00  0.00    +0.000 A 
ATOM      4  C   UNL     1       2.976   4.877  19.170  0.00  0.00    +0.000 A 
ATOM      5  C   UNL     1       2.230   4.436  20.255  0.00  0.00    +0.000 A 
ATOM      6  C   UNL     1       1.503   5.406  20.981  0.00  0.00    +0.000 A 
ATOM      7  C   UNL     1       3.838   4.118  18.204  0.00  0.00    +0.000 C 
ATOM      8  N   UNL     1       4.356   5.164  17.337  0.00  0.00    +0.000 N 
ATOM      9  C   UNL     1       3.887   6.423  17.700  0.00  0.00    +0.000 C 
ATOM     10  O   UNL     1       4.107   7.522  17.223  0.00  0.00    +0.000 OA
ENDROOT
BRANCH   8  11
ATOM     11  C   UNL     1       5.265   4.912  16.288  0.00  0.00    +0.000 A 
ATOM     12  C   UNL     1       6.614   5.264  16.421  0.00  0.00    +0.000 A 
ATOM     13  C   UNL     1       7.523   5.050  15.384  0.00  0.00    +0.000 A 
ATOM     14  C   UNL     1       7.077   4.502  14.191  0.00  0.00    +0.000 A 
ATOM     15  C   UNL     1       5.740   4.148  14.054  0.00  0.00    +0.000 A 
ATOM     16  F   UNL     1       5.305   3.658  12.886  0.00  0.00    +0.000 F 
ATOM     17  C   UNL     1       4.834   4.328  15.095  0.00  0.00    +0.000 A 
ENDBRANCH   8  11
BRANCH   5  18
ATOM     18  C   UNL     1       2.200   2.991  20.689  0.00  0.00    +0.000 C 
ATOM     19  F   UNL     1       1.743   2.150  19.720  0.00  0.00    +0.000 F 
ATOM     20  F   UNL     1       3.429   2.524  21.037  0.00  0.00    +0.000 F 
ATOM     21  F   UNL     1       1.399   2.779  21.770  0.00  0.00    +0.000 F 
ENDBRANCH   5  18
BRANCH   1  22
ATOM     22  C   UNL     1       0.737   7.810  21.432  0.00  0.00    +0.000 C 
BRANCH  22  27
ATOM     23  C   UNL     1      -0.471  10.215  18.658  0.00  0.00    +0.000 C 
ATOM     24  C   UNL     1      -0.305  10.463  20.115  0.00  0.00    +0.000 C 
ATOM     25  C   UNL     1       0.905  11.422  20.620  0.00  0.00    +0.000 C 
ATOM     26  C   UNL     1       0.794  10.054  20.877  0.00  0.00    +0.000 C 
ATOM     27  N   UNL     1       1.396   9.116  21.489  0.00  0.00    +0.000 NA
ENDBRANCH  22  27
ENDBRANCH   1  22
TORSDOF 4
ENDMDL
MODEL 8
REMARK VINA RESULT:      -8.6      0.603      1.094
REMARK  Name = 
REMARK  5 active torsions:
REMARK  status: ('A' for Active; 'I' for Inactive)
REMARK    1  A    between atoms: C_1  and  C_2
REMARK    2  A    between atoms: N_5  and  C_6
REMARK    3  A    between atoms: C_6  and  C_7
REMARK    4  A    between atoms: C_11  and  C_12
REMARK    5  A    between atoms: N_18  and  C_19
REMARK                            x       y       z     vdW  Elec       q    Type
REMARK                         _______ _______ _______ _____ _____    ______ ____
ROOT
ATOM      1  C   UNL     1       3.597   4.740  17.792  0.00  0.00    +0.000 A 
ATOM      2  C   UNL     1       3.254   6.095  17.854  0.00  0.00    +0.000 A 
ATOM      3  C   UNL     1       2.506   6.533  18.933  0.00  0.00    +0.000 A 
ATOM      4  C   UNL     1       2.098   5.697  19.970  0.00  0.00    +0.000 A 
ATOM      5  C   UNL     1       2.418   4.346  19.940  0.00  0.00    +0.000 A 
ATOM      6  C   UNL     1       3.178   3.882  18.843  0.00  0.00    +0.000 A 
ATOM      7  C   UNL     1       1.326   6.496  20.978  0.00  0.00    +0.000 C 
ATOM      8  N   UNL     1       1.325   7.832  20.405  0.00  0.00    +0.000 N 
ATOM      9  C   UNL     1       2.007   7.881  19.192  0.00  0.00    +0.000 C 
ATOM     10  O   UNL     1       2.206   8.808  18.428  0.00  0.00    +0.000 OA
ENDROOT
BRANCH   8  11
ATOM     11  C   UNL     1       0.662   8.924  21.004  0.00  0.00    +0.000 A 
ATOM     12  C   UNL     1       0.515   8.985  22.396  0.00  0.00    +0.000 A 
ATOM     13  C   UNL     1      -0.163  10.042  23.005  0.00  0.00    +0.000 A 
ATOM     14  C   UNL     1      -0.723  11.035  22.217  0.00  0.00    +0.000 A 
ATOM     15  C   UNL     1      -0.578  10.981  20.836  0.00  0.00    +0.000 A 
ATOM     16  F   UNL     1      -1.157  11.920  20.076  0.00  0.00    +0.000 F 
ATOM     17  C   UNL     1       0.125   9.948  20.223  0.00  0.00    +0.000 A 
ENDBRANCH   8  11
BRANCH   5  18
ATOM     18  C   UNL     1       1.962   3.378  21.003  0.00  0.00    +0.000 C 
ATOM     19  F   UNL     1       0.607   3.249  21.065  0.00  0.00    +0.000 F 
ATOM     20  F   UNL     1       2.446   2.122  20.810  0.00  0.00    +0.000 F 
ATOM     21  F   UNL     1       2.354   3.743  22.255  0.00  0.00    +0.000 F 
ENDBRANCH   5  18
BRANCH   1  22
ATOM     22  C   UNL     1       4.417   4.225  16.624  0.00  0.00    +0.000 C 
BRANCH  22  27
ATOM     23  C   UNL     1       6.912   5.544  19.265  0.00  0.00    +0.000 C 
ATOM     24  C   UNL     1       7.167   5.078  17.875  0.00  0.00    +0.000 C 
ATOM     25  C   UNL     1       7.570   6.168  16.739  0.00  0.00    +0.000 C 
ATOM     26  C   UNL     1       6.392   5.418  16.762  0.00  0.00    +0.000 C 
ATOM     27  N   UNL     1       5.333   5.230  16.084  0.00  0.00    +0.000 NA
ENDBRANCH  22  27
ENDBRANCH   1  22
TORSDOF 4
ENDMDL
MODEL 9
REMARK VINA RESULT:      -8.6      1.314      1.872
REMARK  Name = 
REMARK  5 active torsions:
REMARK  status: ('A' for Active; 'I' for Inactive)
REMARK    1  A    between atoms: C_1  and  C_2
REMARK    2  A    between atoms: N_5  and  C_6
REMARK    3  A    between atoms: C_6  and  C_7
REMARK    4  A    between atoms: C_11  and  C_12
REMARK    5  A    between atoms: N_18  and  C_19
REMARK                            x       y       z     vdW  Elec       q    Type
REMARK                         _______ _______ _______ _____ _____    ______ ____
ROOT
ATOM      1  C   UNL     1       3.748   4.304  17.807  0.00  0.00    +0.000 A 
ATOM      2  C   UNL     1       3.477   5.677  17.775  0.00  0.00    +0.000 A 
ATOM      3  C   UNL     1       2.735   6.222  18.807  0.00  0.00    +0.000 A 
ATOM      4  C   UNL     1       2.264   5.477  19.887  0.00  0.00    +0.000 A 
ATOM      5  C   UNL     1       2.512   4.112  19.950  0.00  0.00    +0.000 A 
ATOM      6  C   UNL     1       3.266   3.539  18.901  0.00  0.00    +0.000 A 
ATOM      7  C   UNL     1       1.518   6.379  20.825  0.00  0.00    +0.000 C 
ATOM      8  N   UNL     1       1.598   7.674  20.168  0.00  0.00    +0.000 N 
ATOM      9  C   UNL     1       2.304   7.608  18.970  0.00  0.00    +0.000 C 
ATOM     10  O   UNL     1       2.565   8.472  18.152  0.00  0.00    +0.000 OA
ENDROOT
BRANCH   8  11
ATOM     11  C   UNL     1       0.984   8.835  20.682  0.00  0.00    +0.000 A 
ATOM     12  C   UNL     1       0.857   9.015  22.065  0.00  0.00    +0.000 A 
ATOM     13  C   UNL     1       0.227  10.143  22.592  0.00  0.00    +0.000 A 
ATOM     14  C   UNL     1      -0.307  11.089  21.731  0.00  0.00    +0.000 A 
ATOM     15  C   UNL     1      -0.181  10.917  20.358  0.00  0.00    +0.000 A 
ATOM     16  F   UNL     1      -0.735  11.811  19.529  0.00  0.00    +0.000 F 
ATOM     17  C   UNL     1       0.475   9.811  19.824  0.00  0.00    +0.000 A 
ENDBRANCH   8  11
BRANCH   5  18
ATOM     18  C   UNL     1       1.986   3.240  21.063  0.00  0.00    +0.000 C 
ATOM     19  F   UNL     1       0.625   3.176  21.095  0.00  0.00    +0.000 F 
ATOM     20  F   UNL     1       2.417   1.954  20.968  0.00  0.00    +0.000 F 
ATOM     21  F   UNL     1       2.363   3.673  22.298  0.00  0.00    +0.000 F 
ENDBRANCH   5  18
BRANCH   1  22
ATOM     22  C   UNL     1       4.561   3.672  16.693  0.00  0.00    +0.000 C 
BRANCH  22  27
ATOM     23  C   UNL     1       6.027   3.603  13.117  0.00  0.00    +0.000 C 
ATOM     24  C   UNL     1       6.046   4.698  14.124  0.00  0.00    +0.000 C 
ATOM     25  C   UNL     1       7.449   5.080  14.848  0.00  0.00    +0.000 C 
ATOM     26  C   UNL     1       6.333   4.532  15.482  0.00  0.00    +0.000 C 
ATOM     27  N   UNL     1       5.935   4.172  16.635  0.00  0.00    +0.000 NA
ENDBRANCH  22  27
ENDBRANCH   1  22
TORSDOF 4
ENDMDL
