MODEL 1
REMARK VINA RESULT:      -7.8      0.000      0.000
REMARK  Name = 
REMARK  8 active torsions:
REMARK  status: ('A' for Active; 'I' for Inactive)
REMARK    1  A    between atoms: C_1  and  N_2
REMARK    2  A    between atoms: C_6  and  C_7
REMARK    3  A    between atoms: C_7  and  C_8
REMARK    4  A    between atoms: C_12  and  N_13
REMARK    5  A    between atoms: C_18  and  C_19
REMARK    6  A    between atoms: C_19  and  N_20
REMARK    7  A    between atoms: C_26  and  C_27
REMARK    8  A    between atoms: C_27  and  C_28
REMARK                            x       y       z     vdW  Elec       q    Type
REMARK                         _______ _______ _______ _____ _____    ______ ____
ROOT
ATOM      1  N   UNL     1      -0.394  11.385  18.346  0.00  0.00    +0.000 N 
ATOM      2  C   UNL     1       0.357  10.619  19.375  0.00  0.00    +0.000 C 
ATOM      3  C   UNL     1      -0.115  11.255  20.655  0.00  0.00    +0.000 A 
ATOM      4  C   UNL     1      -0.481  12.566  20.346  0.00  0.00    +0.000 A 
ATOM      5  C   UNL     1      -1.135  13.397  21.238  0.00  0.00    +0.000 A 
ATOM      6  C   UNL     1      -1.439  12.896  22.512  0.00  0.00    +0.000 A 
ATOM      7  C   UNL     1      -1.081  11.561  22.828  0.00  0.00    +0.000 A 
ATOM      8  C   UNL     1      -0.407  10.720  21.907  0.00  0.00    +0.000 A 
ATOM      9  C   UNL     1      -0.461  12.707  18.869  0.00  0.00    +0.000 C 
ATOM     10  O   UNL     1      -0.677  13.751  18.283  0.00  0.00    +0.000 OA
ENDROOT
BRANCH   1  15
ATOM     11  C   UNL     1      -3.888  11.503  17.387  0.00  0.00    +0.000 A 
ATOM     12  C   UNL     1      -3.730  10.698  16.247  0.00  0.00    +0.000 A 
ATOM     13  C   UNL     1      -2.708   9.760  16.179  0.00  0.00    +0.000 A 
ATOM     14  C   UNL     1      -1.762   9.703  17.190  0.00  0.00    +0.000 A 
ATOM     15  C   UNL     1      -1.702  10.754  18.115  0.00  0.00    +0.000 A 
ATOM     16  C   UNL     1      -2.856  11.519  18.337  0.00  0.00    +0.000 A 
BRANCH  11  17
ATOM     17  C   UNL     1      -5.189  12.245  17.566  0.00  0.00    +0.000 C 
BRANCH  17  23
ATOM     18  C   UNL     1      -6.023  14.219  19.854  0.00  0.00    +0.000 C 
ATOM     19  N   UNL     1      -6.536  12.899  19.614  0.00  0.00    +0.000 N 
ATOM     20  C   UNL     1      -7.456  12.277  20.539  0.00  0.00    +0.000 C 
ATOM     21  C   UNL     1      -7.218  10.790  20.270  0.00  0.00    +0.000 C 
ATOM     22  N   UNL     1      -6.372  10.697  19.046  0.00  0.00    +0.000 NA
ATOM     23  C   UNL     1      -6.022  11.929  18.784  0.00  0.00    +0.000 C 
ENDBRANCH  17  23
ENDBRANCH  11  17
ENDBRANCH   1  15
BRANCH   8  24
ATOM     24  C   UNL     1      -0.086   9.287  22.272  0.00  0.00    +0.000 C 
ATOM     25  C   UNL     1       1.399   9.004  22.130  0.00  0.00    +0.000 C 
ATOM     26  F   UNL     1      -0.448   8.980  23.552  0.00  0.00    +0.000 F 
ATOM     27  F   UNL     1      -0.738   8.381  21.495  0.00  0.00    +0.000 F 
ENDBRANCH   8  24
BRANCH   6  28
ATOM     28  C   UNL     1      -2.129  13.792  23.524  0.00  0.00    +0.000 C 
BRANCH  28  29
ATOM     29  N   UNL     1      -3.422  13.309  24.035  0.00  0.00    +0.000 NA
ATOM     30  C   UNL     1      -4.347  12.904  22.953  0.00  0.00    +0.000 C 
ATOM     31  C   UNL     1      -5.406  13.891  23.472  0.00  0.00    +0.000 C 
ATOM     32  F   UNL     1      -6.463  13.362  24.136  0.00  0.00    +0.000 F 
ATOM     33  C   UNL     1      -4.283  14.476  24.340  0.00  0.00    +0.000 C 
ENDBRANCH  28  29
ENDBRANCH   6  28
TORSDOF 6
ENDMDL
MODEL 2
REMARK VINA RESULT:      -7.7      1.713      2.002
REMARK  Name = 
REMARK  8 active torsions:
REMARK  status: ('A' for Active; 'I' for Inactive)
REMARK    1  A    between atoms: C_1  and  N_2
REMARK    2  A    between atoms: C_6  and  C_7
REMARK    3  A    between atoms: C_7  and  C_8
REMARK    4  A    between atoms: C_12  and  N_13
REMARK    5  A    between atoms: C_18  and  C_19
REMARK    6  A    between atoms: C_19  and  N_20
REMARK    7  A    between atoms: C_26  and  C_27
REMARK    8  A    between atoms: C_27  and  C_28
REMARK                            x       y       z     vdW  Elec       q    Type
REMARK                         _______ _______ _______ _____ _____    ______ ____
ROOT
ATOM      1  N   UNL     1      -0.340  11.383  18.460  0.00  0.00    +0.000 N 
ATOM      2  C   UNL     1       0.412  10.642  19.508  0.00  0.00    +0.000 C 
ATOM      3  C   UNL     1      -0.041  11.325  20.771  0.00  0.00    +0.000 A 
ATOM      4  C   UNL     1      -0.395  12.630  20.421  0.00  0.00    +0.000 A 
ATOM      5  C   UNL     1      -1.031  13.498  21.291  0.00  0.00    +0.000 A 
ATOM      6  C   UNL     1      -1.329  13.042  22.583  0.00  0.00    +0.000 A 
ATOM      7  C   UNL     1      -0.984  11.714  22.940  0.00  0.00    +0.000 A 
ATOM      8  C   UNL     1      -0.327  10.835  22.042  0.00  0.00    +0.000 A 
ATOM      9  C   UNL     1      -0.387  12.722  18.940  0.00  0.00    +0.000 C 
ATOM     10  O   UNL     1      -0.596  13.749  18.322  0.00  0.00    +0.000 OA
ENDROOT
BRANCH   1  15
ATOM     11  C   UNL     1      -3.885  11.543  17.724  0.00  0.00    +0.000 A 
ATOM     12  C   UNL     1      -3.793  10.826  16.520  0.00  0.00    +0.000 A 
ATOM     13  C   UNL     1      -2.773   9.904  16.320  0.00  0.00    +0.000 A 
ATOM     14  C   UNL     1      -1.768   9.779  17.267  0.00  0.00    +0.000 A 
ATOM     15  C   UNL     1      -1.656  10.760  18.262  0.00  0.00    +0.000 A 
ATOM     16  C   UNL     1      -2.798  11.497  18.609  0.00  0.00    +0.000 A 
BRANCH  11  17
ATOM     17  C   UNL     1      -5.176  12.258  18.034  0.00  0.00    +0.000 C 
BRANCH  17  23
ATOM     18  C   UNL     1      -5.055  13.205  21.021  0.00  0.00    +0.000 C 
ATOM     19  N   UNL     1      -6.057  12.377  20.411  0.00  0.00    +0.000 N 
ATOM     20  C   UNL     1      -7.102  11.768  21.201  0.00  0.00    +0.000 C 
ATOM     21  C   UNL     1      -7.483  10.560  20.345  0.00  0.00    +0.000 C 
ATOM     22  N   UNL     1      -6.801  10.724  19.029  0.00  0.00    +0.000 NA
ATOM     23  C   UNL     1      -6.007  11.749  19.187  0.00  0.00    +0.000 C 
ENDBRANCH  17  23
ENDBRANCH  11  17
ENDBRANCH   1  15
BRANCH   8  24
ATOM     24  C   UNL     1      -0.019   9.411  22.450  0.00  0.00    +0.000 C 
ATOM     25  C   UNL     1       1.439   9.073  22.202  0.00  0.00    +0.000 C 
ATOM     26  F   UNL     1      -0.283   9.178  23.770  0.00  0.00    +0.000 F 
ATOM     27  F   UNL     1      -0.760   8.492  21.776  0.00  0.00    +0.000 F 
ENDBRANCH   8  24
BRANCH   6  28
ATOM     28  C   UNL     1      -2.000  13.979  23.572  0.00  0.00    +0.000 C 
BRANCH  28  29
ATOM     29  N   UNL     1      -1.098  14.736  24.454  0.00  0.00    +0.000 NA
ATOM     30  C   UNL     1      -1.796  15.306  25.629  0.00  0.00    +0.000 C 
ATOM     31  C   UNL     1      -1.320  16.717  25.244  0.00  0.00    +0.000 C 
ATOM     32  F   UNL     1      -0.317  17.249  25.983  0.00  0.00    +0.000 F 
ATOM     33  C   UNL     1      -0.916  16.098  23.898  0.00  0.00    +0.000 C 
ENDBRANCH  28  29
ENDBRANCH   6  28
TORSDOF 6
ENDMDL
MODEL 3
REMARK VINA RESULT:      -7.7      1.147      1.330
REMARK  Name = 
REMARK  8 active torsions:
REMARK  status: ('A' for Active; 'I' for Inactive)
REMARK    1  A    between atoms: C_1  and  N_2
REMARK    2  A    between atoms: C_6  and  C_7
REMARK    3  A    between atoms: C_7  and  C_8
REMARK    4  A    between atoms: C_12  and  N_13
REMARK    5  A    between atoms: C_18  and  C_19
REMARK    6  A    between atoms: C_19  and  N_20
REMARK    7  A    between atoms: C_26  and  C_27
REMARK    8  A    between atoms: C_27  and  C_28
REMARK                            x       y       z     vdW  Elec       q    Type
REMARK                         _______ _______ _______ _____ _____    ______ ____
ROOT
ATOM      1  N   UNL     1      -0.381  11.497  18.555  0.00  0.00    +0.000 N 
ATOM      2  C   UNL     1       0.377  10.757  19.599  0.00  0.00    +0.000 C 
ATOM      3  C   UNL     1      -0.194  11.323  20.871  0.00  0.00    +0.000 A 
ATOM      4  C   UNL     1      -0.637  12.614  20.577  0.00  0.00    +0.000 A 
ATOM      5  C   UNL     1      -1.387  13.373  21.459  0.00  0.00    +0.000 A 
ATOM      6  C   UNL     1      -1.710  12.817  22.705  0.00  0.00    +0.000 A 
ATOM      7  C   UNL     1      -1.274  11.501  23.004  0.00  0.00    +0.000 A 
ATOM      8  C   UNL     1      -0.502  10.734  22.095  0.00  0.00    +0.000 A 
ATOM      9  C   UNL     1      -0.563  12.796  19.107  0.00  0.00    +0.000 C 
ATOM     10  O   UNL     1      -0.825  13.839  18.537  0.00  0.00    +0.000 OA
ENDROOT
BRANCH   1  15
ATOM     11  C   UNL     1      -3.867  11.414  17.570  0.00  0.00    +0.000 A 
ATOM     12  C   UNL     1      -3.638  10.738  16.360  0.00  0.00    +0.000 A 
ATOM     13  C   UNL     1      -2.540   9.899  16.215  0.00  0.00    +0.000 A 
ATOM     14  C   UNL     1      -1.596   9.825  17.229  0.00  0.00    +0.000 A 
ATOM     15  C   UNL     1      -1.629  10.784  18.249  0.00  0.00    +0.000 A 
ATOM     16  C   UNL     1      -2.845  11.425  18.530  0.00  0.00    +0.000 A 
BRANCH  11  17
ATOM     17  C   UNL     1      -5.227  12.023  17.802  0.00  0.00    +0.000 C 
BRANCH  17  23
ATOM     18  C   UNL     1      -5.238  13.268  20.679  0.00  0.00    +0.000 C 
ATOM     19  N   UNL     1      -6.147  12.289  20.152  0.00  0.00    +0.000 N 
ATOM     20  C   UNL     1      -7.137  11.661  20.996  0.00  0.00    +0.000 C 
ATOM     21  C   UNL     1      -7.387  10.342  20.263  0.00  0.00    +0.000 C 
ATOM     22  N   UNL     1      -6.708  10.442  18.940  0.00  0.00    +0.000 NA
ATOM     23  C   UNL     1      -6.019  11.552  18.997  0.00  0.00    +0.000 C 
ENDBRANCH  17  23
ENDBRANCH  11  17
ENDBRANCH   1  15
BRANCH   8  24
ATOM     24  C   UNL     1      -0.098   9.317  22.438  0.00  0.00    +0.000 C 
ATOM     25  C   UNL     1       1.387   9.100  22.209  0.00  0.00    +0.000 C 
ATOM     26  F   UNL     1      -0.370   8.997  23.737  0.00  0.00    +0.000 F 
ATOM     27  F   UNL     1      -0.754   8.383  21.700  0.00  0.00    +0.000 F 
ENDBRANCH   8  24
BRANCH   6  28
ATOM     28  C   UNL     1      -2.505  13.635  23.707  0.00  0.00    +0.000 C 
BRANCH  28  29
ATOM     29  N   UNL     1      -2.952  14.959  23.246  0.00  0.00    +0.000 NA
ATOM     30  C   UNL     1      -2.458  16.058  24.106  0.00  0.00    +0.000 C 
ATOM     31  C   UNL     1      -3.900  16.531  24.352  0.00  0.00    +0.000 C 
ATOM     32  F   UNL     1      -4.298  17.651  23.700  0.00  0.00    +0.000 F 
ATOM     33  C   UNL     1      -4.332  15.195  23.731  0.00  0.00    +0.000 C 
ENDBRANCH  28  29
ENDBRANCH   6  28
TORSDOF 6
ENDMDL
MODEL 4
REMARK VINA RESULT:      -7.5      0.481      1.080
REMARK  Name = 
REMARK  8 active torsions:
REMARK  status: ('A' for Active; 'I' for Inactive)
REMARK    1  A    between atoms: C_1  and  N_2
REMARK    2  A    between atoms: C_6  and  C_7
REMARK    3  A    between atoms: C_7  and  C_8
REMARK    4  A    between atoms: C_12  and  N_13
REMARK    5  A    between atoms: C_18  and  C_19
REMARK    6  A    between atoms: C_19  and  N_20
REMARK    7  A    between atoms: C_26  and  C_27
REMARK    8  A    between atoms: C_27  and  C_28
REMARK                            x       y       z     vdW  Elec       q    Type
REMARK                         _______ _______ _______ _____ _____    ______ ____
ROOT
ATOM      1  N   UNL     1      -0.521  11.434  18.376  0.00  0.00    +0.000 N 
ATOM      2  C   UNL     1       0.260  10.648  19.367  0.00  0.00    +0.000 C 
ATOM      3  C   UNL     1      -0.134  11.291  20.669  0.00  0.00    +0.000 A 
ATOM      4  C   UNL     1      -0.484  12.611  20.380  0.00  0.00    +0.000 A 
ATOM      5  C   UNL     1      -1.075  13.455  21.304  0.00  0.00    +0.000 A 
ATOM      6  C   UNL     1      -1.328  12.957  22.590  0.00  0.00    +0.000 A 
ATOM      7  C   UNL     1      -0.988  11.613  22.886  0.00  0.00    +0.000 A 
ATOM      8  C   UNL     1      -0.378  10.759  21.933  0.00  0.00    +0.000 A 
ATOM      9  C   UNL     1      -0.531  12.756  18.904  0.00  0.00    +0.000 C 
ATOM     10  O   UNL     1      -0.750  13.807  18.331  0.00  0.00    +0.000 OA
ENDROOT
BRANCH   1  15
ATOM     11  C   UNL     1      -3.985  11.564  17.320  0.00  0.00    +0.000 A 
ATOM     12  C   UNL     1      -3.845  10.592  16.316  0.00  0.00    +0.000 A 
ATOM     13  C   UNL     1      -2.868   9.610  16.413  0.00  0.00    +0.000 A 
ATOM     14  C   UNL     1      -1.945   9.661  17.447  0.00  0.00    +0.000 A 
ATOM     15  C   UNL     1      -1.852  10.835  18.207  0.00  0.00    +0.000 A 
ATOM     16  C   UNL     1      -2.973  11.676  18.284  0.00  0.00    +0.000 A 
BRANCH  11  17
ATOM     17  C   UNL     1      -5.253  12.381  17.353  0.00  0.00    +0.000 C 
BRANCH  17  23
ATOM     18  C   UNL     1      -6.722  10.072  18.881  0.00  0.00    +0.000 C 
ATOM     19  N   UNL     1      -6.409  11.382  19.379  0.00  0.00    +0.000 N 
ATOM     20  C   UNL     1      -6.882  11.821  20.672  0.00  0.00    +0.000 C 
ATOM     21  C   UNL     1      -6.894  13.341  20.505  0.00  0.00    +0.000 C 
ATOM     22  N   UNL     1      -6.192  13.646  19.225  0.00  0.00    +0.000 NA
ATOM     23  C   UNL     1      -5.995  12.483  18.663  0.00  0.00    +0.000 C 
ENDBRANCH  17  23
ENDBRANCH  11  17
ENDBRANCH   1  15
BRANCH   8  24
ATOM     24  C   UNL     1      -0.074   9.318  22.279  0.00  0.00    +0.000 C 
ATOM     25  C   UNL     1       1.402   9.012  22.106  0.00  0.00    +0.000 C 
ATOM     26  F   UNL     1      -0.417   9.006  23.563  0.00  0.00    +0.000 F 
ATOM     27  F   UNL     1      -0.756   8.430  21.507  0.00  0.00    +0.000 F 
ENDBRANCH   8  24
BRANCH   6  28
ATOM     28  C   UNL     1      -1.948  13.866  23.637  0.00  0.00    +0.000 C 
BRANCH  28  29
ATOM     29  N   UNL     1      -3.286  13.481  24.112  0.00  0.00    +0.000 NA
ATOM     30  C   UNL     1      -4.221  13.183  23.003  0.00  0.00    +0.000 C 
ATOM     31  C   UNL     1      -5.204  14.243  23.530  0.00  0.00    +0.000 C 
ATOM     32  F   UNL     1      -6.314  13.789  24.162  0.00  0.00    +0.000 F 
ATOM     33  C   UNL     1      -4.052  14.708  24.433  0.00  0.00    +0.000 C 
ENDBRANCH  28  29
ENDBRANCH   6  28
TORSDOF 6
ENDMDL
MODEL 5
REMARK VINA RESULT:      -7.3      2.855      6.116
REMARK  Name = 
REMARK  8 active torsions:
REMARK  status: ('A' for Active; 'I' for Inactive)
REMARK    1  A    between atoms: C_1  and  N_2
REMARK    2  A    between atoms: C_6  and  C_7
REMARK    3  A    between atoms: C_7  and  C_8
REMARK    4  A    between atoms: C_12  and  N_13
REMARK    5  A    between atoms: C_18  and  C_19
REMARK    6  A    between atoms: C_19  and  N_20
REMARK    7  A    between atoms: C_26  and  C_27
REMARK    8  A    between atoms: C_27  and  C_28
REMARK                            x       y       z     vdW  Elec       q    Type
REMARK                         _______ _______ _______ _____ _____    ______ ____
ROOT
ATOM      1  N   UNL     1      -0.149  14.194  20.423  0.00  0.00    +0.000 N 
ATOM      2  C   UNL     1      -0.684  13.677  19.136  0.00  0.00    +0.000 C 
ATOM      3  C   UNL     1      -0.402  12.202  19.242  0.00  0.00    +0.000 A 
ATOM      4  C   UNL     1       0.704  12.059  20.081  0.00  0.00    +0.000 A 
ATOM      5  C   UNL     1       1.138  10.834  20.556  0.00  0.00    +0.000 A 
ATOM      6  C   UNL     1       0.432   9.685  20.170  0.00  0.00    +0.000 A 
ATOM      7  C   UNL     1      -0.700   9.825  19.329  0.00  0.00    +0.000 A 
ATOM      8  C   UNL     1      -1.132  11.085  18.844  0.00  0.00    +0.000 A 
ATOM      9  C   UNL     1       0.993  13.385  20.681  0.00  0.00    +0.000 C 
ATOM     10  O   UNL     1       1.937  13.607  21.416  0.00  0.00    +0.000 OA
ENDROOT
BRANCH   1  15
ATOM     11  C   UNL     1      -3.382  13.106  21.648  0.00  0.00    +0.000 A 
ATOM     12  C   UNL     1      -2.861  12.289  22.664  0.00  0.00    +0.000 A 
ATOM     13  C   UNL     1      -1.622  12.565  23.228  0.00  0.00    +0.000 A 
ATOM     14  C   UNL     1      -0.839  13.580  22.700  0.00  0.00    +0.000 A 
ATOM     15  C   UNL     1      -1.192  14.123  21.457  0.00  0.00    +0.000 A 
ATOM     16  C   UNL     1      -2.531  14.043  21.044  0.00  0.00    +0.000 A 
BRANCH  11  17
ATOM     17  C   UNL     1      -4.849  12.986  21.314  0.00  0.00    +0.000 C 
BRANCH  17  23
ATOM     18  C   UNL     1      -5.629  15.799  22.457  0.00  0.00    +0.000 C 
ATOM     19  N   UNL     1      -6.303  14.551  22.684  0.00  0.00    +0.000 N 
ATOM     20  C   UNL     1      -7.401  14.456  23.618  0.00  0.00    +0.000 C 
ATOM     21  C   UNL     1      -7.358  12.977  24.006  0.00  0.00    +0.000 C 
ATOM     22  N   UNL     1      -6.405  12.308  23.076  0.00  0.00    +0.000 NA
ATOM     23  C   UNL     1      -5.849  13.282  22.405  0.00  0.00    +0.000 C 
ENDBRANCH  17  23
ENDBRANCH  11  17
ENDBRANCH   1  15
BRANCH   8  24
ATOM     24  C   UNL     1      -2.374  11.191  17.986  0.00  0.00    +0.000 C 
ATOM     25  C   UNL     1      -2.949   9.819  17.681  0.00  0.00    +0.000 C 
ATOM     26  F   UNL     1      -3.356  11.933  18.577  0.00  0.00    +0.000 F 
ATOM     27  F   UNL     1      -2.144  11.798  16.791  0.00  0.00    +0.000 F 
ENDBRANCH   8  24
BRANCH   6  28
ATOM     28  C   UNL     1       0.900   8.323  20.650  0.00  0.00    +0.000 C 
BRANCH  28  29
ATOM     29  N   UNL     1       2.173   7.845  20.086  0.00  0.00    +0.000 NA
ATOM     30  C   UNL     1       2.200   7.908  18.607  0.00  0.00    +0.000 C 
ATOM     31  C   UNL     1       2.513   6.404  18.536  0.00  0.00    +0.000 C 
ATOM     32  F   UNL     1       3.786   6.056  18.225  0.00  0.00    +0.000 F 
ATOM     33  C   UNL     1       2.144   6.364  20.026  0.00  0.00    +0.000 C 
ENDBRANCH  28  29
ENDBRANCH   6  28
TORSDOF 6
ENDMDL
MODEL 6
REMARK VINA RESULT:      -7.2      4.566      7.709
REMARK  Name = 
REMARK  8 active torsions:
REMARK  status: ('A' for Active; 'I' for Inactive)
REMARK    1  A    between atoms: C_1  and  N_2
REMARK    2  A    between atoms: C_6  and  C_7
REMARK    3  A    between atoms: C_7  and  C_8
REMARK    4  A    between atoms: C_12  and  N_13
REMARK    5  A    between atoms: C_18  and  C_19
REMARK    6  A    between atoms: C_19  and  N_20
REMARK    7  A    between atoms: C_26  and  C_27
REMARK    8  A    between atoms: C_27  and  C_28
REMARK                            x       y       z     vdW  Elec       q    Type
REMARK                         _______ _______ _______ _____ _____    ______ ____
ROOT
ATOM      1  N   UNL     1       0.483   8.541  21.104  0.00  0.00    +0.000 N 
ATOM      2  C   UNL     1      -0.767   8.628  20.303  0.00  0.00    +0.000 C 
ATOM      3  C   UNL     1      -0.902  10.110  20.080  0.00  0.00    +0.000 A 
ATOM      4  C   UNL     1      -0.266  10.741  21.150  0.00  0.00    +0.000 A 
ATOM      5  C   UNL     1      -0.030  12.104  21.190  0.00  0.00    +0.000 A 
ATOM      6  C   UNL     1      -0.454  12.883  20.104  0.00  0.00    +0.000 A 
ATOM      7  C   UNL     1      -1.089  12.246  19.008  0.00  0.00    +0.000 A 
ATOM      8  C   UNL     1      -1.330  10.849  18.981  0.00  0.00    +0.000 A 
ATOM      9  C   UNL     1       0.455   9.703  21.926  0.00  0.00    +0.000 C 
ATOM     10  O   UNL     1       1.063   9.925  22.958  0.00  0.00    +0.000 OA
ENDROOT
BRANCH   1  15
ATOM     11  C   UNL     1       2.580   6.782  18.729  0.00  0.00    +0.000 A 
ATOM     12  C   UNL     1       2.295   7.640  17.654  0.00  0.00    +0.000 A 
ATOM     13  C   UNL     1       1.936   8.963  17.880  0.00  0.00    +0.000 A 
ATOM     14  C   UNL     1       1.738   9.407  19.178  0.00  0.00    +0.000 A 
ATOM     15  C   UNL     1       1.643   8.458  20.206  0.00  0.00    +0.000 A 
ATOM     16  C   UNL     1       2.254   7.209  20.025  0.00  0.00    +0.000 A 
BRANCH  11  17
ATOM     17  C   UNL     1       3.291   5.484  18.440  0.00  0.00    +0.000 C 
BRANCH  17  23
ATOM     18  C   UNL     1       4.390   2.842  19.723  0.00  0.00    +0.000 C 
ATOM     19  N   UNL     1       3.019   3.169  19.445  0.00  0.00    +0.000 N 
ATOM     20  C   UNL     1       1.968   2.197  19.634  0.00  0.00    +0.000 C 
ATOM     21  C   UNL     1       0.893   2.700  18.668  0.00  0.00    +0.000 C 
ATOM     22  N   UNL     1       1.323   4.049  18.202  0.00  0.00    +0.000 NA
ATOM     23  C   UNL     1       2.535   4.197  18.668  0.00  0.00    +0.000 C 
ENDBRANCH  17  23
ENDBRANCH  11  17
ENDBRANCH   1  15
BRANCH   8  24
ATOM     24  C   UNL     1      -1.970  10.206  17.769  0.00  0.00    +0.000 C 
ATOM     25  C   UNL     1      -2.520  11.253  16.819  0.00  0.00    +0.000 C 
ATOM     26  F   UNL     1      -1.095   9.425  17.070  0.00  0.00    +0.000 F 
ATOM     27  F   UNL     1      -3.001   9.380  18.089  0.00  0.00    +0.000 F 
ENDBRANCH   8  24
BRANCH   6  28
ATOM     28  C   UNL     1      -0.237  14.386  20.130  0.00  0.00    +0.000 C 
BRANCH  28  29
ATOM     29  N   UNL     1       0.326  14.975  18.905  0.00  0.00    +0.000 NA
ATOM     30  C   UNL     1       1.781  15.230  19.011  0.00  0.00    +0.000 C 
ATOM     31  C   UNL     1       1.557  16.715  18.679  0.00  0.00    +0.000 C 
ATOM     32  F   UNL     1       1.902  17.123  17.433  0.00  0.00    +0.000 F 
ATOM     33  C   UNL     1       0.066  16.434  18.912  0.00  0.00    +0.000 C 
ENDBRANCH  28  29
ENDBRANCH   6  28
TORSDOF 6
ENDMDL
MODEL 7
REMARK VINA RESULT:      -7.2      4.508      7.774
REMARK  Name = 
REMARK  8 active torsions:
REMARK  status: ('A' for Active; 'I' for Inactive)
REMARK    1  A    between atoms: C_1  and  N_2
REMARK    2  A    between atoms: C_6  and  C_7
REMARK    3  A    between atoms: C_7  and  C_8
REMARK    4  A    between atoms: C_12  and  N_13
REMARK    5  A    between atoms: C_18  and  C_19
REMARK    6  A    between atoms: C_19  and  N_20
REMARK    7  A    between atoms: C_26  and  C_27
REMARK    8  A    between atoms: C_27  and  C_28
REMARK                            x       y       z     vdW  Elec       q    Type
REMARK                         _______ _______ _______ _____ _____    ______ ____
ROOT
ATOM      1  N   UNL     1       0.058   9.036  21.049  0.00  0.00    +0.000 N 
ATOM      2  C   UNL     1      -1.106   9.010  20.124  0.00  0.00    +0.000 C 
ATOM      3  C   UNL     1      -1.198  10.445  19.683  0.00  0.00    +0.000 A 
ATOM      4  C   UNL     1      -0.659  11.221  20.711  0.00  0.00    +0.000 A 
ATOM      5  C   UNL     1      -0.408  12.576  20.582  0.00  0.00    +0.000 A 
ATOM      6  C   UNL     1      -0.713  13.194  19.361  0.00  0.00    +0.000 A 
ATOM      7  C   UNL     1      -1.248  12.409  18.308  0.00  0.00    +0.000 A 
ATOM      8  C   UNL     1      -1.506  11.023  18.454  0.00  0.00    +0.000 A 
ATOM      9  C   UNL     1      -0.032  10.302  21.693  0.00  0.00    +0.000 C 
ATOM     10  O   UNL     1       0.475  10.667  22.737  0.00  0.00    +0.000 OA
ENDROOT
BRANCH   1  15
ATOM     11  C   UNL     1       2.429   6.926  19.298  0.00  0.00    +0.000 A 
ATOM     12  C   UNL     1       2.215   7.515  18.042  0.00  0.00    +0.000 A 
ATOM     13  C   UNL     1       1.788   8.834  17.941  0.00  0.00    +0.000 A 
ATOM     14  C   UNL     1       1.454   9.535  19.090  0.00  0.00    +0.000 A 
ATOM     15  C   UNL     1       1.299   8.826  20.289  0.00  0.00    +0.000 A 
ATOM     16  C   UNL     1       1.969   7.603  20.438  0.00  0.00    +0.000 A 
BRANCH  11  17
ATOM     17  C   UNL     1       3.210   5.638  19.361  0.00  0.00    +0.000 C 
BRANCH  17  23
ATOM     18  C   UNL     1       4.166   3.811  16.999  0.00  0.00    +0.000 C 
ATOM     19  N   UNL     1       3.151   3.515  17.971  0.00  0.00    +0.000 N 
ATOM     20  C   UNL     1       2.344   2.322  17.866  0.00  0.00    +0.000 C 
ATOM     21  C   UNL     1       1.082   2.725  18.631  0.00  0.00    +0.000 C 
ATOM     22  N   UNL     1       1.380   4.015  19.316  0.00  0.00    +0.000 NA
ATOM     23  C   UNL     1       2.545   4.382  18.852  0.00  0.00    +0.000 C 
ENDBRANCH  17  23
ENDBRANCH  11  17
ENDBRANCH   1  15
BRANCH   8  24
ATOM     24  C   UNL     1      -2.034  10.215  17.288  0.00  0.00    +0.000 C 
ATOM     25  C   UNL     1      -2.504  11.119  16.163  0.00  0.00    +0.000 C 
ATOM     26  F   UNL     1      -1.097   9.364  16.776  0.00  0.00    +0.000 F 
ATOM     27  F   UNL     1      -3.085   9.421  17.624  0.00  0.00    +0.000 F 
ENDBRANCH   8  24
BRANCH   6  28
ATOM     28  C   UNL     1      -0.478  14.685  19.197  0.00  0.00    +0.000 C 
BRANCH  28  29
ATOM     29  N   UNL     1       0.851  15.174  19.597  0.00  0.00    +0.000 NA
ATOM     30  C   UNL     1       1.094  16.573  19.176  0.00  0.00    +0.000 C 
ATOM     31  C   UNL     1       2.355  16.137  18.410  0.00  0.00    +0.000 C 
ATOM     32  F   UNL     1       3.550  16.437  18.976  0.00  0.00    +0.000 F 
ATOM     33  C   UNL     1       1.852  14.700  18.611  0.00  0.00    +0.000 C 
ENDBRANCH  28  29
ENDBRANCH   6  28
TORSDOF 6
ENDMDL
MODEL 8
REMARK VINA RESULT:      -7.2      1.574      2.046
REMARK  Name = 
REMARK  8 active torsions:
REMARK  status: ('A' for Active; 'I' for Inactive)
REMARK    1  A    between atoms: C_1  and  N_2
REMARK    2  A    between atoms: C_6  and  C_7
REMARK    3  A    between atoms: C_7  and  C_8
REMARK    4  A    between atoms: C_12  and  N_13
REMARK    5  A    between atoms: C_18  and  C_19
REMARK    6  A    between atoms: C_19  and  N_20
REMARK    7  A    between atoms: C_26  and  C_27
REMARK    8  A    between atoms: C_27  and  C_28
REMARK                            x       y       z     vdW  Elec       q    Type
REMARK                         _______ _______ _______ _____ _____    ______ ____
ROOT
ATOM      1  N   UNL     1      -0.443  11.374  18.440  0.00  0.00    +0.000 N 
ATOM      2  C   UNL     1       0.316  10.604  19.460  0.00  0.00    +0.000 C 
ATOM      3  C   UNL     1      -0.160  11.220  20.748  0.00  0.00    +0.000 A 
ATOM      4  C   UNL     1      -0.539  12.532  20.454  0.00  0.00    +0.000 A 
ATOM      5  C   UNL     1      -1.200  13.346  21.356  0.00  0.00    +0.000 A 
ATOM      6  C   UNL     1      -1.497  12.828  22.624  0.00  0.00    +0.000 A 
ATOM      7  C   UNL     1      -1.127  11.493  22.925  0.00  0.00    +0.000 A 
ATOM      8  C   UNL     1      -0.445  10.668  21.994  0.00  0.00    +0.000 A 
ATOM      9  C   UNL     1      -0.522  12.689  18.979  0.00  0.00    +0.000 C 
ATOM     10  O   UNL     1      -0.748  13.738  18.405  0.00  0.00    +0.000 OA
ENDROOT
BRANCH   1  15
ATOM     11  C   UNL     1      -3.995  11.495  17.727  0.00  0.00    +0.000 A 
ATOM     12  C   UNL     1      -3.892  10.865  16.477  0.00  0.00    +0.000 A 
ATOM     13  C   UNL     1      -2.850   9.985  16.212  0.00  0.00    +0.000 A 
ATOM     14  C   UNL     1      -1.837   9.821  17.144  0.00  0.00    +0.000 A 
ATOM     15  C   UNL     1      -1.745  10.734  18.204  0.00  0.00    +0.000 A 
ATOM     16  C   UNL     1      -2.903  11.417  18.604  0.00  0.00    +0.000 A 
BRANCH  11  17
ATOM     17  C   UNL     1      -5.302  12.156  18.090  0.00  0.00    +0.000 C 
BRANCH  17  23
ATOM     18  C   UNL     1      -7.133  10.836  20.266  0.00  0.00    +0.000 C 
ATOM     19  N   UNL     1      -6.128  11.842  20.469  0.00  0.00    +0.000 N 
ATOM     20  C   UNL     1      -5.945  12.463  21.761  0.00  0.00    +0.000 C 
ATOM     21  C   UNL     1      -5.316  13.804  21.381  0.00  0.00    +0.000 C 
ATOM     22  N   UNL     1      -4.966  13.729  19.934  0.00  0.00    +0.000 NA
ATOM     23  C   UNL     1      -5.493  12.608  19.518  0.00  0.00    +0.000 C 
ENDBRANCH  17  23
ENDBRANCH  11  17
ENDBRANCH   1  15
BRANCH   8  24
ATOM     24  C   UNL     1      -0.110   9.234  22.342  0.00  0.00    +0.000 C 
ATOM     25  C   UNL     1       1.369   8.954  22.148  0.00  0.00    +0.000 C 
ATOM     26  F   UNL     1      -0.428   8.922  23.632  0.00  0.00    +0.000 F 
ATOM     27  F   UNL     1      -0.787   8.331  21.584  0.00  0.00    +0.000 F 
ENDBRANCH   8  24
BRANCH   6  28
ATOM     28  C   UNL     1      -2.195  13.706  23.648  0.00  0.00    +0.000 C 
BRANCH  28  29
ATOM     29  N   UNL     1      -1.733  15.101  23.719  0.00  0.00    +0.000 NA
ATOM     30  C   UNL     1      -1.478  15.547  25.108  0.00  0.00    +0.000 C 
ATOM     31  C   UNL     1      -2.467  16.712  24.930  0.00  0.00    +0.000 C 
ATOM     32  F   UNL     1      -1.935  17.949  24.775  0.00  0.00    +0.000 F 
ATOM     33  C   UNL     1      -2.910  15.999  23.644  0.00  0.00    +0.000 C 
ENDBRANCH  28  29
ENDBRANCH   6  28
TORSDOF 6
ENDMDL
MODEL 9
REMARK VINA RESULT:      -7.2      4.598      7.686
REMARK  Name = 
REMARK  8 active torsions:
REMARK  status: ('A' for Active; 'I' for Inactive)
REMARK    1  A    between atoms: C_1  and  N_2
REMARK    2  A    between atoms: C_6  and  C_7
REMARK    3  A    between atoms: C_7  and  C_8
REMARK    4  A    between atoms: C_12  and  N_13
REMARK    5  A    between atoms: C_18  and  C_19
REMARK    6  A    between atoms: C_19  and  N_20
REMARK    7  A    between atoms: C_26  and  C_27
REMARK    8  A    between atoms: C_27  and  C_28
REMARK                            x       y       z     vdW  Elec       q    Type
REMARK                         _______ _______ _______ _____ _____    ______ ____
ROOT
ATOM      1  N   UNL     1       0.150   8.897  21.048  0.00  0.00    +0.000 N 
ATOM      2  C   UNL     1      -1.019   9.070  20.145  0.00  0.00    +0.000 C 
ATOM      3  C   UNL     1      -1.020  10.556  19.904  0.00  0.00    +0.000 A 
ATOM      4  C   UNL     1      -0.427  11.149  21.021  0.00  0.00    +0.000 A 
ATOM      5  C   UNL     1      -0.089  12.489  21.073  0.00  0.00    +0.000 A 
ATOM      6  C   UNL     1      -0.360  13.286  19.951  0.00  0.00    +0.000 A 
ATOM      7  C   UNL     1      -0.950  12.688  18.810  0.00  0.00    +0.000 A 
ATOM      8  C   UNL     1      -1.297  11.314  18.769  0.00  0.00    +0.000 A 
ATOM      9  C   UNL     1       0.145  10.067  21.859  0.00  0.00    +0.000 C 
ATOM     10  O   UNL     1       0.681  10.252  22.936  0.00  0.00    +0.000 OA
ENDROOT
BRANCH   1  15
ATOM     11  C   UNL     1       2.580   6.827  19.332  0.00  0.00    +0.000 A 
ATOM     12  C   UNL     1       2.277   7.317  18.051  0.00  0.00    +0.000 A 
ATOM     13  C   UNL     1       1.763   8.597  17.887  0.00  0.00    +0.000 A 
ATOM     14  C   UNL     1       1.431   9.351  19.002  0.00  0.00    +0.000 A 
ATOM     15  C   UNL     1       1.370   8.714  20.249  0.00  0.00    +0.000 A 
ATOM     16  C   UNL     1       2.123   7.547  20.445  0.00  0.00    +0.000 A 
BRANCH  11  17
ATOM     17  C   UNL     1       3.444   5.595  19.441  0.00  0.00    +0.000 C 
BRANCH  17  23
ATOM     18  C   UNL     1       2.021   3.638  21.435  0.00  0.00    +0.000 C 
ATOM     19  N   UNL     1       2.013   3.576  20.000  0.00  0.00    +0.000 N 
ATOM     20  C   UNL     1       1.408   2.462  19.306  0.00  0.00    +0.000 C 
ATOM     21  C   UNL     1       2.158   2.475  17.973  0.00  0.00    +0.000 C 
ATOM     22  N   UNL     1       2.944   3.740  17.926  0.00  0.00    +0.000 NA
ATOM     23  C   UNL     1       2.818   4.260  19.118  0.00  0.00    +0.000 C 
ENDBRANCH  17  23
ENDBRANCH  11  17
ENDBRANCH   1  15
BRANCH   8  24
ATOM     24  C   UNL     1      -1.883  10.708  17.512  0.00  0.00    +0.000 C 
ATOM     25  C   UNL     1      -3.265  10.138  17.772  0.00  0.00    +0.000 C 
ATOM     26  F   UNL     1      -1.989  11.614  16.497  0.00  0.00    +0.000 F 
ATOM     27  F   UNL     1      -1.126   9.698  17.006  0.00  0.00    +0.000 F 
ENDBRANCH   8  24
BRANCH   6  28
ATOM     28  C   UNL     1      -0.029  14.768  19.988  0.00  0.00    +0.000 C 
BRANCH  28  29
ATOM     29  N   UNL     1       0.448  15.351  18.724  0.00  0.00    +0.000 NA
ATOM     30  C   UNL     1       1.637  16.214  18.907  0.00  0.00    +0.000 C 
ATOM     31  C   UNL     1       0.897  17.395  18.258  0.00  0.00    +0.000 C 
ATOM     32  F   UNL     1       1.254  17.721  16.992  0.00  0.00    +0.000 F 
ATOM     33  C   UNL     1      -0.373  16.545  18.407  0.00  0.00    +0.000 C 
ENDBRANCH  28  29
ENDBRANCH   6  28
TORSDOF 6
ENDMDL
