MODEL 1
REMARK VINA RESULT:      -8.6      0.000      0.000
REMARK  Name = 
REMARK  6 active torsions:
REMARK  status: ('A' for Active; 'I' for Inactive)
REMARK    1  A    between atoms: C_2  and  C_3
REMARK    2  A    between atoms: C_3  and  C_4
REMARK    3  A    between atoms: N_7  and  C_8
REMARK    4  A    between atoms: N_15  and  C_16
REMARK    5  A    between atoms: C_16  and  C_17
REMARK    6  A    between atoms: N_19  and  C_20
REMARK                            x       y       z     vdW  Elec       q    Type
REMARK                         _______ _______ _______ _____ _____    ______ ____
ROOT
ATOM      1  O   UNL     1       7.564   5.983  15.737  0.00  0.00    +0.000 OA
ATOM      2  C   UNL     1       6.655   6.570  16.314  0.00  0.00    +0.000 C 
ATOM      3  N   UNL     1       6.839   7.280  17.468  0.00  0.00    +0.000 N 
ATOM      4  H   UNL     1       6.030   7.655  17.962  0.00  0.00    +0.000 HD
ENDROOT
BRANCH   2   5
ATOM      5  C   UNL     1       5.217   6.583  15.815  0.00  0.00    +0.000 C 
BRANCH   5   6
ATOM      6  C   UNL     1       4.235   6.362  16.911  0.00  0.00    +0.000 A 
ATOM      7  C   UNL     1       3.499   7.325  17.627  0.00  0.00    +0.000 A 
ATOM      8  N   UNL     1       2.716   6.788  18.563  0.00  0.00    +0.000 NA
ATOM      9  N   UNL     1       2.961   5.454  18.500  0.00  0.00    +0.000 N 
ATOM     10  C   UNL     1       3.855   5.167  17.487  0.00  0.00    +0.000 A 
BRANCH   9  11
ATOM     11  C   UNL     1       2.348   4.544  19.408  0.00  0.00    +0.000 A 
ATOM     12  C   UNL     1       2.757   4.518  20.750  0.00  0.00    +0.000 A 
ATOM     13  C   UNL     1       2.173   3.619  21.647  0.00  0.00    +0.000 A 
ATOM     14  C   UNL     1       1.185   2.738  21.211  0.00  0.00    +0.000 A 
ATOM     15  C   UNL     1       0.774   2.758  19.880  0.00  0.00    +0.000 A 
ATOM     16  C   UNL     1       1.349   3.659  18.979  0.00  0.00    +0.000 A 
ENDBRANCH   9  11
ENDBRANCH   5   6
ENDBRANCH   2   5
BRANCH   3  17
ATOM     17  C   UNL     1       8.110   7.410  18.166  0.00  0.00    +0.000 C 
BRANCH  17  18
ATOM     18  C   UNL     1       8.321   8.917  18.333  0.00  0.00    +0.000 C 
ATOM     19  O   UNL     1       7.667   9.697  17.638  0.00  0.00    +0.000 OA
ATOM     20  N   UNL     1       9.268   9.290  19.266  0.00  0.00    +0.000 N 
ATOM     21  H   UNL     1       9.891   8.580  19.635  0.00  0.00    +0.000 HD
BRANCH  20  22
ATOM     22  C   UNL     1       9.587  10.635  19.594  0.00  0.00    +0.000 A 
ATOM     23  C   UNL     1       9.261  11.221  20.824  0.00  0.00    +0.000 A 
ATOM     24  C   UNL     1       9.533  12.569  21.069  0.00  0.00    +0.000 A 
ATOM     25  C   UNL     1      10.148  13.334  20.088  0.00  0.00    +0.000 A 
ATOM     26  F   UNL     1      10.383  14.632  20.324  0.00  0.00    +0.000 F 
ATOM     27  C   UNL     1      10.518  12.760  18.877  0.00  0.00    +0.000 A 
ATOM     28  F   UNL     1      11.116  13.506  17.939  0.00  0.00    +0.000 F 
ATOM     29  C   UNL     1      10.247  11.416  18.638  0.00  0.00    +0.000 A 
ATOM     30  F   UNL     1      10.594  10.868  17.461  0.00  0.00    +0.000 F 
ENDBRANCH  20  22
ENDBRANCH  17  18
ENDBRANCH   3  17
TORSDOF 6
ENDMDL
MODEL 2
REMARK VINA RESULT:      -8.4      4.859      7.601
REMARK  Name = 
REMARK  6 active torsions:
REMARK  status: ('A' for Active; 'I' for Inactive)
REMARK    1  A    between atoms: C_2  and  C_3
REMARK    2  A    between atoms: C_3  and  C_4
REMARK    3  A    between atoms: N_7  and  C_8
REMARK    4  A    between atoms: N_15  and  C_16
REMARK    5  A    between atoms: C_16  and  C_17
REMARK    6  A    between atoms: N_19  and  C_20
REMARK                            x       y       z     vdW  Elec       q    Type
REMARK                         _______ _______ _______ _____ _____    ______ ____
ROOT
ATOM      1  O   UNL     1       1.212   2.101  18.932  0.00  0.00    +0.000 OA
ATOM      2  C   UNL     1       2.411   2.282  19.120  0.00  0.00    +0.000 C 
ATOM      3  N   UNL     1       2.909   2.879  20.245  0.00  0.00    +0.000 N 
ATOM      4  H   UNL     1       3.902   3.101  20.298  0.00  0.00    +0.000 HD
ENDROOT
BRANCH   2   5
ATOM      5  C   UNL     1       3.486   1.863  18.127  0.00  0.00    +0.000 C 
BRANCH   5   6
ATOM      6  C   UNL     1       4.275   3.020  17.625  0.00  0.00    +0.000 A 
ATOM      7  C   UNL     1       4.479   3.422  16.291  0.00  0.00    +0.000 A 
ATOM      8  N   UNL     1       5.257   4.499  16.188  0.00  0.00    +0.000 NA
ATOM      9  N   UNL     1       5.611   4.798  17.464  0.00  0.00    +0.000 N 
ATOM     10  C   UNL     1       5.004   3.936  18.356  0.00  0.00    +0.000 A 
BRANCH   9  11
ATOM     11  C   UNL     1       6.508   5.866  17.754  0.00  0.00    +0.000 A 
ATOM     12  C   UNL     1       7.482   5.706  18.751  0.00  0.00    +0.000 A 
ATOM     13  C   UNL     1       8.359   6.753  19.053  0.00  0.00    +0.000 A 
ATOM     14  C   UNL     1       8.263   7.964  18.372  0.00  0.00    +0.000 A 
ATOM     15  C   UNL     1       7.298   8.131  17.381  0.00  0.00    +0.000 A 
ATOM     16  C   UNL     1       6.423   7.087  17.068  0.00  0.00    +0.000 A 
ENDBRANCH   9  11
ENDBRANCH   5   6
ENDBRANCH   2   5
BRANCH   3  17
ATOM     17  C   UNL     1       2.096   3.391  21.340  0.00  0.00    +0.000 C 
BRANCH  17  18
ATOM     18  C   UNL     1       1.491   4.693  20.810  0.00  0.00    +0.000 C 
ATOM     19  O   UNL     1       0.306   4.714  20.473  0.00  0.00    +0.000 OA
ATOM     20  N   UNL     1       2.355   5.768  20.735  0.00  0.00    +0.000 N 
ATOM     21  H   UNL     1       3.349   5.599  20.839  0.00  0.00    +0.000 HD
BRANCH  20  22
ATOM     22  C   UNL     1       1.983   7.069  20.303  0.00  0.00    +0.000 A 
ATOM     23  C   UNL     1       1.314   7.986  21.124  0.00  0.00    +0.000 A 
ATOM     24  C   UNL     1       0.906   9.226  20.628  0.00  0.00    +0.000 A 
ATOM     25  C   UNL     1       1.180   9.562  19.311  0.00  0.00    +0.000 A 
ATOM     26  F   UNL     1       0.764  10.745  18.837  0.00  0.00    +0.000 F 
ATOM     27  C   UNL     1       1.881   8.684  18.492  0.00  0.00    +0.000 A 
ATOM     28  F   UNL     1       2.146   9.021  17.223  0.00  0.00    +0.000 F 
ATOM     29  C   UNL     1       2.288   7.450  18.991  0.00  0.00    +0.000 A 
ATOM     30  F   UNL     1       2.953   6.598  18.192  0.00  0.00    +0.000 F 
ENDBRANCH  20  22
ENDBRANCH  17  18
ENDBRANCH   3  17
TORSDOF 6
ENDMDL
MODEL 3
REMARK VINA RESULT:      -8.3      1.629      2.338
REMARK  Name = 
REMARK  6 active torsions:
REMARK  status: ('A' for Active; 'I' for Inactive)
REMARK    1  A    between atoms: C_2  and  C_3
REMARK    2  A    between atoms: C_3  and  C_4
REMARK    3  A    between atoms: N_7  and  C_8
REMARK    4  A    between atoms: N_15  and  C_16
REMARK    5  A    between atoms: C_16  and  C_17
REMARK    6  A    between atoms: N_19  and  C_20
REMARK                            x       y       z     vdW  Elec       q    Type
REMARK                         _______ _______ _______ _____ _____    ______ ____
ROOT
ATOM      1  O   UNL     1       8.022   6.421  18.837  0.00  0.00    +0.000 OA
ATOM      2  C   UNL     1       7.601   7.159  17.952  0.00  0.00    +0.000 C 
ATOM      3  N   UNL     1       7.950   8.477  17.851  0.00  0.00    +0.000 N 
ATOM      4  H   UNL     1       7.486   9.068  17.163  0.00  0.00    +0.000 HD
ENDROOT
BRANCH   2   5
ATOM      5  C   UNL     1       6.646   6.696  16.861  0.00  0.00    +0.000 C 
BRANCH   5   6
ATOM      6  C   UNL     1       5.281   6.416  17.386  0.00  0.00    +0.000 A 
ATOM      7  C   UNL     1       4.156   7.261  17.379  0.00  0.00    +0.000 A 
ATOM      8  N   UNL     1       3.087   6.704  17.948  0.00  0.00    +0.000 NA
ATOM      9  N   UNL     1       3.513   5.488  18.376  0.00  0.00    +0.000 N 
ATOM     10  C   UNL     1       4.830   5.277  18.021  0.00  0.00    +0.000 A 
BRANCH   9  11
ATOM     11  C   UNL     1       2.653   4.616  19.104  0.00  0.00    +0.000 A 
ATOM     12  C   UNL     1       2.650   4.652  20.507  0.00  0.00    +0.000 A 
ATOM     13  C   UNL     1       1.822   3.790  21.232  0.00  0.00    +0.000 A 
ATOM     14  C   UNL     1       0.998   2.885  20.564  0.00  0.00    +0.000 A 
ATOM     15  C   UNL     1       0.996   2.844  19.172  0.00  0.00    +0.000 A 
ATOM     16  C   UNL     1       1.817   3.707  18.440  0.00  0.00    +0.000 A 
ENDBRANCH   9  11
ENDBRANCH   5   6
ENDBRANCH   2   5
BRANCH   3  17
ATOM     17  C   UNL     1       8.832   9.174  18.777  0.00  0.00    +0.000 C 
BRANCH  17  18
ATOM     18  C   UNL     1       8.955  10.593  18.218  0.00  0.00    +0.000 C 
ATOM     19  O   UNL     1       8.059  11.038  17.499  0.00  0.00    +0.000 OA
ATOM     20  N   UNL     1      10.106  11.274  18.561  0.00  0.00    +0.000 N 
ATOM     21  H   UNL     1      10.869  10.756  18.982  0.00  0.00    +0.000 HD
BRANCH  20  22
ATOM     22  C   UNL     1      10.396  12.609  18.173  0.00  0.00    +0.000 A 
ATOM     23  C   UNL     1      11.205  12.928  17.074  0.00  0.00    +0.000 A 
ATOM     24  C   UNL     1      11.518  14.256  16.778  0.00  0.00    +0.000 A 
ATOM     25  C   UNL     1      11.010  15.275  17.571  0.00  0.00    +0.000 A 
ATOM     26  F   UNL     1      11.336  16.544  17.293  0.00  0.00    +0.000 F 
ATOM     27  C   UNL     1      10.171  14.982  18.640  0.00  0.00    +0.000 A 
ATOM     28  F   UNL     1       9.681  15.973  19.396  0.00  0.00    +0.000 F 
ATOM     29  C   UNL     1       9.859  13.657  18.930  0.00  0.00    +0.000 A 
ATOM     30  F   UNL     1       9.058  13.376  19.973  0.00  0.00    +0.000 F 
ENDBRANCH  20  22
ENDBRANCH  17  18
ENDBRANCH   3  17
TORSDOF 6
ENDMDL
MODEL 4
REMARK VINA RESULT:      -8.1      1.580      2.183
REMARK  Name = 
REMARK  6 active torsions:
REMARK  status: ('A' for Active; 'I' for Inactive)
REMARK    1  A    between atoms: C_2  and  C_3
REMARK    2  A    between atoms: C_3  and  C_4
REMARK    3  A    between atoms: N_7  and  C_8
REMARK    4  A    between atoms: N_15  and  C_16
REMARK    5  A    between atoms: C_16  and  C_17
REMARK    6  A    between atoms: N_19  and  C_20
REMARK                            x       y       z     vdW  Elec       q    Type
REMARK                         _______ _______ _______ _____ _____    ______ ____
ROOT
ATOM      1  O   UNL     1       7.847   6.327  18.423  0.00  0.00    +0.000 OA
ATOM      2  C   UNL     1       7.418   7.209  17.686  0.00  0.00    +0.000 C 
ATOM      3  N   UNL     1       7.839   8.508  17.752  0.00  0.00    +0.000 N 
ATOM      4  H   UNL     1       7.369   9.217  17.191  0.00  0.00    +0.000 HD
ENDROOT
BRANCH   2   5
ATOM      5  C   UNL     1       6.368   6.962  16.612  0.00  0.00    +0.000 C 
BRANCH   5   6
ATOM      6  C   UNL     1       5.464   5.830  16.952  0.00  0.00    +0.000 A 
ATOM      7  C   UNL     1       5.351   4.582  16.310  0.00  0.00    +0.000 A 
ATOM      8  N   UNL     1       4.426   3.797  16.862  0.00  0.00    +0.000 NA
ATOM      9  N   UNL     1       3.886   4.543  17.860  0.00  0.00    +0.000 N 
ATOM     10  C   UNL     1       4.518   5.767  17.955  0.00  0.00    +0.000 A 
BRANCH   9  11
ATOM     11  C   UNL     1       2.800   4.056  18.644  0.00  0.00    +0.000 A 
ATOM     12  C   UNL     1       1.981   3.035  18.142  0.00  0.00    +0.000 A 
ATOM     13  C   UNL     1       0.904   2.560  18.897  0.00  0.00    +0.000 A 
ATOM     14  C   UNL     1       0.635   3.105  20.151  0.00  0.00    +0.000 A 
ATOM     15  C   UNL     1       1.444   4.120  20.656  0.00  0.00    +0.000 A 
ATOM     16  C   UNL     1       2.527   4.595  19.910  0.00  0.00    +0.000 A 
ENDBRANCH   9  11
ENDBRANCH   5   6
ENDBRANCH   2   5
BRANCH   3  17
ATOM     17  C   UNL     1       8.818   9.014  18.703  0.00  0.00    +0.000 C 
BRANCH  17  18
ATOM     18  C   UNL     1       8.891  10.519  18.437  0.00  0.00    +0.000 C 
ATOM     19  O   UNL     1       8.107  11.028  17.633  0.00  0.00    +0.000 OA
ATOM     20  N   UNL     1       9.872  11.203  19.128  0.00  0.00    +0.000 N 
ATOM     21  H   UNL     1      10.591  10.670  19.603  0.00  0.00    +0.000 HD
BRANCH  20  22
ATOM     22  C   UNL     1      10.083  12.605  19.046  0.00  0.00    +0.000 A 
ATOM     23  C   UNL     1       9.600  13.508  20.002  0.00  0.00    +0.000 A 
ATOM     24  C   UNL     1       9.772  14.885  19.838  0.00  0.00    +0.000 A 
ATOM     25  C   UNL     1      10.444  15.364  18.723  0.00  0.00    +0.000 A 
ATOM     26  F   UNL     1      10.583  16.687  18.562  0.00  0.00    +0.000 F 
ATOM     27  C   UNL     1      10.968  14.482  17.785  0.00  0.00    +0.000 A 
ATOM     28  F   UNL     1      11.620  14.955  16.714  0.00  0.00    +0.000 F 
ATOM     29  C   UNL     1      10.796  13.111  17.953  0.00  0.00    +0.000 A 
ATOM     30  F   UNL     1      11.293  12.262  17.037  0.00  0.00    +0.000 F 
ENDBRANCH  20  22
ENDBRANCH  17  18
ENDBRANCH   3  17
TORSDOF 6
ENDMDL
MODEL 5
REMARK VINA RESULT:      -8.0      2.140      2.835
REMARK  Name = 
REMARK  6 active torsions:
REMARK  status: ('A' for Active; 'I' for Inactive)
REMARK    1  A    between atoms: C_2  and  C_3
REMARK    2  A    between atoms: C_3  and  C_4
REMARK    3  A    between atoms: N_7  and  C_8
REMARK    4  A    between atoms: N_15  and  C_16
REMARK    5  A    between atoms: C_16  and  C_17
REMARK    6  A    between atoms: N_19  and  C_20
REMARK                            x       y       z     vdW  Elec       q    Type
REMARK                         _______ _______ _______ _____ _____    ______ ____
ROOT
ATOM      1  O   UNL     1       7.302   7.292  16.640  0.00  0.00    +0.000 OA
ATOM      2  C   UNL     1       7.713   7.380  17.792  0.00  0.00    +0.000 C 
ATOM      3  N   UNL     1       8.224   8.534  18.317  0.00  0.00    +0.000 N 
ATOM      4  H   UNL     1       8.651   8.520  19.242  0.00  0.00    +0.000 HD
ENDROOT
BRANCH   2   5
ATOM      5  C   UNL     1       7.701   6.217  18.775  0.00  0.00    +0.000 C 
BRANCH   5   6
ATOM      6  C   UNL     1       6.528   5.323  18.578  0.00  0.00    +0.000 A 
ATOM      7  C   UNL     1       6.301   4.399  17.541  0.00  0.00    +0.000 A 
ATOM      8  N   UNL     1       5.133   3.767  17.656  0.00  0.00    +0.000 NA
ATOM      9  N   UNL     1       4.554   4.302  18.761  0.00  0.00    +0.000 N 
ATOM     10  C   UNL     1       5.392   5.225  19.355  0.00  0.00    +0.000 A 
BRANCH   9  11
ATOM     11  C   UNL     1       3.245   3.919  19.172  0.00  0.00    +0.000 A 
ATOM     12  C   UNL     1       2.443   3.150  18.315  0.00  0.00    +0.000 A 
ATOM     13  C   UNL     1       1.152   2.780  18.701  0.00  0.00    +0.000 A 
ATOM     14  C   UNL     1       0.650   3.180  19.938  0.00  0.00    +0.000 A 
ATOM     15  C   UNL     1       1.440   3.944  20.794  0.00  0.00    +0.000 A 
ATOM     16  C   UNL     1       2.735   4.312  20.418  0.00  0.00    +0.000 A 
ENDBRANCH   9  11
ENDBRANCH   5   6
ENDBRANCH   2   5
BRANCH   3  17
ATOM     17  C   UNL     1       8.369   9.784  17.584  0.00  0.00    +0.000 C 
BRANCH  17  18
ATOM     18  C   UNL     1       9.095  10.728  18.546  0.00  0.00    +0.000 C 
ATOM     19  O   UNL     1       9.496  10.295  19.628  0.00  0.00    +0.000 OA
ATOM     20  N   UNL     1       9.232  12.033  18.115  0.00  0.00    +0.000 N 
ATOM     21  H   UNL     1       8.695  12.337  17.311  0.00  0.00    +0.000 HD
BRANCH  20  22
ATOM     22  C   UNL     1       9.902  13.053  18.842  0.00  0.00    +0.000 A 
ATOM     23  C   UNL     1      11.297  13.133  18.939  0.00  0.00    +0.000 A 
ATOM     24  C   UNL     1      11.904  14.114  19.727  0.00  0.00    +0.000 A 
ATOM     25  C   UNL     1      11.118  15.030  20.410  0.00  0.00    +0.000 A 
ATOM     26  F   UNL     1      11.709  15.952  21.182  0.00  0.00    +0.000 F 
ATOM     27  C   UNL     1       9.733  14.994  20.292  0.00  0.00    +0.000 A 
ATOM     28  F   UNL     1       8.983  15.886  20.951  0.00  0.00    +0.000 F 
ATOM     29  C   UNL     1       9.132  14.016  19.504  0.00  0.00    +0.000 A 
ATOM     30  F   UNL     1       7.792  13.976  19.404  0.00  0.00    +0.000 F 
ENDBRANCH  20  22
ENDBRANCH  17  18
ENDBRANCH   3  17
TORSDOF 6
ENDMDL
MODEL 6
REMARK VINA RESULT:      -8.0      1.984      2.733
REMARK  Name = 
REMARK  6 active torsions:
REMARK  status: ('A' for Active; 'I' for Inactive)
REMARK    1  A    between atoms: C_2  and  C_3
REMARK    2  A    between atoms: C_3  and  C_4
REMARK    3  A    between atoms: N_7  and  C_8
REMARK    4  A    between atoms: N_15  and  C_16
REMARK    5  A    between atoms: C_16  and  C_17
REMARK    6  A    between atoms: N_19  and  C_20
REMARK                            x       y       z     vdW  Elec       q    Type
REMARK                         _______ _______ _______ _____ _____    ______ ____
ROOT
ATOM      1  O   UNL     1       7.405   5.843  15.921  0.00  0.00    +0.000 OA
ATOM      2  C   UNL     1       6.540   6.443  16.552  0.00  0.00    +0.000 C 
ATOM      3  N   UNL     1       6.816   7.216  17.645  0.00  0.00    +0.000 N 
ATOM      4  H   UNL     1       6.049   7.601  18.195  0.00  0.00    +0.000 HD
ENDROOT
BRANCH   2   5
ATOM      5  C   UNL     1       5.061   6.399  16.194  0.00  0.00    +0.000 C 
BRANCH   5   6
ATOM      6  C   UNL     1       4.186   6.588  17.382  0.00  0.00    +0.000 A 
ATOM      7  C   UNL     1       3.910   5.673  18.415  0.00  0.00    +0.000 A 
ATOM      8  N   UNL     1       3.064   6.157  19.325  0.00  0.00    +0.000 NA
ATOM      9  N   UNL     1       2.739   7.396  18.873  0.00  0.00    +0.000 N 
ATOM     10  C   UNL     1       3.428   7.693  17.714  0.00  0.00    +0.000 A 
BRANCH   9  11
ATOM     11  C   UNL     1       1.788   8.208  19.557  0.00  0.00    +0.000 A 
ATOM     12  C   UNL     1       1.398   7.874  20.863  0.00  0.00    +0.000 A 
ATOM     13  C   UNL     1       0.455   8.655  21.538  0.00  0.00    +0.000 A 
ATOM     14  C   UNL     1      -0.107   9.767  20.914  0.00  0.00    +0.000 A 
ATOM     15  C   UNL     1       0.275  10.105  19.618  0.00  0.00    +0.000 A 
ATOM     16  C   UNL     1       1.222   9.332  18.939  0.00  0.00    +0.000 A 
ENDBRANCH   9  11
ENDBRANCH   5   6
ENDBRANCH   2   5
BRANCH   3  17
ATOM     17  C   UNL     1       8.144   7.409  18.210  0.00  0.00    +0.000 C 
BRANCH  17  18
ATOM     18  C   UNL     1       8.303   8.926  18.343  0.00  0.00    +0.000 C 
ATOM     19  O   UNL     1       7.592   9.669  17.664  0.00  0.00    +0.000 OA
ATOM     20  N   UNL     1       9.274   9.350  19.230  0.00  0.00    +0.000 N 
ATOM     21  H   UNL     1       9.938   8.671  19.583  0.00  0.00    +0.000 HD
BRANCH  20  22
ATOM     22  C   UNL     1       9.555  10.712  19.522  0.00  0.00    +0.000 A 
ATOM     23  C   UNL     1       9.223  11.317  20.741  0.00  0.00    +0.000 A 
ATOM     24  C   UNL     1       9.456  12.678  20.952  0.00  0.00    +0.000 A 
ATOM     25  C   UNL     1      10.037  13.438  19.947  0.00  0.00    +0.000 A 
ATOM     26  F   UNL     1      10.234  14.747  20.149  0.00  0.00    +0.000 F 
ATOM     27  C   UNL     1      10.413  12.847  18.746  0.00  0.00    +0.000 A 
ATOM     28  F   UNL     1      10.978  13.588  17.784  0.00  0.00    +0.000 F 
ATOM     29  C   UNL     1      10.181  11.490  18.541  0.00  0.00    +0.000 A 
ATOM     30  F   UNL     1      10.533  10.925  17.374  0.00  0.00    +0.000 F 
ENDBRANCH  20  22
ENDBRANCH  17  18
ENDBRANCH   3  17
TORSDOF 6
ENDMDL
MODEL 7
REMARK VINA RESULT:      -7.9      5.728      8.534
REMARK  Name = 
REMARK  6 active torsions:
REMARK  status: ('A' for Active; 'I' for Inactive)
REMARK    1  A    between atoms: C_2  and  C_3
REMARK    2  A    between atoms: C_3  and  C_4
REMARK    3  A    between atoms: N_7  and  C_8
REMARK    4  A    between atoms: N_15  and  C_16
REMARK    5  A    between atoms: C_16  and  C_17
REMARK    6  A    between atoms: N_19  and  C_20
REMARK                            x       y       z     vdW  Elec       q    Type
REMARK                         _______ _______ _______ _____ _____    ______ ____
ROOT
ATOM      1  O   UNL     1      -0.165   7.938  22.059  0.00  0.00    +0.000 OA
ATOM      2  C   UNL     1       0.762   8.570  21.562  0.00  0.00    +0.000 C 
ATOM      3  N   UNL     1       1.803   7.976  20.905  0.00  0.00    +0.000 N 
ATOM      4  H   UNL     1       2.598   8.541  20.609  0.00  0.00    +0.000 HD
ENDROOT
BRANCH   2   5
ATOM      5  C   UNL     1       0.862  10.089  21.616  0.00  0.00    +0.000 C 
BRANCH   5   6
ATOM      6  C   UNL     1       0.032  10.748  20.571  0.00  0.00    +0.000 A 
ATOM      7  C   UNL     1      -0.190  12.124  20.376  0.00  0.00    +0.000 A 
ATOM      8  N   UNL     1      -1.004  12.377  19.352  0.00  0.00    +0.000 NA
ATOM      9  N   UNL     1      -1.363  11.155  18.881  0.00  0.00    +0.000 N 
ATOM     10  C   UNL     1      -0.725  10.152  19.583  0.00  0.00    +0.000 A 
BRANCH   9  11
ATOM     11  C   UNL     1      -2.295  11.017  17.812  0.00  0.00    +0.000 A 
ATOM     12  C   UNL     1      -1.924  10.325  16.649  0.00  0.00    +0.000 A 
ATOM     13  C   UNL     1      -2.826  10.196  15.589  0.00  0.00    +0.000 A 
ATOM     14  C   UNL     1      -4.097  10.761  15.678  0.00  0.00    +0.000 A 
ATOM     15  C   UNL     1      -4.472  11.450  16.829  0.00  0.00    +0.000 A 
ATOM     16  C   UNL     1      -3.578  11.577  17.896  0.00  0.00    +0.000 A 
ENDBRANCH   9  11
ENDBRANCH   5   6
ENDBRANCH   2   5
BRANCH   3  17
ATOM     17  C   UNL     1       1.960   6.539  20.730  0.00  0.00    +0.000 C 
BRANCH  17  18
ATOM     18  C   UNL     1       2.790   6.382  19.453  0.00  0.00    +0.000 C 
ATOM     19  O   UNL     1       2.633   7.182  18.530  0.00  0.00    +0.000 OA
ATOM     20  N   UNL     1       3.662   5.312  19.434  0.00  0.00    +0.000 N 
ATOM     21  H   UNL     1       3.572   4.600  20.150  0.00  0.00    +0.000 HD
BRANCH  20  22
ATOM     22  C   UNL     1       4.542   5.011  18.360  0.00  0.00    +0.000 A 
ATOM     23  C   UNL     1       4.095   4.683  17.074  0.00  0.00    +0.000 A 
ATOM     24  C   UNL     1       4.999   4.325  16.071  0.00  0.00    +0.000 A 
ATOM     25  C   UNL     1       6.358   4.309  16.347  0.00  0.00    +0.000 A 
ATOM     26  F   UNL     1       7.216   3.940  15.386  0.00  0.00    +0.000 F 
ATOM     27  C   UNL     1       6.825   4.673  17.605  0.00  0.00    +0.000 A 
ATOM     28  F   UNL     1       8.140   4.659  17.860  0.00  0.00    +0.000 F 
ATOM     29  C   UNL     1       5.921   5.031  18.601  0.00  0.00    +0.000 A 
ATOM     30  F   UNL     1       6.375   5.369  19.820  0.00  0.00    +0.000 F 
ENDBRANCH  20  22
ENDBRANCH  17  18
ENDBRANCH   3  17
TORSDOF 6
ENDMDL
MODEL 8
REMARK VINA RESULT:      -7.9      1.707      2.470
REMARK  Name = 
REMARK  6 active torsions:
REMARK  status: ('A' for Active; 'I' for Inactive)
REMARK    1  A    between atoms: C_2  and  C_3
REMARK    2  A    between atoms: C_3  and  C_4
REMARK    3  A    between atoms: N_7  and  C_8
REMARK    4  A    between atoms: N_15  and  C_16
REMARK    5  A    between atoms: C_16  and  C_17
REMARK    6  A    between atoms: N_19  and  C_20
REMARK                            x       y       z     vdW  Elec       q    Type
REMARK                         _______ _______ _______ _____ _____    ______ ____
ROOT
ATOM      1  O   UNL     1       8.061   6.545  17.715  0.00  0.00    +0.000 OA
ATOM      2  C   UNL     1       7.372   7.523  17.443  0.00  0.00    +0.000 C 
ATOM      3  N   UNL     1       7.695   8.794  17.829  0.00  0.00    +0.000 N 
ATOM      4  H   UNL     1       7.031   9.551  17.670  0.00  0.00    +0.000 HD
ENDROOT
BRANCH   2   5
ATOM      5  C   UNL     1       6.079   7.439  16.643  0.00  0.00    +0.000 C 
BRANCH   5   6
ATOM      6  C   UNL     1       5.301   6.209  16.954  0.00  0.00    +0.000 A 
ATOM      7  C   UNL     1       5.387   4.945  16.340  0.00  0.00    +0.000 A 
ATOM      8  N   UNL     1       4.529   4.062  16.850  0.00  0.00    +0.000 NA
ATOM      9  N   UNL     1       3.834   4.753  17.790  0.00  0.00    +0.000 N 
ATOM     10  C   UNL     1       4.302   6.047  17.893  0.00  0.00    +0.000 A 
BRANCH   9  11
ATOM     11  C   UNL     1       2.765   4.149  18.514  0.00  0.00    +0.000 A 
ATOM     12  C   UNL     1       2.306   4.741  19.700  0.00  0.00    +0.000 A 
ATOM     13  C   UNL     1       1.268   4.150  20.426  0.00  0.00    +0.000 A 
ATOM     14  C   UNL     1       0.688   2.964  19.978  0.00  0.00    +0.000 A 
ATOM     15  C   UNL     1       1.139   2.371  18.801  0.00  0.00    +0.000 A 
ATOM     16  C   UNL     1       2.172   2.960  18.066  0.00  0.00    +0.000 A 
ENDBRANCH   9  11
ENDBRANCH   5   6
ENDBRANCH   2   5
BRANCH   3  17
ATOM     17  C   UNL     1       8.865   9.148  18.619  0.00  0.00    +0.000 C 
BRANCH  17  18
ATOM     18  C   UNL     1       9.139  10.617  18.290  0.00  0.00    +0.000 C 
ATOM     19  O   UNL     1       8.256  11.290  17.756  0.00  0.00    +0.000 OA
ATOM     20  N   UNL     1      10.399  11.079  18.614  0.00  0.00    +0.000 N 
ATOM     21  H   UNL     1      11.115  10.404  18.859  0.00  0.00    +0.000 HD
BRANCH  20  22
ATOM     22  C   UNL     1      10.840  12.416  18.421  0.00  0.00    +0.000 A 
ATOM     23  C   UNL     1      11.096  12.962  17.157  0.00  0.00    +0.000 A 
ATOM     24  C   UNL     1      11.597  14.259  17.026  0.00  0.00    +0.000 A 
ATOM     25  C   UNL     1      11.830  15.023  18.160  0.00  0.00    +0.000 A 
ATOM     26  F   UNL     1      12.333  16.257  18.026  0.00  0.00    +0.000 F 
ATOM     27  C   UNL     1      11.541  14.514  19.422  0.00  0.00    +0.000 A 
ATOM     28  F   UNL     1      11.764  15.262  20.511  0.00  0.00    +0.000 F 
ATOM     29  C   UNL     1      11.040  13.222  19.548  0.00  0.00    +0.000 A 
ATOM     30  F   UNL     1      10.775  12.729  20.770  0.00  0.00    +0.000 F 
ENDBRANCH  20  22
ENDBRANCH  17  18
ENDBRANCH   3  17
TORSDOF 6
ENDMDL
MODEL 9
REMARK VINA RESULT:      -7.8      1.554      1.787
REMARK  Name = 
REMARK  6 active torsions:
REMARK  status: ('A' for Active; 'I' for Inactive)
REMARK    1  A    between atoms: C_2  and  C_3
REMARK    2  A    between atoms: C_3  and  C_4
REMARK    3  A    between atoms: N_7  and  C_8
REMARK    4  A    between atoms: N_15  and  C_16
REMARK    5  A    between atoms: C_16  and  C_17
REMARK    6  A    between atoms: N_19  and  C_20
REMARK                            x       y       z     vdW  Elec       q    Type
REMARK                         _______ _______ _______ _____ _____    ______ ____
ROOT
ATOM      1  O   UNL     1       7.517   6.071  17.785  0.00  0.00    +0.000 OA
ATOM      2  C   UNL     1       7.059   7.172  17.495  0.00  0.00    +0.000 C 
ATOM      3  N   UNL     1       7.627   8.347  17.902  0.00  0.00    +0.000 N 
ATOM      4  H   UNL     1       7.143   9.226  17.725  0.00  0.00    +0.000 HD
ENDROOT
BRANCH   2   5
ATOM      5  C   UNL     1       5.808   7.360  16.649  0.00  0.00    +0.000 C 
BRANCH   5   6
ATOM      6  C   UNL     1       4.574   6.926  17.359  0.00  0.00    +0.000 A 
ATOM      7  C   UNL     1       3.425   7.686  17.651  0.00  0.00    +0.000 A 
ATOM      8  N   UNL     1       2.502   6.993  18.320  0.00  0.00    +0.000 NA
ATOM      9  N   UNL     1       3.056   5.768  18.512  0.00  0.00    +0.000 N 
ATOM     10  C   UNL     1       4.298   5.693  17.913  0.00  0.00    +0.000 A 
BRANCH   9  11
ATOM     11  C   UNL     1       2.384   4.760  19.260  0.00  0.00    +0.000 A 
ATOM     12  C   UNL     1       2.583   4.671  20.646  0.00  0.00    +0.000 A 
ATOM     13  C   UNL     1       1.939   3.676  21.387  0.00  0.00    +0.000 A 
ATOM     14  C   UNL     1       1.101   2.761  20.752  0.00  0.00    +0.000 A 
ATOM     15  C   UNL     1       0.899   2.843  19.376  0.00  0.00    +0.000 A 
ATOM     16  C   UNL     1       1.534   3.839  18.629  0.00  0.00    +0.000 A 
ENDBRANCH   9  11
ENDBRANCH   5   6
ENDBRANCH   2   5
BRANCH   3  17
ATOM     17  C   UNL     1       8.815   8.447  18.738  0.00  0.00    +0.000 C 
BRANCH  17  18
ATOM     18  C   UNL     1       9.008   9.947  18.977  0.00  0.00    +0.000 C 
ATOM     19  O   UNL     1       9.105  10.365  20.132  0.00  0.00    +0.000 OA
ATOM     20  N   UNL     1       9.041  10.735  17.843  0.00  0.00    +0.000 N 
ATOM     21  H   UNL     1       8.749  10.328  16.962  0.00  0.00    +0.000 HD
BRANCH  20  22
ATOM     22  C   UNL     1       9.243  12.141  17.848  0.00  0.00    +0.000 A 
ATOM     23  C   UNL     1       8.197  13.064  17.982  0.00  0.00    +0.000 A 
ATOM     24  C   UNL     1       8.441  14.437  17.907  0.00  0.00    +0.000 A 
ATOM     25  C   UNL     1       9.736  14.895  17.714  0.00  0.00    +0.000 A 
ATOM     26  F   UNL     1       9.956  16.213  17.619  0.00  0.00    +0.000 F 
ATOM     27  C   UNL     1      10.793  13.997  17.621  0.00  0.00    +0.000 A 
ATOM     28  F   UNL     1      12.041  14.449  17.439  0.00  0.00    +0.000 F 
ATOM     29  C   UNL     1      10.546  12.629  17.698  0.00  0.00    +0.000 A 
ATOM     30  F   UNL     1      11.569  11.763  17.595  0.00  0.00    +0.000 F 
ENDBRANCH  20  22
ENDBRANCH  17  18
ENDBRANCH   3  17
TORSDOF 6
ENDMDL
