MODEL 1
REMARK VINA RESULT:      -7.6      0.000      0.000
REMARK  Name = 
REMARK  5 active torsions:
REMARK  status: ('A' for Active; 'I' for Inactive)
REMARK    1  A    between atoms: C_1  and  C_2
REMARK    2  A    between atoms: C_4  and  C_5
REMARK    3  A    between atoms: C_9  and  N_10
REMARK    4  A    between atoms: C_11  and  C_13
REMARK    5  A    between atoms: C_13  and  N_14
REMARK                            x       y       z     vdW  Elec       q    Type
REMARK                         _______ _______ _______ _____ _____    ______ ____
ROOT
ATOM      1  N   UNL     1       2.966   6.509  19.468  0.00  0.00    +0.000 N 
ATOM      2  C   UNL     1       2.412   5.272  19.767  0.00  0.00    +0.000 C 
ATOM      3  O   UNL     1       1.214   4.993  19.763  0.00  0.00    +0.000 OA
ATOM      4  H   UNL     1       3.961   6.528  19.251  0.00  0.00    +0.000 HD
ENDROOT
BRANCH   1   9
ATOM      5  C   UNL     1       0.792   9.476  20.037  0.00  0.00    +0.000 A 
ATOM      6  C   UNL     1       0.856  10.098  18.783  0.00  0.00    +0.000 A 
ATOM      7  C   UNL     1       1.575   9.520  17.743  0.00  0.00    +0.000 A 
ATOM      8  C   UNL     1       2.256   8.322  17.950  0.00  0.00    +0.000 A 
ATOM      9  C   UNL     1       2.228   7.688  19.196  0.00  0.00    +0.000 A 
ATOM     10  C   UNL     1       1.456   8.249  20.226  0.00  0.00    +0.000 A 
BRANCH   5  14
ATOM     11  C   UNL     1      -0.845  13.376  22.594  0.00  0.00    +0.000 C 
ATOM     12  C   UNL     1      -0.611  11.949  22.234  0.00  0.00    +0.000 A 
ATOM     13  N   UNL     1      -0.012  11.549  21.134  0.00  0.00    +0.000 NA
ATOM     14  C   UNL     1       0.077  10.163  21.110  0.00  0.00    +0.000 A 
ATOM     15  C   UNL     1      -0.469   9.533  22.212  0.00  0.00    +0.000 A 
ATOM     16  S   UNL     1      -1.112  10.697  23.297  0.00  0.00    +0.000 S 
ENDBRANCH   5  14
ENDBRANCH   1   9
BRANCH   2  17
ATOM     17  C   UNL     1       3.427   4.160  19.994  0.00  0.00    +0.000 C 
BRANCH  17  18
ATOM     18  N   UNL     1       4.459   4.233  18.975  0.00  0.00    +0.000 N 
ATOM     19  C   UNL     1       5.733   4.667  19.302  0.00  0.00    +0.000 A 
ATOM     20  N   UNL     1       6.711   4.827  18.466  0.00  0.00    +0.000 NA
ATOM     21  C   UNL     1       6.395   4.545  17.176  0.00  0.00    +0.000 A 
ATOM     22  S   UNL     1       7.513   4.763  15.906  0.00  0.00    +0.000 S 
ATOM     23  C   UNL     1       6.372   4.260  14.731  0.00  0.00    +0.000 A 
ATOM     24  C   UNL     1       5.164   3.915  15.298  0.00  0.00    +0.000 A 
ATOM     25  C   UNL     1       5.186   4.070  16.717  0.00  0.00    +0.000 A 
ATOM     26  C   UNL     1       4.139   3.827  17.685  0.00  0.00    +0.000 A 
ATOM     27  O   UNL     1       3.066   3.297  17.395  0.00  0.00    +0.000 OA
ENDBRANCH  17  18
ENDBRANCH   2  17
TORSDOF 4
ENDMDL
MODEL 2
REMARK VINA RESULT:      -7.4      2.993      8.733
REMARK  Name = 
REMARK  5 active torsions:
REMARK  status: ('A' for Active; 'I' for Inactive)
REMARK    1  A    between atoms: C_1  and  C_2
REMARK    2  A    between atoms: C_4  and  C_5
REMARK    3  A    between atoms: C_9  and  N_10
REMARK    4  A    between atoms: C_11  and  C_13
REMARK    5  A    between atoms: C_13  and  N_14
REMARK                            x       y       z     vdW  Elec       q    Type
REMARK                         _______ _______ _______ _____ _____    ______ ____
ROOT
ATOM      1  N   UNL     1       1.519   8.813  19.949  0.00  0.00    +0.000 N 
ATOM      2  C   UNL     1       0.379   9.284  20.586  0.00  0.00    +0.000 C 
ATOM      3  O   UNL     1      -0.374   8.630  21.306  0.00  0.00    +0.000 OA
ATOM      4  H   UNL     1       2.181   9.509  19.613  0.00  0.00    +0.000 HD
ENDROOT
BRANCH   1   9
ATOM      5  C   UNL     1       3.533   5.793  19.124  0.00  0.00    +0.000 A 
ATOM      6  C   UNL     1       2.971   4.852  19.997  0.00  0.00    +0.000 A 
ATOM      7  C   UNL     1       1.906   5.198  20.821  0.00  0.00    +0.000 A 
ATOM      8  C   UNL     1       1.402   6.497  20.796  0.00  0.00    +0.000 A 
ATOM      9  C   UNL     1       1.954   7.464  19.951  0.00  0.00    +0.000 A 
ATOM     10  C   UNL     1       2.994   7.093  19.083  0.00  0.00    +0.000 A 
BRANCH   5  14
ATOM     11  C   UNL     1       5.897   4.028  15.159  0.00  0.00    +0.000 C 
ATOM     12  C   UNL     1       5.700   4.569  16.533  0.00  0.00    +0.000 A 
ATOM     13  N   UNL     1       4.546   4.973  17.015  0.00  0.00    +0.000 NA
ATOM     14  C   UNL     1       4.692   5.391  18.332  0.00  0.00    +0.000 A 
ATOM     15  C   UNL     1       5.979   5.294  18.826  0.00  0.00    +0.000 A 
ATOM     16  S   UNL     1       7.028   4.674  17.618  0.00  0.00    +0.000 S 
ENDBRANCH   5  14
ENDBRANCH   1   9
BRANCH   2  17
ATOM     17  C   UNL     1       0.150  10.783  20.449  0.00  0.00    +0.000 C 
BRANCH  17  18
ATOM     18  N   UNL     1      -0.965  11.022  19.551  0.00  0.00    +0.000 N 
ATOM     19  C   UNL     1      -2.045  11.782  19.966  0.00  0.00    +0.000 A 
ATOM     20  N   UNL     1      -3.117  12.009  19.273  0.00  0.00    +0.000 NA
ATOM     21  C   UNL     1      -3.128  11.414  18.052  0.00  0.00    +0.000 A 
ATOM     22  S   UNL     1      -4.476  11.521  17.010  0.00  0.00    +0.000 S 
ATOM     23  C   UNL     1      -3.719  10.537  15.829  0.00  0.00    +0.000 A 
ATOM     24  C   UNL     1      -2.455  10.147  16.214  0.00  0.00    +0.000 A 
ATOM     25  C   UNL     1      -2.112  10.668  17.498  0.00  0.00    +0.000 A 
ATOM     26  C   UNL     1      -0.897  10.497  18.265  0.00  0.00    +0.000 A 
ATOM     27  O   UNL     1       0.109   9.949  17.817  0.00  0.00    +0.000 OA
ENDBRANCH  17  18
ENDBRANCH   2  17
TORSDOF 4
ENDMDL
MODEL 3
REMARK VINA RESULT:      -7.4      6.427      7.583
REMARK  Name = 
REMARK  5 active torsions:
REMARK  status: ('A' for Active; 'I' for Inactive)
REMARK    1  A    between atoms: C_1  and  C_2
REMARK    2  A    between atoms: C_4  and  C_5
REMARK    3  A    between atoms: C_9  and  N_10
REMARK    4  A    between atoms: C_11  and  C_13
REMARK    5  A    between atoms: C_13  and  N_14
REMARK                            x       y       z     vdW  Elec       q    Type
REMARK                         _______ _______ _______ _____ _____    ______ ____
ROOT
ATOM      1  N   UNL     1       7.817   8.956  17.509  0.00  0.00    +0.000 N 
ATOM      2  C   UNL     1       7.774   7.601  17.810  0.00  0.00    +0.000 C 
ATOM      3  O   UNL     1       8.263   7.062  18.802  0.00  0.00    +0.000 OA
ATOM      4  H   UNL     1       7.155   9.295  16.814  0.00  0.00    +0.000 HD
ENDROOT
BRANCH   1   9
ATOM      5  C   UNL     1       9.093  12.288  18.570  0.00  0.00    +0.000 A 
ATOM      6  C   UNL     1       9.756  11.953  19.758  0.00  0.00    +0.000 A 
ATOM      7  C   UNL     1       9.821  10.632  20.184  0.00  0.00    +0.000 A 
ATOM      8  C   UNL     1       9.205   9.629  19.437  0.00  0.00    +0.000 A 
ATOM      9  C   UNL     1       8.518   9.934  18.258  0.00  0.00    +0.000 A 
ATOM     10  C   UNL     1       8.502  11.264  17.805  0.00  0.00    +0.000 A 
BRANCH   5  14
ATOM     11  C   UNL     1      10.775  16.672  17.028  0.00  0.00    +0.000 C 
ATOM     12  C   UNL     1       9.814  15.652  17.533  0.00  0.00    +0.000 A 
ATOM     13  N   UNL     1      10.098  14.378  17.693  0.00  0.00    +0.000 NA
ATOM     14  C   UNL     1       9.000  13.700  18.208  0.00  0.00    +0.000 A 
ATOM     15  C   UNL     1       7.888  14.491  18.428  0.00  0.00    +0.000 A 
ATOM     16  S   UNL     1       8.220  16.112  17.977  0.00  0.00    +0.000 S 
ENDBRANCH   5  14
ENDBRANCH   1   9
BRANCH   2  17
ATOM     17  C   UNL     1       6.927   6.767  16.858  0.00  0.00    +0.000 C 
BRANCH  17  18
ATOM     18  N   UNL     1       5.991   5.963  17.623  0.00  0.00    +0.000 N 
ATOM     19  C   UNL     1       6.439   4.874  18.351  0.00  0.00    +0.000 A 
ATOM     20  N   UNL     1       5.689   4.054  19.019  0.00  0.00    +0.000 NA
ATOM     21  C   UNL     1       4.361   4.330  18.949  0.00  0.00    +0.000 A 
ATOM     22  S   UNL     1       3.193   3.332  19.692  0.00  0.00    +0.000 S 
ATOM     23  C   UNL     1       1.905   4.303  19.113  0.00  0.00    +0.000 A 
ATOM     24  C   UNL     1       2.357   5.379  18.380  0.00  0.00    +0.000 A 
ATOM     25  C   UNL     1       3.783   5.397  18.298  0.00  0.00    +0.000 A 
ATOM     26  C   UNL     1       4.652   6.338  17.627  0.00  0.00    +0.000 A 
ATOM     27  O   UNL     1       4.247   7.383  17.117  0.00  0.00    +0.000 OA
ENDBRANCH  17  18
ENDBRANCH   2  17
TORSDOF 4
ENDMDL
MODEL 4
REMARK VINA RESULT:      -7.4      2.306      9.204
REMARK  Name = 
REMARK  5 active torsions:
REMARK  status: ('A' for Active; 'I' for Inactive)
REMARK    1  A    between atoms: C_1  and  C_2
REMARK    2  A    between atoms: C_4  and  C_5
REMARK    3  A    between atoms: C_9  and  N_10
REMARK    4  A    between atoms: C_11  and  C_13
REMARK    5  A    between atoms: C_13  and  N_14
REMARK                            x       y       z     vdW  Elec       q    Type
REMARK                         _______ _______ _______ _____ _____    ______ ____
ROOT
ATOM      1  N   UNL     1       1.908   6.936  21.165  0.00  0.00    +0.000 N 
ATOM      2  C   UNL     1       1.500   8.234  20.886  0.00  0.00    +0.000 C 
ATOM      3  O   UNL     1       1.135   8.661  19.792  0.00  0.00    +0.000 OA
ATOM      4  H   UNL     1       1.922   6.658  22.144  0.00  0.00    +0.000 HD
ENDROOT
BRANCH   1   9
ATOM      5  C   UNL     1       3.442   4.865  18.479  0.00  0.00    +0.000 A 
ATOM      6  C   UNL     1       2.507   3.826  18.378  0.00  0.00    +0.000 A 
ATOM      7  C   UNL     1       1.357   3.831  19.158  0.00  0.00    +0.000 A 
ATOM      8  C   UNL     1       1.135   4.866  20.064  0.00  0.00    +0.000 A 
ATOM      9  C   UNL     1       2.059   5.906  20.204  0.00  0.00    +0.000 A 
ATOM     10  C   UNL     1       3.193   5.923  19.374  0.00  0.00    +0.000 A 
BRANCH   5  14
ATOM     11  C   UNL     1       6.147   3.885  14.461  0.00  0.00    +0.000 C 
ATOM     12  C   UNL     1       5.832   4.293  15.858  0.00  0.00    +0.000 A 
ATOM     13  N   UNL     1       4.616   4.406  16.344  0.00  0.00    +0.000 NA
ATOM     14  C   UNL     1       4.663   4.772  17.683  0.00  0.00    +0.000 A 
ATOM     15  C   UNL     1       5.939   4.934  18.190  0.00  0.00    +0.000 A 
ATOM     16  S   UNL     1       7.102   4.629  16.966  0.00  0.00    +0.000 S 
ENDBRANCH   5  14
ENDBRANCH   1   9
BRANCH   2  17
ATOM     17  C   UNL     1       1.394   9.141  22.104  0.00  0.00    +0.000 C 
BRANCH  17  18
ATOM     18  N   UNL     1       0.558  10.284  21.784  0.00  0.00    +0.000 N 
ATOM     19  C   UNL     1       0.915  11.144  20.759  0.00  0.00    +0.000 A 
ATOM     20  N   UNL     1       0.280  12.223  20.426  0.00  0.00    +0.000 NA
ATOM     21  C   UNL     1      -0.809  12.488  21.192  0.00  0.00    +0.000 A 
ATOM     22  S   UNL     1      -1.743  13.900  20.973  0.00  0.00    +0.000 S 
ATOM     23  C   UNL     1      -2.785  13.487  22.269  0.00  0.00    +0.000 A 
ATOM     24  C   UNL     1      -2.438  12.286  22.849  0.00  0.00    +0.000 A 
ATOM     25  C   UNL     1      -1.299  11.705  22.213  0.00  0.00    +0.000 A 
ATOM     26  C   UNL     1      -0.614  10.466  22.509  0.00  0.00    +0.000 A 
ATOM     27  O   UNL     1      -1.035   9.642  23.321  0.00  0.00    +0.000 OA
ENDBRANCH  17  18
ENDBRANCH   2  17
TORSDOF 4
ENDMDL
MODEL 5
REMARK VINA RESULT:      -7.3      3.185      9.113
REMARK  Name = 
REMARK  5 active torsions:
REMARK  status: ('A' for Active; 'I' for Inactive)
REMARK    1  A    between atoms: C_1  and  C_2
REMARK    2  A    between atoms: C_4  and  C_5
REMARK    3  A    between atoms: C_9  and  N_10
REMARK    4  A    between atoms: C_11  and  C_13
REMARK    5  A    between atoms: C_13  and  N_14
REMARK                            x       y       z     vdW  Elec       q    Type
REMARK                         _______ _______ _______ _____ _____    ______ ____
ROOT
ATOM      1  N   UNL     1       1.632   8.687  19.674  0.00  0.00    +0.000 N 
ATOM      2  C   UNL     1       1.652   9.528  18.569  0.00  0.00    +0.000 C 
ATOM      3  O   UNL     1       1.993   9.218  17.428  0.00  0.00    +0.000 OA
ATOM      4  H   UNL     1       1.084   8.993  20.475  0.00  0.00    +0.000 HD
ENDROOT
BRANCH   1   9
ATOM      5  C   UNL     1       3.705   5.701  18.875  0.00  0.00    +0.000 A 
ATOM      6  C   UNL     1       3.160   4.756  19.754  0.00  0.00    +0.000 A 
ATOM      7  C   UNL     1       2.087   5.088  20.574  0.00  0.00    +0.000 A 
ATOM      8  C   UNL     1       1.558   6.376  20.538  0.00  0.00    +0.000 A 
ATOM      9  C   UNL     1       2.093   7.348  19.687  0.00  0.00    +0.000 A 
ATOM     10  C   UNL     1       3.142   6.990  18.823  0.00  0.00    +0.000 A 
BRANCH   5  14
ATOM     11  C   UNL     1       6.108   3.922  14.940  0.00  0.00    +0.000 C 
ATOM     12  C   UNL     1       5.900   4.485  16.303  0.00  0.00    +0.000 A 
ATOM     13  N   UNL     1       4.736   4.866  16.780  0.00  0.00    +0.000 NA
ATOM     14  C   UNL     1       4.874   5.315  18.088  0.00  0.00    +0.000 A 
ATOM     15  C   UNL     1       6.164   5.265  18.579  0.00  0.00    +0.000 A 
ATOM     16  S   UNL     1       7.227   4.650  17.381  0.00  0.00    +0.000 S 
ENDBRANCH   5  14
ENDBRANCH   1   9
BRANCH   2  17
ATOM     17  C   UNL     1       1.074  10.914  18.816  0.00  0.00    +0.000 C 
BRANCH  17  18
ATOM     18  N   UNL     1      -0.366  10.876  18.635  0.00  0.00    +0.000 N 
ATOM     19  C   UNL     1      -0.927  10.055  17.672  0.00  0.00    +0.000 A 
ATOM     20  N   UNL     1      -2.189   9.985  17.384  0.00  0.00    +0.000 NA
ATOM     21  C   UNL     1      -2.974  10.821  18.111  0.00  0.00    +0.000 A 
ATOM     22  S   UNL     1      -4.654  10.944  17.838  0.00  0.00    +0.000 S 
ATOM     23  C   UNL     1      -4.826  12.147  19.046  0.00  0.00    +0.000 A 
ATOM     24  C   UNL     1      -3.626  12.439  19.659  0.00  0.00    +0.000 A 
ATOM     25  C   UNL     1      -2.558  11.658  19.121  0.00  0.00    +0.000 A 
ATOM     26  C   UNL     1      -1.155  11.657  19.472  0.00  0.00    +0.000 A 
ATOM     27  O   UNL     1      -0.701  12.279  20.433  0.00  0.00    +0.000 OA
ENDBRANCH  17  18
ENDBRANCH   2  17
TORSDOF 4
ENDMDL
MODEL 6
REMARK VINA RESULT:      -7.3      2.375      9.326
REMARK  Name = 
REMARK  5 active torsions:
REMARK  status: ('A' for Active; 'I' for Inactive)
REMARK    1  A    between atoms: C_1  and  C_2
REMARK    2  A    between atoms: C_4  and  C_5
REMARK    3  A    between atoms: C_9  and  N_10
REMARK    4  A    between atoms: C_11  and  C_13
REMARK    5  A    between atoms: C_13  and  N_14
REMARK                            x       y       z     vdW  Elec       q    Type
REMARK                         _______ _______ _______ _____ _____    ______ ____
ROOT
ATOM      1  N   UNL     1       1.715   9.138  19.840  0.00  0.00    +0.000 N 
ATOM      2  C   UNL     1       1.136   9.835  18.789  0.00  0.00    +0.000 C 
ATOM      3  O   UNL     1       0.627   9.342  17.783  0.00  0.00    +0.000 OA
ATOM      4  H   UNL     1       1.850   9.645  20.712  0.00  0.00    +0.000 HD
ENDROOT
BRANCH   1   9
ATOM      5  C   UNL     1       3.098   5.772  19.052  0.00  0.00    +0.000 A 
ATOM      6  C   UNL     1       2.430   4.983  19.997  0.00  0.00    +0.000 A 
ATOM      7  C   UNL     1       1.497   5.547  20.859  0.00  0.00    +0.000 A 
ATOM      8  C   UNL     1       1.235   6.914  20.801  0.00  0.00    +0.000 A 
ATOM      9  C   UNL     1       1.899   7.733  19.882  0.00  0.00    +0.000 A 
ATOM     10  C   UNL     1       2.801   7.147  18.979  0.00  0.00    +0.000 A 
BRANCH   5  14
ATOM     11  C   UNL     1       7.686   4.616  17.625  0.00  0.00    +0.000 C 
ATOM     12  C   UNL     1       6.197   4.669  17.609  0.00  0.00    +0.000 A 
ATOM     13  N   UNL     1       5.462   5.227  18.545  0.00  0.00    +0.000 NA
ATOM     14  C   UNL     1       4.115   5.137  18.219  0.00  0.00    +0.000 A 
ATOM     15  C   UNL     1       3.855   4.497  17.022  0.00  0.00    +0.000 A 
ATOM     16  S   UNL     1       5.324   3.993  16.292  0.00  0.00    +0.000 S 
ENDBRANCH   5  14
ENDBRANCH   1   9
BRANCH   2  17
ATOM     17  C   UNL     1       1.034  11.339  19.006  0.00  0.00    +0.000 C 
BRANCH  17  18
ATOM     18  N   UNL     1      -0.202  11.644  19.704  0.00  0.00    +0.000 N 
ATOM     19  C   UNL     1      -1.364  11.888  18.992  0.00  0.00    +0.000 A 
ATOM     20  N   UNL     1      -2.505  12.227  19.505  0.00  0.00    +0.000 NA
ATOM     21  C   UNL     1      -2.493  12.351  20.857  0.00  0.00    +0.000 A 
ATOM     22  S   UNL     1      -3.870  12.862  21.727  0.00  0.00    +0.000 S 
ATOM     23  C   UNL     1      -3.031  12.789  23.220  0.00  0.00    +0.000 A 
ATOM     24  C   UNL     1      -1.729  12.366  23.060  0.00  0.00    +0.000 A 
ATOM     25  C   UNL     1      -1.426  12.101  21.690  0.00  0.00    +0.000 A 
ATOM     26  C   UNL     1      -0.188  11.649  21.094  0.00  0.00    +0.000 A 
ATOM     27  O   UNL     1       0.786  11.290  21.756  0.00  0.00    +0.000 OA
ENDBRANCH  17  18
ENDBRANCH   2  17
TORSDOF 4
ENDMDL
MODEL 7
REMARK VINA RESULT:      -7.3      6.510      7.712
REMARK  Name = 
REMARK  5 active torsions:
REMARK  status: ('A' for Active; 'I' for Inactive)
REMARK    1  A    between atoms: C_1  and  C_2
REMARK    2  A    between atoms: C_4  and  C_5
REMARK    3  A    between atoms: C_9  and  N_10
REMARK    4  A    between atoms: C_11  and  C_13
REMARK    5  A    between atoms: C_13  and  N_14
REMARK                            x       y       z     vdW  Elec       q    Type
REMARK                         _______ _______ _______ _____ _____    ______ ____
ROOT
ATOM      1  N   UNL     1       7.920   9.020  17.450  0.00  0.00    +0.000 N 
ATOM      2  C   UNL     1       7.845   7.666  17.747  0.00  0.00    +0.000 C 
ATOM      3  O   UNL     1       8.252   7.123  18.773  0.00  0.00    +0.000 OA
ATOM      4  H   UNL     1       7.316   9.363  16.706  0.00  0.00    +0.000 HD
ENDROOT
BRANCH   1   9
ATOM      5  C   UNL     1       9.160  12.340  18.589  0.00  0.00    +0.000 A 
ATOM      6  C   UNL     1       9.703  12.007  19.837  0.00  0.00    +0.000 A 
ATOM      7  C   UNL     1       9.700  10.691  20.282  0.00  0.00    +0.000 A 
ATOM      8  C   UNL     1       9.136   9.691  19.492  0.00  0.00    +0.000 A 
ATOM      9  C   UNL     1       8.568   9.994  18.250  0.00  0.00    +0.000 A 
ATOM     10  C   UNL     1       8.623  11.317  17.783  0.00  0.00    +0.000 A 
BRANCH   5  14
ATOM     11  C   UNL     1      11.056  16.640  17.059  0.00  0.00    +0.000 C 
ATOM     12  C   UNL     1      10.040  15.661  17.537  0.00  0.00    +0.000 A 
ATOM     13  N   UNL     1      10.273  14.381  17.726  0.00  0.00    +0.000 NA
ATOM     14  C   UNL     1       9.132  13.749  18.204  0.00  0.00    +0.000 A 
ATOM     15  C   UNL     1       8.040  14.580  18.366  0.00  0.00    +0.000 A 
ATOM     16  S   UNL     1       8.446  16.182  17.906  0.00  0.00    +0.000 S 
ENDBRANCH   5  14
ENDBRANCH   1   9
BRANCH   2  17
ATOM     17  C   UNL     1       7.068   6.837  16.733  0.00  0.00    +0.000 C 
BRANCH  17  18
ATOM     18  N   UNL     1       5.893   6.270  17.371  0.00  0.00    +0.000 N 
ATOM     19  C   UNL     1       4.716   6.996  17.435  0.00  0.00    +0.000 A 
ATOM     20  N   UNL     1       3.628   6.616  18.029  0.00  0.00    +0.000 NA
ATOM     21  C   UNL     1       3.718   5.404  18.633  0.00  0.00    +0.000 A 
ATOM     22  S   UNL     1       2.425   4.750  19.537  0.00  0.00    +0.000 S 
ATOM     23  C   UNL     1       3.332   3.353  19.941  0.00  0.00    +0.000 A 
ATOM     24  C   UNL     1       4.593   3.376  19.384  0.00  0.00    +0.000 A 
ATOM     25  C   UNL     1       4.807   4.561  18.616  0.00  0.00    +0.000 A 
ATOM     26  C   UNL     1       5.979   4.979  17.879  0.00  0.00    +0.000 A 
ATOM     27  O   UNL     1       6.958   4.254  17.705  0.00  0.00    +0.000 OA
ENDBRANCH  17  18
ENDBRANCH   2  17
TORSDOF 4
ENDMDL
MODEL 8
REMARK VINA RESULT:      -7.2      3.209      9.654
REMARK  Name = 
REMARK  5 active torsions:
REMARK  status: ('A' for Active; 'I' for Inactive)
REMARK    1  A    between atoms: C_1  and  C_2
REMARK    2  A    between atoms: C_4  and  C_5
REMARK    3  A    between atoms: C_9  and  N_10
REMARK    4  A    between atoms: C_11  and  C_13
REMARK    5  A    between atoms: C_13  and  N_14
REMARK                            x       y       z     vdW  Elec       q    Type
REMARK                         _______ _______ _______ _____ _____    ______ ____
ROOT
ATOM      1  N   UNL     1      -0.078   9.668  20.995  0.00  0.00    +0.000 N 
ATOM      2  C   UNL     1       0.217   9.888  22.334  0.00  0.00    +0.000 C 
ATOM      3  O   UNL     1       1.325   9.786  22.860  0.00  0.00    +0.000 OA
ATOM      4  H   UNL     1      -0.959  10.043  20.650  0.00  0.00    +0.000 HD
ENDROOT
BRANCH   1   9
ATOM      5  C   UNL     1       2.297   7.393  19.251  0.00  0.00    +0.000 A 
ATOM      6  C   UNL     1       2.561   8.126  18.087  0.00  0.00    +0.000 A 
ATOM      7  C   UNL     1       1.995   9.382  17.898  0.00  0.00    +0.000 A 
ATOM      8  C   UNL     1       1.141   9.912  18.863  0.00  0.00    +0.000 A 
ATOM      9  C   UNL     1       0.842   9.197  20.026  0.00  0.00    +0.000 A 
ATOM     10  C   UNL     1       1.459   7.953  20.236  0.00  0.00    +0.000 A 
BRANCH   5  14
ATOM     11  C   UNL     1       2.691   2.792  21.013  0.00  0.00    +0.000 C 
ATOM     12  C   UNL     1       3.012   4.005  20.209  0.00  0.00    +0.000 A 
ATOM     13  N   UNL     1       2.281   5.097  20.186  0.00  0.00    +0.000 NA
ATOM     14  C   UNL     1       2.865   6.052  19.365  0.00  0.00    +0.000 A 
ATOM     15  C   UNL     1       4.047   5.653  18.770  0.00  0.00    +0.000 A 
ATOM     16  S   UNL     1       4.432   4.049  19.243  0.00  0.00    +0.000 S 
ENDBRANCH   5  14
ENDBRANCH   1   9
BRANCH   2  17
ATOM     17  C   UNL     1      -0.945  10.421  23.160  0.00  0.00    +0.000 C 
BRANCH  17  18
ATOM     18  N   UNL     1      -1.216  11.797  22.781  0.00  0.00    +0.000 N 
ATOM     19  C   UNL     1      -0.295  12.508  22.032  0.00  0.00    +0.000 A 
ATOM     20  N   UNL     1      -0.405  13.753  21.688  0.00  0.00    +0.000 NA
ATOM     21  C   UNL     1      -1.530  14.360  22.144  0.00  0.00    +0.000 A 
ATOM     22  S   UNL     1      -1.833  16.018  21.871  0.00  0.00    +0.000 S 
ATOM     23  C   UNL     1      -3.305  15.957  22.747  0.00  0.00    +0.000 A 
ATOM     24  C   UNL     1      -3.570  14.692  23.225  0.00  0.00    +0.000 A 
ATOM     25  C   UNL     1      -2.544  13.767  22.862  0.00  0.00    +0.000 A 
ATOM     26  C   UNL     1      -2.430  12.357  23.163  0.00  0.00    +0.000 A 
ATOM     27  O   UNL     1      -3.330  11.708  23.696  0.00  0.00    +0.000 OA
ENDBRANCH  17  18
ENDBRANCH   2  17
TORSDOF 4
ENDMDL
MODEL 9
REMARK VINA RESULT:      -7.2      2.296      9.135
REMARK  Name = 
REMARK  5 active torsions:
REMARK  status: ('A' for Active; 'I' for Inactive)
REMARK    1  A    between atoms: C_1  and  C_2
REMARK    2  A    between atoms: C_4  and  C_5
REMARK    3  A    between atoms: C_9  and  N_10
REMARK    4  A    between atoms: C_11  and  C_13
REMARK    5  A    between atoms: C_13  and  N_14
REMARK                            x       y       z     vdW  Elec       q    Type
REMARK                         _______ _______ _______ _____ _____    ______ ____
ROOT
ATOM      1  N   UNL     1       1.762   6.941  21.302  0.00  0.00    +0.000 N 
ATOM      2  C   UNL     1       1.476   8.240  20.902  0.00  0.00    +0.000 C 
ATOM      3  O   UNL     1       1.163   8.597  19.767  0.00  0.00    +0.000 OA
ATOM      4  H   UNL     1       1.742   6.752  22.302  0.00  0.00    +0.000 HD
ENDROOT
BRANCH   1   9
ATOM      5  C   UNL     1       3.077   4.574  18.748  0.00  0.00    +0.000 A 
ATOM      6  C   UNL     1       2.111   3.560  18.803  0.00  0.00    +0.000 A 
ATOM      7  C   UNL     1       1.010   3.677  19.643  0.00  0.00    +0.000 A 
ATOM      8  C   UNL     1       0.871   4.800  20.455  0.00  0.00    +0.000 A 
ATOM      9  C   UNL     1       1.828   5.819  20.439  0.00  0.00    +0.000 A 
ATOM     10  C   UNL     1       2.910   5.720  19.549  0.00  0.00    +0.000 A 
BRANCH   5  14
ATOM     11  C   UNL     1       7.885   4.575  17.604  0.00  0.00    +0.000 C 
ATOM     12  C   UNL     1       6.415   4.410  17.429  0.00  0.00    +0.000 A 
ATOM     13  N   UNL     1       5.530   4.556  18.390  0.00  0.00    +0.000 NA
ATOM     14  C   UNL     1       4.246   4.366  17.897  0.00  0.00    +0.000 A 
ATOM     15  C   UNL     1       4.186   4.072  16.548  0.00  0.00    +0.000 A 
ATOM     16  S   UNL     1       5.768   4.026  15.885  0.00  0.00    +0.000 S 
ENDBRANCH   5  14
ENDBRANCH   1   9
BRANCH   2  17
ATOM     17  C   UNL     1       1.442   9.259  22.033  0.00  0.00    +0.000 C 
BRANCH  17  18
ATOM     18  N   UNL     1       0.556  10.351  21.671  0.00  0.00    +0.000 N 
ATOM     19  C   UNL     1       0.861  11.170  20.597  0.00  0.00    +0.000 A 
ATOM     20  N   UNL     1       0.178  12.206  20.222  0.00  0.00    +0.000 NA
ATOM     21  C   UNL     1      -0.907  12.468  20.995  0.00  0.00    +0.000 A 
ATOM     22  S   UNL     1      -1.900  13.830  20.723  0.00  0.00    +0.000 S 
ATOM     23  C   UNL     1      -2.902  13.444  22.058  0.00  0.00    +0.000 A 
ATOM     24  C   UNL     1      -2.498  12.288  22.691  0.00  0.00    +0.000 A 
ATOM     25  C   UNL     1      -1.348  11.719  22.063  0.00  0.00    +0.000 A 
ATOM     26  C   UNL     1      -0.609  10.525  22.409  0.00  0.00    +0.000 A 
ATOM     27  O   UNL     1      -0.984   9.727  23.268  0.00  0.00    +0.000 OA
ENDBRANCH  17  18
ENDBRANCH   2  17
TORSDOF 4
ENDMDL
