MODEL 1
REMARK VINA RESULT:      -8.6      0.000      0.000
REMARK  Name = 
REMARK  3 active torsions:
REMARK  status: ('A' for Active; 'I' for Inactive)
REMARK    1  A    between atoms: C_2  and  C_20
REMARK    2  A    between atoms: N_3  and  C_4
REMARK    3  A    between atoms: C_7  and  N_8
REMARK                            x       y       z     vdW  Elec       q    Type
REMARK                         _______ _______ _______ _____ _____    ______ ____
ROOT
ATOM      1  C   UNL     1       1.632   8.373  19.854  0.00  0.00    +0.000 A 
ATOM      2  C   UNL     1       1.222   8.361  21.182  0.00  0.00    +0.000 A 
ATOM      3  C   UNL     1       0.292   9.313  21.682  0.00  0.00    +0.000 A 
ATOM      4  C   UNL     1      -0.274  10.314  20.883  0.00  0.00    +0.000 A 
ATOM      5  C   UNL     1       0.176  10.357  19.554  0.00  0.00    +0.000 A 
ATOM      6  C   UNL     1       1.109   9.402  19.051  0.00  0.00    +0.000 A 
ENDROOT
BRANCH   4   7
ATOM      7  N   UNL     1      -1.275  11.249  21.347  0.00  0.00    +0.000 N 
ATOM      8  C   UNL     1      -1.048  12.487  21.936  0.00  0.00    +0.000 C 
ATOM      9  O   UNL     1       0.077  12.961  22.076  0.00  0.00    +0.000 OA
ATOM     10  N   UNL     1      -2.166  13.224  22.367  0.00  0.00    +0.000 N 
ATOM     11  C   UNL     1      -1.906  14.612  22.802  0.00  0.00    +0.000 C 
ATOM     12  C   UNL     1      -1.720  14.743  24.316  0.00  0.00    +0.000 C 
ATOM     13  C   UNL     1      -3.016  14.721  25.123  0.00  0.00    +0.000 C 
ATOM     14  C   UNL     1      -3.902  13.500  24.866  0.00  0.00    +0.000 C 
ATOM     15  C   UNL     1      -4.474  13.463  23.443  0.00  0.00    +0.000 C 
ATOM     16  C   UNL     1      -3.555  12.761  22.425  0.00  0.00    +0.000 C 
ATOM     17  H   UNL     1      -2.233  10.964  21.213  0.00  0.00    +0.000 HD
ENDBRANCH   4   7
BRANCH   1  20
ATOM     18  O   UNL     1       1.943   5.365  20.227  0.00  0.00    +0.000 OA
ATOM     19  C   UNL     1       2.663   6.053  19.510  0.00  0.00    +0.000 C 
ATOM     20  N   UNL     1       2.544   7.432  19.282  0.00  0.00    +0.000 N 
ATOM     21  H   UNL     1       3.222   7.791  18.614  0.00  0.00    +0.000 HD
BRANCH  19  22
ATOM     22  C   UNL     1       3.833   5.399  18.793  0.00  0.00    +0.000 A 
ATOM     23  C   UNL     1       4.950   4.924  19.474  0.00  0.00    +0.000 A 
ATOM     24  N   UNL     1       6.083   4.504  18.834  0.00  0.00    +0.000 NA
ATOM     25  C   UNL     1       6.106   4.629  17.495  0.00  0.00    +0.000 A 
ATOM     26  C   UNL     1       7.273   4.399  16.766  0.00  0.00    +0.000 A 
ATOM     27  C   UNL     1       7.334   4.645  15.391  0.00  0.00    +0.000 A 
ATOM     28  C   UNL     1       6.188   5.042  14.716  0.00  0.00    +0.000 A 
ATOM     29  C   UNL     1       4.995   5.212  15.420  0.00  0.00    +0.000 A 
ATOM     30  C   UNL     1       4.938   5.062  16.797  0.00  0.00    +0.000 A 
ATOM     31  N   UNL     1       3.796   5.414  17.434  0.00  0.00    +0.000 NA
ENDBRANCH  19  22
ENDBRANCH   1  20
TORSDOF 3
ENDMDL
MODEL 2
REMARK VINA RESULT:      -8.6      0.942      1.300
REMARK  Name = 
REMARK  3 active torsions:
REMARK  status: ('A' for Active; 'I' for Inactive)
REMARK    1  A    between atoms: C_2  and  C_20
REMARK    2  A    between atoms: N_3  and  C_4
REMARK    3  A    between atoms: C_7  and  N_8
REMARK                            x       y       z     vdW  Elec       q    Type
REMARK                         _______ _______ _______ _____ _____    ______ ____
ROOT
ATOM      1  C   UNL     1       1.493   8.557  19.737  0.00  0.00    +0.000 A 
ATOM      2  C   UNL     1       0.924   8.515  21.005  0.00  0.00    +0.000 A 
ATOM      3  C   UNL     1      -0.007   9.500  21.434  0.00  0.00    +0.000 A 
ATOM      4  C   UNL     1      -0.415  10.565  20.623  0.00  0.00    +0.000 A 
ATOM      5  C   UNL     1       0.196  10.636  19.361  0.00  0.00    +0.000 A 
ATOM      6  C   UNL     1       1.129   9.647  18.928  0.00  0.00    +0.000 A 
ENDROOT
BRANCH   4   7
ATOM      7  N   UNL     1      -1.412  11.540  21.008  0.00  0.00    +0.000 N 
ATOM      8  C   UNL     1      -1.796  11.871  22.301  0.00  0.00    +0.000 C 
ATOM      9  O   UNL     1      -1.262  11.390  23.297  0.00  0.00    +0.000 OA
ATOM     10  N   UNL     1      -2.830  12.813  22.459  0.00  0.00    +0.000 N 
ATOM     11  C   UNL     1      -3.075  13.290  23.835  0.00  0.00    +0.000 C 
ATOM     12  C   UNL     1      -4.190  12.521  24.548  0.00  0.00    +0.000 C 
ATOM     13  C   UNL     1      -5.606  12.928  24.143  0.00  0.00    +0.000 C 
ATOM     14  C   UNL     1      -5.878  12.858  22.640  0.00  0.00    +0.000 C 
ATOM     15  C   UNL     1      -5.068  13.881  21.834  0.00  0.00    +0.000 C 
ATOM     16  C   UNL     1      -3.680  13.369  21.404  0.00  0.00    +0.000 C 
ATOM     17  H   UNL     1      -1.860  12.028  20.248  0.00  0.00    +0.000 HD
ENDBRANCH   4   7
BRANCH   1  20
ATOM     18  O   UNL     1       1.857   5.595  20.350  0.00  0.00    +0.000 OA
ATOM     19  C   UNL     1       2.559   6.233  19.572  0.00  0.00    +0.000 C 
ATOM     20  N   UNL     1       2.415   7.587  19.234  0.00  0.00    +0.000 N 
ATOM     21  H   UNL     1       3.082   7.901  18.533  0.00  0.00    +0.000 HD
BRANCH  19  22
ATOM     22  C   UNL     1       3.733   5.542  18.899  0.00  0.00    +0.000 A 
ATOM     23  C   UNL     1       4.810   5.034  19.619  0.00  0.00    +0.000 A 
ATOM     24  N   UNL     1       5.952   4.577  19.021  0.00  0.00    +0.000 NA
ATOM     25  C   UNL     1       6.026   4.698  17.683  0.00  0.00    +0.000 A 
ATOM     26  C   UNL     1       7.211   4.431  16.997  0.00  0.00    +0.000 A 
ATOM     27  C   UNL     1       7.329   4.671  15.625  0.00  0.00    +0.000 A 
ATOM     28  C   UNL     1       6.221   5.102  14.909  0.00  0.00    +0.000 A 
ATOM     29  C   UNL     1       5.009   5.310  15.569  0.00  0.00    +0.000 A 
ATOM     30  C   UNL     1       4.898   5.166  16.944  0.00  0.00    +0.000 A 
ATOM     31  N   UNL     1       3.746   5.554  17.539  0.00  0.00    +0.000 NA
ENDBRANCH  19  22
ENDBRANCH   1  20
TORSDOF 3
ENDMDL
MODEL 3
REMARK VINA RESULT:      -8.3      2.250      3.393
REMARK  Name = 
REMARK  3 active torsions:
REMARK  status: ('A' for Active; 'I' for Inactive)
REMARK    1  A    between atoms: C_2  and  C_20
REMARK    2  A    between atoms: N_3  and  C_4
REMARK    3  A    between atoms: C_7  and  N_8
REMARK                            x       y       z     vdW  Elec       q    Type
REMARK                         _______ _______ _______ _____ _____    ______ ____
ROOT
ATOM      1  C   UNL     1       0.717   9.343  21.182  0.00  0.00    +0.000 A 
ATOM      2  C   UNL     1       0.635  10.641  20.688  0.00  0.00    +0.000 A 
ATOM      3  C   UNL     1      -0.103  11.649  21.367  0.00  0.00    +0.000 A 
ATOM      4  C   UNL     1      -0.787  11.413  22.565  0.00  0.00    +0.000 A 
ATOM      5  C   UNL     1      -0.745  10.092  23.039  0.00  0.00    +0.000 A 
ATOM      6  C   UNL     1      -0.004   9.080  22.360  0.00  0.00    +0.000 A 
ENDROOT
BRANCH   4   7
ATOM      7  N   UNL     1      -1.486  12.436  23.312  0.00  0.00    +0.000 N 
ATOM      8  C   UNL     1      -2.831  12.768  23.212  0.00  0.00    +0.000 C 
ATOM      9  O   UNL     1      -3.614  12.159  22.487  0.00  0.00    +0.000 OA
ATOM     10  N   UNL     1      -3.305  13.837  23.995  0.00  0.00    +0.000 N 
ATOM     11  C   UNL     1      -4.768  14.033  24.017  0.00  0.00    +0.000 C 
ATOM     12  C   UNL     1      -5.251  15.071  22.999  0.00  0.00    +0.000 C 
ATOM     13  C   UNL     1      -5.039  16.524  23.420  0.00  0.00    +0.000 C 
ATOM     14  C   UNL     1      -3.596  16.871  23.791  0.00  0.00    +0.000 C 
ATOM     15  C   UNL     1      -3.113  16.155  25.059  0.00  0.00    +0.000 C 
ATOM     16  C   UNL     1      -2.499  14.767  24.790  0.00  0.00    +0.000 C 
ATOM     17  H   UNL     1      -0.927  12.946  23.979  0.00  0.00    +0.000 HD
ENDBRANCH   4   7
BRANCH   1  20
ATOM     18  O   UNL     1       1.743   8.983  18.336  0.00  0.00    +0.000 OA
ATOM     19  C   UNL     1       1.887   8.160  19.234  0.00  0.00    +0.000 C 
ATOM     20  N   UNL     1       1.461   8.290  20.564  0.00  0.00    +0.000 N 
ATOM     21  H   UNL     1       1.724   7.503  21.151  0.00  0.00    +0.000 HD
BRANCH  19  22
ATOM     22  C   UNL     1       2.566   6.837  18.922  0.00  0.00    +0.000 A 
ATOM     23  C   UNL     1       3.546   6.716  17.940  0.00  0.00    +0.000 A 
ATOM     24  N   UNL     1       4.031   5.508  17.523  0.00  0.00    +0.000 NA
ATOM     25  C   UNL     1       3.469   4.410  18.060  0.00  0.00    +0.000 A 
ATOM     26  C   UNL     1       3.764   3.135  17.575  0.00  0.00    +0.000 A 
ATOM     27  C   UNL     1       3.093   2.003  18.047  0.00  0.00    +0.000 A 
ATOM     28  C   UNL     1       2.177   2.133  19.082  0.00  0.00    +0.000 A 
ATOM     29  C   UNL     1       1.920   3.393  19.624  0.00  0.00    +0.000 A 
ATOM     30  C   UNL     1       2.506   4.539  19.107  0.00  0.00    +0.000 A 
ATOM     31  N   UNL     1       2.079   5.740  19.561  0.00  0.00    +0.000 NA
ENDBRANCH  19  22
ENDBRANCH   1  20
TORSDOF 3
ENDMDL
MODEL 4
REMARK VINA RESULT:      -8.3      7.733     10.618
REMARK  Name = 
REMARK  3 active torsions:
REMARK  status: ('A' for Active; 'I' for Inactive)
REMARK    1  A    between atoms: C_2  and  C_20
REMARK    2  A    between atoms: N_3  and  C_4
REMARK    3  A    between atoms: C_7  and  N_8
REMARK                            x       y       z     vdW  Elec       q    Type
REMARK                         _______ _______ _______ _____ _____    ______ ____
ROOT
ATOM      1  C   UNL     1       8.030   8.512  17.876  0.00  0.00    +0.000 A 
ATOM      2  C   UNL     1       6.830   8.298  17.206  0.00  0.00    +0.000 A 
ATOM      3  C   UNL     1       6.061   7.122  17.416  0.00  0.00    +0.000 A 
ATOM      4  C   UNL     1       6.447   6.110  18.302  0.00  0.00    +0.000 A 
ATOM      5  C   UNL     1       7.681   6.301  18.943  0.00  0.00    +0.000 A 
ATOM      6  C   UNL     1       8.454   7.482  18.734  0.00  0.00    +0.000 A 
ENDROOT
BRANCH   4   7
ATOM      7  N   UNL     1       5.648   4.937  18.588  0.00  0.00    +0.000 N 
ATOM      8  C   UNL     1       4.487   4.543  17.937  0.00  0.00    +0.000 C 
ATOM      9  O   UNL     1       4.029   5.145  16.970  0.00  0.00    +0.000 OA
ATOM     10  N   UNL     1       3.828   3.391  18.407  0.00  0.00    +0.000 N 
ATOM     11  C   UNL     1       2.718   2.888  17.575  0.00  0.00    +0.000 C 
ATOM     12  C   UNL     1       1.346   3.389  18.035  0.00  0.00    +0.000 C 
ATOM     13  C   UNL     1       0.777   2.664  19.253  0.00  0.00    +0.000 C 
ATOM     14  C   UNL     1       1.702   2.651  20.471  0.00  0.00    +0.000 C 
ATOM     15  C   UNL     1       2.979   1.831  20.247  0.00  0.00    +0.000 C 
ATOM     16  C   UNL     1       4.134   2.642  19.628  0.00  0.00    +0.000 C 
ATOM     17  H   UNL     1       5.989   4.350  19.333  0.00  0.00    +0.000 HD
ENDBRANCH   4   7
BRANCH   1  20
ATOM     18  O   UNL     1       9.152  10.470  19.922  0.00  0.00    +0.000 OA
ATOM     19  C   UNL     1       9.309  10.569  18.709  0.00  0.00    +0.000 C 
ATOM     20  N   UNL     1       8.839   9.681  17.730  0.00  0.00    +0.000 N 
ATOM     21  H   UNL     1       9.123   9.934  16.787  0.00  0.00    +0.000 HD
BRANCH  19  22
ATOM     22  C   UNL     1      10.058  11.771  18.156  0.00  0.00    +0.000 A 
ATOM     23  C   UNL     1      11.425  11.742  17.899  0.00  0.00    +0.000 A 
ATOM     24  N   UNL     1      12.142  12.861  17.579  0.00  0.00    +0.000 NA
ATOM     25  C   UNL     1      11.477  14.030  17.584  0.00  0.00    +0.000 A 
ATOM     26  C   UNL     1      12.148  15.246  17.448  0.00  0.00    +0.000 A 
ATOM     27  C   UNL     1      11.478  16.466  17.574  0.00  0.00    +0.000 A 
ATOM     28  C   UNL     1      10.101  16.475  17.751  0.00  0.00    +0.000 A 
ATOM     29  C   UNL     1       9.405  15.268  17.822  0.00  0.00    +0.000 A 
ATOM     30  C   UNL     1      10.064  14.048  17.791  0.00  0.00    +0.000 A 
ATOM     31  N   UNL     1       9.350  12.926  18.043  0.00  0.00    +0.000 NA
ENDBRANCH  19  22
ENDBRANCH   1  20
TORSDOF 3
ENDMDL
MODEL 5
REMARK VINA RESULT:      -8.1      1.872      2.870
REMARK  Name = 
REMARK  3 active torsions:
REMARK  status: ('A' for Active; 'I' for Inactive)
REMARK    1  A    between atoms: C_2  and  C_20
REMARK    2  A    between atoms: N_3  and  C_4
REMARK    3  A    between atoms: C_7  and  N_8
REMARK                            x       y       z     vdW  Elec       q    Type
REMARK                         _______ _______ _______ _____ _____    ______ ____
ROOT
ATOM      1  C   UNL     1       0.586   9.690  21.095  0.00  0.00    +0.000 A 
ATOM      2  C   UNL     1       0.278  10.931  20.550  0.00  0.00    +0.000 A 
ATOM      3  C   UNL     1      -0.550  11.860  21.237  0.00  0.00    +0.000 A 
ATOM      4  C   UNL     1      -1.104  11.598  22.495  0.00  0.00    +0.000 A 
ATOM      5  C   UNL     1      -0.834  10.326  23.025  0.00  0.00    +0.000 A 
ATOM      6  C   UNL     1      -0.002   9.394  22.337  0.00  0.00    +0.000 A 
ENDROOT
BRANCH   4   7
ATOM      7  N   UNL     1      -1.891  12.551  23.247  0.00  0.00    +0.000 N 
ATOM      8  C   UNL     1      -3.243  12.824  23.087  0.00  0.00    +0.000 C 
ATOM      9  O   UNL     1      -3.956  12.214  22.295  0.00  0.00    +0.000 OA
ATOM     10  N   UNL     1      -3.810  13.832  23.889  0.00  0.00    +0.000 N 
ATOM     11  C   UNL     1      -5.280  13.959  23.839  0.00  0.00    +0.000 C 
ATOM     12  C   UNL     1      -5.759  15.019  22.843  0.00  0.00    +0.000 C 
ATOM     13  C   UNL     1      -5.641  16.459  23.338  0.00  0.00    +0.000 C 
ATOM     14  C   UNL     1      -4.239  16.855  23.803  0.00  0.00    +0.000 C 
ATOM     15  C   UNL     1      -3.790  16.105  25.063  0.00  0.00    +0.000 C 
ATOM     16  C   UNL     1      -3.095  14.761  24.768  0.00  0.00    +0.000 C 
ATOM     17  H   UNL     1      -1.394  13.055  23.965  0.00  0.00    +0.000 HD
ENDBRANCH   4   7
BRANCH   1  20
ATOM     18  O   UNL     1       1.280   9.187  18.171  0.00  0.00    +0.000 OA
ATOM     19  C   UNL     1       1.696   8.514  19.109  0.00  0.00    +0.000 C 
ATOM     20  N   UNL     1       1.431   8.720  20.470  0.00  0.00    +0.000 N 
ATOM     21  H   UNL     1       1.917   8.067  21.080  0.00  0.00    +0.000 HD
BRANCH  19  22
ATOM     22  C   UNL     1       2.571   7.304  18.818  0.00  0.00    +0.000 A 
ATOM     23  C   UNL     1       2.676   6.233  19.700  0.00  0.00    +0.000 A 
ATOM     24  N   UNL     1       3.592   5.230  19.541  0.00  0.00    +0.000 NA
ATOM     25  C   UNL     1       4.452   5.352  18.514  0.00  0.00    +0.000 A 
ATOM     26  C   UNL     1       5.534   4.482  18.370  0.00  0.00    +0.000 A 
ATOM     27  C   UNL     1       6.498   4.677  17.377  0.00  0.00    +0.000 A 
ATOM     28  C   UNL     1       6.333   5.704  16.457  0.00  0.00    +0.000 A 
ATOM     29  C   UNL     1       5.221   6.542  16.546  0.00  0.00    +0.000 A 
ATOM     30  C   UNL     1       4.304   6.421  17.580  0.00  0.00    +0.000 A 
ATOM     31  N   UNL     1       3.351   7.374  17.707  0.00  0.00    +0.000 NA
ENDBRANCH  19  22
ENDBRANCH   1  20
TORSDOF 3
ENDMDL
MODEL 6
REMARK VINA RESULT:      -8.1      1.918      2.769
REMARK  Name = 
REMARK  3 active torsions:
REMARK  status: ('A' for Active; 'I' for Inactive)
REMARK    1  A    between atoms: C_2  and  C_20
REMARK    2  A    between atoms: N_3  and  C_4
REMARK    3  A    between atoms: C_7  and  N_8
REMARK                            x       y       z     vdW  Elec       q    Type
REMARK                         _______ _______ _______ _____ _____    ______ ____
ROOT
ATOM      1  C   UNL     1       2.885   7.672  18.266  0.00  0.00    +0.000 A 
ATOM      2  C   UNL     1       2.489   7.257  19.534  0.00  0.00    +0.000 A 
ATOM      3  C   UNL     1       1.582   8.022  20.316  0.00  0.00    +0.000 A 
ATOM      4  C   UNL     1       1.025   9.227  19.872  0.00  0.00    +0.000 A 
ATOM      5  C   UNL     1       1.460   9.671  18.614  0.00  0.00    +0.000 A 
ATOM      6  C   UNL     1       2.371   8.904  17.827  0.00  0.00    +0.000 A 
ENDROOT
BRANCH   4   7
ATOM      7  N   UNL     1       0.045   9.988  20.617  0.00  0.00    +0.000 N 
ATOM      8  C   UNL     1      -0.664  11.095  20.170  0.00  0.00    +0.000 C 
ATOM      9  O   UNL     1      -0.570  11.526  19.024  0.00  0.00    +0.000 OA
ATOM     10  N   UNL     1      -1.536  11.727  21.075  0.00  0.00    +0.000 N 
ATOM     11  C   UNL     1      -2.419  12.769  20.514  0.00  0.00    +0.000 C 
ATOM     12  C   UNL     1      -1.854  14.184  20.670  0.00  0.00    +0.000 C 
ATOM     13  C   UNL     1      -2.013  14.784  22.066  0.00  0.00    +0.000 C 
ATOM     14  C   UNL     1      -1.440  13.925  23.194  0.00  0.00    +0.000 C 
ATOM     15  C   UNL     1      -2.195  12.604  23.386  0.00  0.00    +0.000 C 
ATOM     16  C   UNL     1      -1.662  11.454  22.509  0.00  0.00    +0.000 C 
ATOM     17  H   UNL     1      -0.139   9.662  21.553  0.00  0.00    +0.000 HD
ENDBRANCH   4   7
BRANCH   1  20
ATOM     18  O   UNL     1       4.179   4.930  18.567  0.00  0.00    +0.000 OA
ATOM     19  C   UNL     1       4.366   5.684  17.618  0.00  0.00    +0.000 C 
ATOM     20  N   UNL     1       3.774   6.940  17.418  0.00  0.00    +0.000 N 
ATOM     21  H   UNL     1       4.038   7.376  16.538  0.00  0.00    +0.000 HD
BRANCH  19  22
ATOM     22  C   UNL     1       5.350   5.277  16.533  0.00  0.00    +0.000 A 
ATOM     23  C   UNL     1       6.624   5.828  16.439  0.00  0.00    +0.000 A 
ATOM     24  N   UNL     1       7.448   5.611  15.370  0.00  0.00    +0.000 NA
ATOM     25  C   UNL     1       6.948   4.880  14.357  0.00  0.00    +0.000 A 
ATOM     26  C   UNL     1       7.635   4.751  13.150  0.00  0.00    +0.000 A 
ATOM     27  C   UNL     1       7.065   4.096  12.054  0.00  0.00    +0.000 A 
ATOM     28  C   UNL     1       5.827   3.483  12.191  0.00  0.00    +0.000 A 
ATOM     29  C   UNL     1       5.156   3.547  13.413  0.00  0.00    +0.000 A 
ATOM     30  C   UNL     1       5.663   4.270  14.483  0.00  0.00    +0.000 A 
ATOM     31  N   UNL     1       4.880   4.436  15.574  0.00  0.00    +0.000 NA
ENDBRANCH  19  22
ENDBRANCH   1  20
TORSDOF 3
ENDMDL
MODEL 7
REMARK VINA RESULT:      -8.0      2.236      3.198
REMARK  Name = 
REMARK  3 active torsions:
REMARK  status: ('A' for Active; 'I' for Inactive)
REMARK    1  A    between atoms: C_2  and  C_20
REMARK    2  A    between atoms: N_3  and  C_4
REMARK    3  A    between atoms: C_7  and  N_8
REMARK                            x       y       z     vdW  Elec       q    Type
REMARK                         _______ _______ _______ _____ _____    ______ ____
ROOT
ATOM      1  C   UNL     1       0.603   9.682  20.066  0.00  0.00    +0.000 A 
ATOM      2  C   UNL     1       0.834  10.431  21.215  0.00  0.00    +0.000 A 
ATOM      3  C   UNL     1      -0.053  11.465  21.620  0.00  0.00    +0.000 A 
ATOM      4  C   UNL     1      -1.209  11.798  20.904  0.00  0.00    +0.000 A 
ATOM      5  C   UNL     1      -1.418  11.076  19.718  0.00  0.00    +0.000 A 
ATOM      6  C   UNL     1      -0.529  10.037  19.311  0.00  0.00    +0.000 A 
ENDROOT
BRANCH   4   7
ATOM      7  N   UNL     1      -2.166  12.796  21.331  0.00  0.00    +0.000 N 
ATOM      8  C   UNL     1      -3.020  12.716  22.423  0.00  0.00    +0.000 C 
ATOM      9  O   UNL     1      -3.010  11.771  23.208  0.00  0.00    +0.000 OA
ATOM     10  N   UNL     1      -3.917  13.779  22.635  0.00  0.00    +0.000 N 
ATOM     11  C   UNL     1      -4.666  13.759  23.907  0.00  0.00    +0.000 C 
ATOM     12  C   UNL     1      -6.054  13.124  23.778  0.00  0.00    +0.000 C 
ATOM     13  C   UNL     1      -7.114  14.030  23.156  0.00  0.00    +0.000 C 
ATOM     14  C   UNL     1      -6.734  14.603  21.789  0.00  0.00    +0.000 C 
ATOM     15  C   UNL     1      -5.555  15.582  21.855  0.00  0.00    +0.000 C 
ATOM     16  C   UNL     1      -4.178  14.902  21.730  0.00  0.00    +0.000 C 
ATOM     17  H   UNL     1      -2.196  13.636  20.774  0.00  0.00    +0.000 HD
ENDBRANCH   4   7
BRANCH   1  20
ATOM     18  O   UNL     1       2.202   9.300  17.501  0.00  0.00    +0.000 OA
ATOM     19  C   UNL     1       2.136   8.475  18.406  0.00  0.00    +0.000 C 
ATOM     20  N   UNL     1       1.440   8.614  19.616  0.00  0.00    +0.000 N 
ATOM     21  H   UNL     1       1.557   7.822  20.243  0.00  0.00    +0.000 HD
BRANCH  19  22
ATOM     22  C   UNL     1       2.839   7.138  18.240  0.00  0.00    +0.000 A 
ATOM     23  C   UNL     1       3.942   6.976  17.407  0.00  0.00    +0.000 A 
ATOM     24  N   UNL     1       4.469   5.751  17.106  0.00  0.00    +0.000 NA
ATOM     25  C   UNL     1       3.830   4.676  17.602  0.00  0.00    +0.000 A 
ATOM     26  C   UNL     1       4.176   3.383  17.210  0.00  0.00    +0.000 A 
ATOM     27  C   UNL     1       3.437   2.272  17.628  0.00  0.00    +0.000 A 
ATOM     28  C   UNL     1       2.389   2.446  18.522  0.00  0.00    +0.000 A 
ATOM     29  C   UNL     1       2.072   3.727  18.976  0.00  0.00    +0.000 A 
ATOM     30  C   UNL     1       2.734   4.849  18.501  0.00  0.00    +0.000 A 
ATOM     31  N   UNL     1       2.259   6.069  18.848  0.00  0.00    +0.000 NA
ENDBRANCH  19  22
ENDBRANCH   1  20
TORSDOF 3
ENDMDL
MODEL 8
REMARK VINA RESULT:      -8.0      1.473     11.403
REMARK  Name = 
REMARK  3 active torsions:
REMARK  status: ('A' for Active; 'I' for Inactive)
REMARK    1  A    between atoms: C_2  and  C_20
REMARK    2  A    between atoms: N_3  and  C_4
REMARK    3  A    between atoms: C_7  and  N_8
REMARK                            x       y       z     vdW  Elec       q    Type
REMARK                         _______ _______ _______ _____ _____    ______ ____
ROOT
ATOM      1  C   UNL     1      -0.090  10.234  19.894  0.00  0.00    +0.000 A 
ATOM      2  C   UNL     1       0.230  10.415  18.553  0.00  0.00    +0.000 A 
ATOM      3  C   UNL     1       1.201   9.606  17.904  0.00  0.00    +0.000 A 
ATOM      4  C   UNL     1       1.893   8.579  18.557  0.00  0.00    +0.000 A 
ATOM      5  C   UNL     1       1.607   8.426  19.923  0.00  0.00    +0.000 A 
ATOM      6  C   UNL     1       0.631   9.238  20.575  0.00  0.00    +0.000 A 
ENDROOT
BRANCH   4   7
ATOM      7  N   UNL     1       2.834   7.695  17.904  0.00  0.00    +0.000 N 
ATOM      8  C   UNL     1       3.453   6.582  18.459  0.00  0.00    +0.000 C 
ATOM      9  O   UNL     1       3.210   6.183  19.595  0.00  0.00    +0.000 OA
ATOM     10  N   UNL     1       4.381   5.883  17.666  0.00  0.00    +0.000 N 
ATOM     11  C   UNL     1       4.868   4.599  18.208  0.00  0.00    +0.000 C 
ATOM     12  C   UNL     1       6.194   4.728  18.963  0.00  0.00    +0.000 C 
ATOM     13  C   UNL     1       7.429   4.832  18.071  0.00  0.00    +0.000 C 
ATOM     14  C   UNL     1       7.369   5.957  17.036  0.00  0.00    +0.000 C 
ATOM     15  C   UNL     1       6.290   5.735  15.969  0.00  0.00    +0.000 C 
ATOM     16  C   UNL     1       4.908   6.293  16.362  0.00  0.00    +0.000 C 
ATOM     17  H   UNL     1       3.043   7.916  16.943  0.00  0.00    +0.000 HD
ENDBRANCH   4   7
BRANCH   1  20
ATOM     18  O   UNL     1       0.165  12.513  21.900  0.00  0.00    +0.000 OA
ATOM     19  C   UNL     1      -0.900  12.022  21.539  0.00  0.00    +0.000 C 
ATOM     20  N   UNL     1      -1.073  10.995  20.600  0.00  0.00    +0.000 N 
ATOM     21  H   UNL     1      -2.049  10.774  20.419  0.00  0.00    +0.000 HD
BRANCH  19  22
ATOM     22  C   UNL     1      -2.193  12.524  22.162  0.00  0.00    +0.000 A 
ATOM     23  C   UNL     1      -2.297  12.829  23.516  0.00  0.00    +0.000 A 
ATOM     24  N   UNL     1      -3.491  13.103  24.124  0.00  0.00    +0.000 NA
ATOM     25  C   UNL     1      -4.596  13.001  23.364  0.00  0.00    +0.000 A 
ATOM     26  C   UNL     1      -5.870  13.084  23.925  0.00  0.00    +0.000 A 
ATOM     27  C   UNL     1      -7.019  12.858  23.161  0.00  0.00    +0.000 A 
ATOM     28  C   UNL     1      -6.899  12.633  21.796  0.00  0.00    +0.000 A 
ATOM     29  C   UNL     1      -5.635  12.615  21.207  0.00  0.00    +0.000 A 
ATOM     30  C   UNL     1      -4.480  12.745  21.964  0.00  0.00    +0.000 A 
ATOM     31  N   UNL     1      -3.287  12.540  21.356  0.00  0.00    +0.000 NA
ENDBRANCH  19  22
ENDBRANCH   1  20
TORSDOF 3
ENDMDL
MODEL 9
REMARK VINA RESULT:      -7.9      2.221      3.264
REMARK  Name = 
REMARK  3 active torsions:
REMARK  status: ('A' for Active; 'I' for Inactive)
REMARK    1  A    between atoms: C_2  and  C_20
REMARK    2  A    between atoms: N_3  and  C_4
REMARK    3  A    between atoms: C_7  and  N_8
REMARK                            x       y       z     vdW  Elec       q    Type
REMARK                         _______ _______ _______ _____ _____    ______ ____
ROOT
ATOM      1  C   UNL     1       0.734   9.202  21.395  0.00  0.00    +0.000 A 
ATOM      2  C   UNL     1      -0.043   8.979  22.527  0.00  0.00    +0.000 A 
ATOM      3  C   UNL     1      -0.778  10.028  23.142  0.00  0.00    +0.000 A 
ATOM      4  C   UNL     1      -0.776  11.342  22.659  0.00  0.00    +0.000 A 
ATOM      5  C   UNL     1       0.045  11.579  21.546  0.00  0.00    +0.000 A 
ATOM      6  C   UNL     1       0.783  10.526  20.926  0.00  0.00    +0.000 A 
ENDROOT
BRANCH   4   7
ATOM      7  N   UNL     1      -1.570  12.412  23.223  0.00  0.00    +0.000 N 
ATOM      8  C   UNL     1      -2.759  12.922  22.717  0.00  0.00    +0.000 C 
ATOM      9  O   UNL     1      -3.313  12.456  21.724  0.00  0.00    +0.000 OA
ATOM     10  N   UNL     1      -3.349  14.006  23.392  0.00  0.00    +0.000 N 
ATOM     11  C   UNL     1      -4.704  14.392  22.950  0.00  0.00    +0.000 C 
ATOM     12  C   UNL     1      -4.701  15.531  21.926  0.00  0.00    +0.000 C 
ATOM     13  C   UNL     1      -4.486  16.922  22.519  0.00  0.00    +0.000 C 
ATOM     14  C   UNL     1      -3.224  17.058  23.373  0.00  0.00    +0.000 C 
ATOM     15  C   UNL     1      -3.277  16.226  24.660  0.00  0.00    +0.000 C 
ATOM     16  C   UNL     1      -2.763  14.784  24.486  0.00  0.00    +0.000 C 
ATOM     17  H   UNL     1      -1.217  12.811  24.079  0.00  0.00    +0.000 HD
ENDBRANCH   4   7
BRANCH   1  20
ATOM     18  O   UNL     1       1.649   8.959  18.499  0.00  0.00    +0.000 OA
ATOM     19  C   UNL     1       1.851   8.112  19.363  0.00  0.00    +0.000 C 
ATOM     20  N   UNL     1       1.477   8.188  20.713  0.00  0.00    +0.000 N 
ATOM     21  H   UNL     1       1.785   7.390  21.263  0.00  0.00    +0.000 HD
BRANCH  19  22
ATOM     22  C   UNL     1       2.548   6.817  18.980  0.00  0.00    +0.000 A 
ATOM     23  C   UNL     1       3.475   6.750  17.943  0.00  0.00    +0.000 A 
ATOM     24  N   UNL     1       3.970   5.567  17.469  0.00  0.00    +0.000 NA
ATOM     25  C   UNL     1       3.471   4.440  18.008  0.00  0.00    +0.000 A 
ATOM     26  C   UNL     1       3.774   3.187  17.474  0.00  0.00    +0.000 A 
ATOM     27  C   UNL     1       3.162   2.024  17.953  0.00  0.00    +0.000 A 
ATOM     28  C   UNL     1       2.302   2.102  19.040  0.00  0.00    +0.000 A 
ATOM     29  C   UNL     1       2.040   3.340  19.628  0.00  0.00    +0.000 A 
ATOM     30  C   UNL     1       2.565   4.515  19.109  0.00  0.00    +0.000 A 
ATOM     31  N   UNL     1       2.129   5.692  19.617  0.00  0.00    +0.000 NA
ENDBRANCH  19  22
ENDBRANCH   1  20
TORSDOF 3
ENDMDL
