MODEL 1
REMARK VINA RESULT:      -8.6      0.000      0.000
REMARK  Name = 
REMARK  5 active torsions:
REMARK  status: ('A' for Active; 'I' for Inactive)
REMARK    1  A    between atoms: C_1  and  C_2
REMARK    2  A    between atoms: C_5  and  C_6
REMARK    3  A    between atoms: C_11  and  C_12
REMARK    4  A    between atoms: N_14  and  C_15
REMARK    5  A    between atoms: C_19  and  C_20
REMARK                            x       y       z     vdW  Elec       q    Type
REMARK                         _______ _______ _______ _____ _____    ______ ____
ROOT
ATOM      1  C   UNL     1       4.456   4.521  16.684  0.00  0.00    +0.000 C 
ATOM      2  O   UNL     1       3.774   3.505  16.792  0.00  0.00    +0.000 OA
ATOM      3  N   UNL     1       4.345   5.650  17.476  0.00  0.00    +0.000 N 
ATOM      4  H   UNL     1       5.051   6.373  17.357  0.00  0.00    +0.000 HD
ENDROOT
BRANCH   1  10
ATOM      5  C   UNL     1       6.663   5.235  15.507  0.00  0.00    +0.000 A 
ATOM      6  C   UNL     1       7.442   5.154  14.329  0.00  0.00    +0.000 A 
ATOM      7  C   UNL     1       7.038   4.392  13.232  0.00  0.00    +0.000 A 
ATOM      8  C   UNL     1       5.850   3.680  13.292  0.00  0.00    +0.000 A 
ATOM      9  C   UNL     1       5.053   3.768  14.433  0.00  0.00    +0.000 A 
ATOM     10  C   UNL     1       5.429   4.559  15.542  0.00  0.00    +0.000 A 
BRANCH   5  15
ATOM     11  C   UNL     1       8.443   8.575  18.647  0.00  0.00    +0.000 C 
ATOM     12  C   UNL     1       7.979   7.310  18.048  0.00  0.00    +0.000 A 
ATOM     13  N   UNL     1       7.839   6.181  18.753  0.00  0.00    +0.000 NA
ATOM     14  O   UNL     1       7.330   5.284  17.814  0.00  0.00    +0.000 OA
ATOM     15  C   UNL     1       7.216   5.970  16.635  0.00  0.00    +0.000 A 
ATOM     16  N   UNL     1       7.638   7.211  16.723  0.00  0.00    +0.000 NA
ENDBRANCH   5  15
ENDBRANCH   1  10
BRANCH   3  17
ATOM     17  C   UNL     1       3.427   5.874  18.528  0.00  0.00    +0.000 A 
ATOM     18  C   UNL     1       2.913   7.132  18.849  0.00  0.00    +0.000 A 
ATOM     19  C   UNL     1       2.011   7.296  19.904  0.00  0.00    +0.000 A 
ATOM     20  C   UNL     1       1.614   6.200  20.663  0.00  0.00    +0.000 A 
ATOM     21  C   UNL     1       2.126   4.933  20.367  0.00  0.00    +0.000 A 
ATOM     22  C   UNL     1       3.020   4.771  19.295  0.00  0.00    +0.000 A 
BRANCH  21  23
ATOM     23  C   UNL     1       1.712   3.739  21.153  0.00  0.00    +0.000 C 
ATOM     24  N   UNL     1       0.678   2.991  20.658  0.00  0.00    +0.000 N 
ATOM     25  O   UNL     1       2.255   3.448  22.211  0.00  0.00    +0.000 OA
ATOM     26  H   UNL     1       0.067   3.318  19.924  0.00  0.00    +0.000 HD
ATOM     27  H   UNL     1       0.352   2.221  21.229  0.00  0.00    +0.000 HD
ENDBRANCH  21  23
ENDBRANCH   3  17
TORSDOF 4
ENDMDL
MODEL 2
REMARK VINA RESULT:      -8.5      3.878      6.120
REMARK  Name = 
REMARK  5 active torsions:
REMARK  status: ('A' for Active; 'I' for Inactive)
REMARK    1  A    between atoms: C_1  and  C_2
REMARK    2  A    between atoms: C_5  and  C_6
REMARK    3  A    between atoms: C_11  and  C_12
REMARK    4  A    between atoms: N_14  and  C_15
REMARK    5  A    between atoms: C_19  and  C_20
REMARK                            x       y       z     vdW  Elec       q    Type
REMARK                         _______ _______ _______ _____ _____    ______ ____
ROOT
ATOM      1  C   UNL     1       2.612   7.328  18.658  0.00  0.00    +0.000 C 
ATOM      2  O   UNL     1       2.399   7.014  19.826  0.00  0.00    +0.000 OA
ATOM      3  N   UNL     1       2.045   8.405  17.999  0.00  0.00    +0.000 N 
ATOM      4  H   UNL     1       2.398   8.622  17.071  0.00  0.00    +0.000 HD
ENDROOT
BRANCH   1  10
ATOM      5  C   UNL     1       3.570   5.011  17.967  0.00  0.00    +0.000 A 
ATOM      6  C   UNL     1       4.481   4.321  17.133  0.00  0.00    +0.000 A 
ATOM      7  C   UNL     1       5.268   4.989  16.193  0.00  0.00    +0.000 A 
ATOM      8  C   UNL     1       5.153   6.364  16.057  0.00  0.00    +0.000 A 
ATOM      9  C   UNL     1       4.282   7.067  16.888  0.00  0.00    +0.000 A 
ATOM     10  C   UNL     1       3.500   6.413  17.867  0.00  0.00    +0.000 A 
BRANCH   5  15
ATOM     11  C   UNL     1       1.479   2.527  21.660  0.00  0.00    +0.000 C 
ATOM     12  C   UNL     1       1.743   3.142  20.347  0.00  0.00    +0.000 A 
ATOM     13  N   UNL     1       0.835   3.172  19.363  0.00  0.00    +0.000 NA
ATOM     14  O   UNL     1       1.483   3.889  18.357  0.00  0.00    +0.000 OA
ATOM     15  C   UNL     1       2.720   4.218  18.842  0.00  0.00    +0.000 A 
ATOM     16  N   UNL     1       2.937   3.748  20.050  0.00  0.00    +0.000 NA
ENDBRANCH   5  15
ENDBRANCH   1  10
BRANCH   3  17
ATOM     17  C   UNL     1       1.102   9.326  18.513  0.00  0.00    +0.000 A 
ATOM     18  C   UNL     1       1.261   9.996  19.728  0.00  0.00    +0.000 A 
ATOM     19  C   UNL     1       0.293  10.892  20.190  0.00  0.00    +0.000 A 
ATOM     20  C   UNL     1      -0.859  11.126  19.445  0.00  0.00    +0.000 A 
ATOM     21  C   UNL     1      -1.044  10.455  18.232  0.00  0.00    +0.000 A 
ATOM     22  C   UNL     1      -0.061   9.568  17.764  0.00  0.00    +0.000 A 
BRANCH  21  23
ATOM     23  C   UNL     1      -2.260  10.692  17.407  0.00  0.00    +0.000 C 
ATOM     24  N   UNL     1      -2.292  11.835  16.653  0.00  0.00    +0.000 N 
ATOM     25  O   UNL     1      -3.204   9.912  17.417  0.00  0.00    +0.000 OA
ATOM     26  H   UNL     1      -1.647  12.599  16.788  0.00  0.00    +0.000 HD
ATOM     27  H   UNL     1      -3.148  12.028  16.148  0.00  0.00    +0.000 HD
ENDBRANCH  21  23
ENDBRANCH   3  17
TORSDOF 4
ENDMDL
MODEL 3
REMARK VINA RESULT:      -8.4      2.452      6.779
REMARK  Name = 
REMARK  5 active torsions:
REMARK  status: ('A' for Active; 'I' for Inactive)
REMARK    1  A    between atoms: C_1  and  C_2
REMARK    2  A    between atoms: C_5  and  C_6
REMARK    3  A    between atoms: C_11  and  C_12
REMARK    4  A    between atoms: N_14  and  C_15
REMARK    5  A    between atoms: C_19  and  C_20
REMARK                            x       y       z     vdW  Elec       q    Type
REMARK                         _______ _______ _______ _____ _____    ______ ____
ROOT
ATOM      1  C   UNL     1       4.976   4.243  18.500  0.00  0.00    +0.000 C 
ATOM      2  O   UNL     1       6.090   4.490  18.956  0.00  0.00    +0.000 OA
ATOM      3  N   UNL     1       4.661   4.146  17.156  0.00  0.00    +0.000 N 
ATOM      4  H   UNL     1       3.728   3.818  16.920  0.00  0.00    +0.000 HD
ENDROOT
BRANCH   1  10
ATOM      5  C   UNL     1       2.867   5.079  19.774  0.00  0.00    +0.000 A 
ATOM      6  C   UNL     1       1.893   4.775  20.753  0.00  0.00    +0.000 A 
ATOM      7  C   UNL     1       1.866   3.541  21.405  0.00  0.00    +0.000 A 
ATOM      8  C   UNL     1       2.807   2.575  21.083  0.00  0.00    +0.000 A 
ATOM      9  C   UNL     1       3.794   2.864  20.140  0.00  0.00    +0.000 A 
ATOM     10  C   UNL     1       3.857   4.118  19.492  0.00  0.00    +0.000 A 
BRANCH   5  15
ATOM     11  C   UNL     1       1.785   9.619  18.225  0.00  0.00    +0.000 C 
ATOM     12  C   UNL     1       2.365   8.268  18.334  0.00  0.00    +0.000 A 
ATOM     13  N   UNL     1       3.359   7.838  17.548  0.00  0.00    +0.000 NA
ATOM     14  O   UNL     1       3.620   6.559  18.039  0.00  0.00    +0.000 OA
ATOM     15  C   UNL     1       2.751   6.350  19.076  0.00  0.00    +0.000 A 
ATOM     16  N   UNL     1       1.935   7.361  19.270  0.00  0.00    +0.000 NA
ENDBRANCH   5  15
ENDBRANCH   1  10
BRANCH   3  17
ATOM     17  C   UNL     1       5.528   4.338  16.056  0.00  0.00    +0.000 A 
ATOM     18  C   UNL     1       6.688   5.112  16.114  0.00  0.00    +0.000 A 
ATOM     19  C   UNL     1       7.507   5.272  14.992  0.00  0.00    +0.000 A 
ATOM     20  C   UNL     1       7.170   4.663  13.787  0.00  0.00    +0.000 A 
ATOM     21  C   UNL     1       6.007   3.893  13.704  0.00  0.00    +0.000 A 
ATOM     22  C   UNL     1       5.196   3.723  14.838  0.00  0.00    +0.000 A 
BRANCH  21  23
ATOM     23  C   UNL     1       5.626   3.220  12.432  0.00  0.00    +0.000 C 
ATOM     24  N   UNL     1       6.540   2.364  11.878  0.00  0.00    +0.000 N 
ATOM     25  O   UNL     1       4.551   3.438  11.887  0.00  0.00    +0.000 OA
ATOM     26  H   UNL     1       7.506   2.332  12.169  0.00  0.00    +0.000 HD
ATOM     27  H   UNL     1       6.308   1.962  10.978  0.00  0.00    +0.000 HD
ENDBRANCH  21  23
ENDBRANCH   3  17
TORSDOF 4
ENDMDL
MODEL 4
REMARK VINA RESULT:      -8.4      3.001      5.194
REMARK  Name = 
REMARK  5 active torsions:
REMARK  status: ('A' for Active; 'I' for Inactive)
REMARK    1  A    between atoms: C_1  and  C_2
REMARK    2  A    between atoms: C_5  and  C_6
REMARK    3  A    between atoms: C_11  and  C_12
REMARK    4  A    between atoms: N_14  and  C_15
REMARK    5  A    between atoms: C_19  and  C_20
REMARK                            x       y       z     vdW  Elec       q    Type
REMARK                         _______ _______ _______ _____ _____    ______ ____
ROOT
ATOM      1  C   UNL     1       4.137   6.768  17.540  0.00  0.00    +0.000 C 
ATOM      2  O   UNL     1       4.870   7.741  17.697  0.00  0.00    +0.000 OA
ATOM      3  N   UNL     1       2.875   6.616  18.088  0.00  0.00    +0.000 N 
ATOM      4  H   UNL     1       2.328   5.816  17.780  0.00  0.00    +0.000 HD
ENDROOT
BRANCH   1  10
ATOM      5  C   UNL     1       4.321   4.269  16.840  0.00  0.00    +0.000 A 
ATOM      6  C   UNL     1       4.979   3.330  16.013  0.00  0.00    +0.000 A 
ATOM      7  C   UNL     1       5.952   3.718  15.090  0.00  0.00    +0.000 A 
ATOM      8  C   UNL     1       6.281   5.058  14.965  0.00  0.00    +0.000 A 
ATOM      9  C   UNL     1       5.666   5.998  15.791  0.00  0.00    +0.000 A 
ATOM     10  C   UNL     1       4.701   5.622  16.753  0.00  0.00    +0.000 A 
BRANCH   5  15
ATOM     11  C   UNL     1       1.418   2.810  20.532  0.00  0.00    +0.000 C 
ATOM     12  C   UNL     1       1.932   3.148  19.192  0.00  0.00    +0.000 A 
ATOM     13  N   UNL     1       1.158   3.164  18.100  0.00  0.00    +0.000 NA
ATOM     14  O   UNL     1       2.033   3.588  17.099  0.00  0.00    +0.000 OA
ATOM     15  C   UNL     1       3.248   3.783  17.696  0.00  0.00    +0.000 A 
ATOM     16  N   UNL     1       3.243   3.490  18.977  0.00  0.00    +0.000 NA
ENDBRANCH   5  15
ENDBRANCH   1  10
BRANCH   3  17
ATOM     17  C   UNL     1       2.198   7.513  18.946  0.00  0.00    +0.000 A 
ATOM     18  C   UNL     1       1.926   7.240  20.288  0.00  0.00    +0.000 A 
ATOM     19  C   UNL     1       1.249   8.163  21.090  0.00  0.00    +0.000 A 
ATOM     20  C   UNL     1       0.823   9.375  20.557  0.00  0.00    +0.000 A 
ATOM     21  C   UNL     1       1.075   9.664  19.212  0.00  0.00    +0.000 A 
ATOM     22  C   UNL     1       1.770   8.741  18.415  0.00  0.00    +0.000 A 
BRANCH  21  23
ATOM     23  C   UNL     1       0.643  10.957  18.615  0.00  0.00    +0.000 C 
ATOM     24  N   UNL     1       1.626  11.803  18.175  0.00  0.00    +0.000 N 
ATOM     25  O   UNL     1      -0.539  11.267  18.541  0.00  0.00    +0.000 OA
ATOM     26  H   UNL     1       2.599  11.688  18.419  0.00  0.00    +0.000 HD
ATOM     27  H   UNL     1       1.333  12.710  17.834  0.00  0.00    +0.000 HD
ENDBRANCH  21  23
ENDBRANCH   3  17
TORSDOF 4
ENDMDL
MODEL 5
REMARK VINA RESULT:      -8.4      3.113      4.627
REMARK  Name = 
REMARK  5 active torsions:
REMARK  status: ('A' for Active; 'I' for Inactive)
REMARK    1  A    between atoms: C_1  and  C_2
REMARK    2  A    between atoms: C_5  and  C_6
REMARK    3  A    between atoms: C_11  and  C_12
REMARK    4  A    between atoms: N_14  and  C_15
REMARK    5  A    between atoms: C_19  and  C_20
REMARK                            x       y       z     vdW  Elec       q    Type
REMARK                         _______ _______ _______ _____ _____    ______ ____
ROOT
ATOM      1  C   UNL     1       2.311   5.911  19.370  0.00  0.00    +0.000 C 
ATOM      2  O   UNL     1       2.102   5.978  20.578  0.00  0.00    +0.000 OA
ATOM      3  N   UNL     1       2.243   6.971  18.483  0.00  0.00    +0.000 N 
ATOM      4  H   UNL     1       2.556   6.802  17.530  0.00  0.00    +0.000 HD
ENDROOT
BRANCH   1  10
ATOM      5  C   UNL     1       3.815   4.061  18.329  0.00  0.00    +0.000 A 
ATOM      6  C   UNL     1       3.869   2.738  17.832  0.00  0.00    +0.000 A 
ATOM      7  C   UNL     1       2.754   1.900  17.850  0.00  0.00    +0.000 A 
ATOM      8  C   UNL     1       1.558   2.361  18.378  0.00  0.00    +0.000 A 
ATOM      9  C   UNL     1       1.474   3.672  18.848  0.00  0.00    +0.000 A 
ATOM     10  C   UNL     1       2.584   4.547  18.809  0.00  0.00    +0.000 A 
BRANCH   5  15
ATOM     11  C   UNL     1       7.495   7.263  17.706  0.00  0.00    +0.000 C 
ATOM     12  C   UNL     1       6.676   6.131  18.177  0.00  0.00    +0.000 A 
ATOM     13  N   UNL     1       7.039   5.348  19.200  0.00  0.00    +0.000 NA
ATOM     14  O   UNL     1       5.959   4.474  19.328  0.00  0.00    +0.000 OA
ATOM     15  C   UNL     1       5.054   4.823  18.362  0.00  0.00    +0.000 A 
ATOM     16  N   UNL     1       5.469   5.815  17.607  0.00  0.00    +0.000 NA
ENDBRANCH   5  15
ENDBRANCH   1  10
BRANCH   3  17
ATOM     17  C   UNL     1       1.895   8.312  18.772  0.00  0.00    +0.000 A 
ATOM     18  C   UNL     1       2.063   9.364  17.870  0.00  0.00    +0.000 A 
ATOM     19  C   UNL     1       1.706  10.672  18.212  0.00  0.00    +0.000 A 
ATOM     20  C   UNL     1       1.181  10.949  19.471  0.00  0.00    +0.000 A 
ATOM     21  C   UNL     1       1.016   9.911  20.393  0.00  0.00    +0.000 A 
ATOM     22  C   UNL     1       1.361   8.597  20.039  0.00  0.00    +0.000 A 
BRANCH  21  23
ATOM     23  C   UNL     1       0.447  10.173  21.743  0.00  0.00    +0.000 C 
ATOM     24  N   UNL     1      -0.644  10.998  21.813  0.00  0.00    +0.000 N 
ATOM     25  O   UNL     1       0.944   9.693  22.754  0.00  0.00    +0.000 OA
ATOM     26  H   UNL     1      -0.939  11.583  21.046  0.00  0.00    +0.000 HD
ATOM     27  H   UNL     1      -0.986  11.231  22.738  0.00  0.00    +0.000 HD
ENDBRANCH  21  23
ENDBRANCH   3  17
TORSDOF 4
ENDMDL
MODEL 6
REMARK VINA RESULT:      -8.3      2.983      4.938
REMARK  Name = 
REMARK  5 active torsions:
REMARK  status: ('A' for Active; 'I' for Inactive)
REMARK    1  A    between atoms: C_1  and  C_2
REMARK    2  A    between atoms: C_5  and  C_6
REMARK    3  A    between atoms: C_11  and  C_12
REMARK    4  A    between atoms: N_14  and  C_15
REMARK    5  A    between atoms: C_19  and  C_20
REMARK                            x       y       z     vdW  Elec       q    Type
REMARK                         _______ _______ _______ _____ _____    ______ ____
ROOT
ATOM      1  C   UNL     1       4.433   6.563  17.371  0.00  0.00    +0.000 C 
ATOM      2  O   UNL     1       5.226   7.420  17.753  0.00  0.00    +0.000 OA
ATOM      3  N   UNL     1       3.108   6.465  17.760  0.00  0.00    +0.000 N 
ATOM      4  H   UNL     1       2.531   5.782  17.278  0.00  0.00    +0.000 HD
ENDROOT
BRANCH   1  10
ATOM      5  C   UNL     1       4.672   4.120  16.512  0.00  0.00    +0.000 A 
ATOM      6  C   UNL     1       5.299   3.263  15.577  0.00  0.00    +0.000 A 
ATOM      7  C   UNL     1       6.169   3.752  14.601  0.00  0.00    +0.000 A 
ATOM      8  C   UNL     1       6.423   5.112  14.528  0.00  0.00    +0.000 A 
ATOM      9  C   UNL     1       5.838   5.972  15.458  0.00  0.00    +0.000 A 
ATOM     10  C   UNL     1       4.979   5.494  16.473  0.00  0.00    +0.000 A 
BRANCH   5  15
ATOM     11  C   UNL     1       0.705   2.280  18.761  0.00  0.00    +0.000 C 
ATOM     12  C   UNL     1       2.080   2.726  18.468  0.00  0.00    +0.000 A 
ATOM     13  N   UNL     1       3.112   2.480  19.284  0.00  0.00    +0.000 NA
ATOM     14  O   UNL     1       4.197   3.017  18.591  0.00  0.00    +0.000 OA
ATOM     15  C   UNL     1       3.702   3.533  17.424  0.00  0.00    +0.000 A 
ATOM     16  N   UNL     1       2.399   3.408  17.322  0.00  0.00    +0.000 NA
ENDBRANCH   5  15
ENDBRANCH   1  10
BRANCH   3  17
ATOM     17  C   UNL     1       2.420   7.292  18.679  0.00  0.00    +0.000 A 
ATOM     18  C   UNL     1       2.168   6.930  20.004  0.00  0.00    +0.000 A 
ATOM     19  C   UNL     1       1.477   7.786  20.867  0.00  0.00    +0.000 A 
ATOM     20  C   UNL     1       1.019   9.019  20.413  0.00  0.00    +0.000 A 
ATOM     21  C   UNL     1       1.251   9.396  19.087  0.00  0.00    +0.000 A 
ATOM     22  C   UNL     1       1.959   8.540  18.228  0.00  0.00    +0.000 A 
BRANCH  21  23
ATOM     23  C   UNL     1       0.784  10.713  18.575  0.00  0.00    +0.000 C 
ATOM     24  N   UNL     1      -0.442  10.748  17.965  0.00  0.00    +0.000 N 
ATOM     25  O   UNL     1       1.473  11.720  18.671  0.00  0.00    +0.000 OA
ATOM     26  H   UNL     1      -0.931   9.916  17.669  0.00  0.00    +0.000 HD
ATOM     27  H   UNL     1      -0.727  11.629  17.556  0.00  0.00    +0.000 HD
ENDBRANCH  21  23
ENDBRANCH   3  17
TORSDOF 4
ENDMDL
MODEL 7
REMARK VINA RESULT:      -8.3      2.472      6.894
REMARK  Name = 
REMARK  5 active torsions:
REMARK  status: ('A' for Active; 'I' for Inactive)
REMARK    1  A    between atoms: C_1  and  C_2
REMARK    2  A    between atoms: C_5  and  C_6
REMARK    3  A    between atoms: C_11  and  C_12
REMARK    4  A    between atoms: N_14  and  C_15
REMARK    5  A    between atoms: C_19  and  C_20
REMARK                            x       y       z     vdW  Elec       q    Type
REMARK                         _______ _______ _______ _____ _____    ______ ____
ROOT
ATOM      1  C   UNL     1       4.434   4.416  18.543  0.00  0.00    +0.000 C 
ATOM      2  O   UNL     1       5.257   5.191  19.024  0.00  0.00    +0.000 OA
ATOM      3  N   UNL     1       4.445   3.937  17.245  0.00  0.00    +0.000 N 
ATOM      4  H   UNL     1       3.774   3.209  17.012  0.00  0.00    +0.000 HD
ENDROOT
BRANCH   1  10
ATOM      5  C   UNL     1       2.273   4.878  19.916  0.00  0.00    +0.000 A 
ATOM      6  C   UNL     1       1.268   4.321  20.741  0.00  0.00    +0.000 A 
ATOM      7  C   UNL     1       1.230   2.957  21.035  0.00  0.00    +0.000 A 
ATOM      8  C   UNL     1       2.192   2.114  20.499  0.00  0.00    +0.000 A 
ATOM      9  C   UNL     1       3.208   2.646  19.706  0.00  0.00    +0.000 A 
ATOM     10  C   UNL     1       3.282   4.029  19.423  0.00  0.00    +0.000 A 
BRANCH   5  15
ATOM     11  C   UNL     1       2.086   9.299  17.771  0.00  0.00    +0.000 C 
ATOM     12  C   UNL     1       2.067   8.216  18.770  0.00  0.00    +0.000 A 
ATOM     13  N   UNL     1       1.713   8.411  20.046  0.00  0.00    +0.000 NA
ATOM     14  O   UNL     1       1.780   7.129  20.593  0.00  0.00    +0.000 OA
ATOM     15  C   UNL     1       2.170   6.291  19.583  0.00  0.00    +0.000 A 
ATOM     16  N   UNL     1       2.393   6.921  18.452  0.00  0.00    +0.000 NA
ENDBRANCH   5  15
ENDBRANCH   1  10
BRANCH   3  17
ATOM     17  C   UNL     1       5.364   4.258  16.219  0.00  0.00    +0.000 A 
ATOM     18  C   UNL     1       6.464   5.097  16.404  0.00  0.00    +0.000 A 
ATOM     19  C   UNL     1       7.339   5.384  15.352  0.00  0.00    +0.000 A 
ATOM     20  C   UNL     1       7.120   4.839  14.091  0.00  0.00    +0.000 A 
ATOM     21  C   UNL     1       6.018   4.005  13.881  0.00  0.00    +0.000 A 
ATOM     22  C   UNL     1       5.151   3.707  14.945  0.00  0.00    +0.000 A 
BRANCH  21  23
ATOM     23  C   UNL     1       5.763   3.398  12.546  0.00  0.00    +0.000 C 
ATOM     24  N   UNL     1       6.794   2.707  11.966  0.00  0.00    +0.000 N 
ATOM     25  O   UNL     1       4.687   3.528  11.977  0.00  0.00    +0.000 OA
ATOM     26  H   UNL     1       7.747   2.768  12.292  0.00  0.00    +0.000 HD
ATOM     27  H   UNL     1       6.641   2.355  11.028  0.00  0.00    +0.000 HD
ENDBRANCH  21  23
ENDBRANCH   3  17
TORSDOF 4
ENDMDL
MODEL 8
REMARK VINA RESULT:      -8.3      2.389      6.365
REMARK  Name = 
REMARK  5 active torsions:
REMARK  status: ('A' for Active; 'I' for Inactive)
REMARK    1  A    between atoms: C_1  and  C_2
REMARK    2  A    between atoms: C_5  and  C_6
REMARK    3  A    between atoms: C_11  and  C_12
REMARK    4  A    between atoms: N_14  and  C_15
REMARK    5  A    between atoms: C_19  and  C_20
REMARK                            x       y       z     vdW  Elec       q    Type
REMARK                         _______ _______ _______ _____ _____    ______ ____
ROOT
ATOM      1  C   UNL     1       4.261   3.688  16.740  0.00  0.00    +0.000 C 
ATOM      2  O   UNL     1       4.357   2.478  16.547  0.00  0.00    +0.000 OA
ATOM      3  N   UNL     1       4.813   4.674  15.942  0.00  0.00    +0.000 N 
ATOM      4  H   UNL     1       4.557   5.637  16.147  0.00  0.00    +0.000 HD
ENDROOT
BRANCH   1  10
ATOM      5  C   UNL     1       4.097   4.852  19.060  0.00  0.00    +0.000 A 
ATOM      6  C   UNL     1       3.264   5.154  20.163  0.00  0.00    +0.000 A 
ATOM      7  C   UNL     1       1.919   4.782  20.192  0.00  0.00    +0.000 A 
ATOM      8  C   UNL     1       1.371   4.108  19.112  0.00  0.00    +0.000 A 
ATOM      9  C   UNL     1       2.181   3.775  18.026  0.00  0.00    +0.000 A 
ATOM     10  C   UNL     1       3.552   4.115  17.991  0.00  0.00    +0.000 A 
BRANCH   5  15
ATOM     11  C   UNL     1       8.292   7.332  18.401  0.00  0.00    +0.000 C 
ATOM     12  C   UNL     1       7.288   6.361  18.873  0.00  0.00    +0.000 A 
ATOM     13  N   UNL     1       7.522   5.502  19.872  0.00  0.00    +0.000 NA
ATOM     14  O   UNL     1       6.302   4.840  20.012  0.00  0.00    +0.000 OA
ATOM     15  C   UNL     1       5.456   5.371  19.076  0.00  0.00    +0.000 A 
ATOM     16  N   UNL     1       6.031   6.286  18.328  0.00  0.00    +0.000 NA
ENDBRANCH   5  15
ENDBRANCH   1  10
BRANCH   3  17
ATOM     17  C   UNL     1       5.609   4.498  14.786  0.00  0.00    +0.000 A 
ATOM     18  C   UNL     1       6.830   5.145  14.583  0.00  0.00    +0.000 A 
ATOM     19  C   UNL     1       7.572   4.936  13.418  0.00  0.00    +0.000 A 
ATOM     20  C   UNL     1       7.099   4.080  12.429  0.00  0.00    +0.000 A 
ATOM     21  C   UNL     1       5.874   3.432  12.606  0.00  0.00    +0.000 A 
ATOM     22  C   UNL     1       5.138   3.632  13.786  0.00  0.00    +0.000 A 
BRANCH  21  23
ATOM     23  C   UNL     1       5.346   2.501  11.571  0.00  0.00    +0.000 C 
ATOM     24  N   UNL     1       6.100   1.394  11.282  0.00  0.00    +0.000 N 
ATOM     25  O   UNL     1       4.295   2.723  10.984  0.00  0.00    +0.000 OA
ATOM     26  H   UNL     1       7.061   1.294  11.573  0.00  0.00    +0.000 HD
ATOM     27  H   UNL     1       5.774   0.800  10.529  0.00  0.00    +0.000 HD
ENDBRANCH  21  23
ENDBRANCH   3  17
TORSDOF 4
ENDMDL
MODEL 9
REMARK VINA RESULT:      -8.3      2.813      3.697
REMARK  Name = 
REMARK  5 active torsions:
REMARK  status: ('A' for Active; 'I' for Inactive)
REMARK    1  A    between atoms: C_1  and  C_2
REMARK    2  A    between atoms: C_5  and  C_6
REMARK    3  A    between atoms: C_11  and  C_12
REMARK    4  A    between atoms: N_14  and  C_15
REMARK    5  A    between atoms: C_19  and  C_20
REMARK                            x       y       z     vdW  Elec       q    Type
REMARK                         _______ _______ _______ _____ _____    ______ ____
ROOT
ATOM      1  C   UNL     1       4.266   5.993  18.175  0.00  0.00    +0.000 C 
ATOM      2  O   UNL     1       4.382   5.465  19.279  0.00  0.00    +0.000 OA
ATOM      3  N   UNL     1       3.419   7.044  17.873  0.00  0.00    +0.000 N 
ATOM      4  H   UNL     1       3.509   7.464  16.951  0.00  0.00    +0.000 HD
ENDROOT
BRANCH   1  10
ATOM      5  C   UNL     1       6.354   5.739  16.645  0.00  0.00    +0.000 A 
ATOM      6  C   UNL     1       6.930   5.046  15.554  0.00  0.00    +0.000 A 
ATOM      7  C   UNL     1       6.263   4.001  14.913  0.00  0.00    +0.000 A 
ATOM      8  C   UNL     1       5.007   3.615  15.356  0.00  0.00    +0.000 A 
ATOM      9  C   UNL     1       4.409   4.303  16.411  0.00  0.00    +0.000 A 
ATOM     10  C   UNL     1       5.054   5.384  17.053  0.00  0.00    +0.000 A 
BRANCH   5  15
ATOM     11  C   UNL     1       8.627   9.814  18.196  0.00  0.00    +0.000 C 
ATOM     12  C   UNL     1       8.182   8.416  18.054  0.00  0.00    +0.000 A 
ATOM     13  N   UNL     1       8.505   7.458  18.931  0.00  0.00    +0.000 NA
ATOM     14  O   UNL     1       7.830   6.339  18.441  0.00  0.00    +0.000 OA
ATOM     15  C   UNL     1       7.167   6.743  17.314  0.00  0.00    +0.000 A 
ATOM     16  N   UNL     1       7.384   8.004  17.017  0.00  0.00    +0.000 NA
ENDBRANCH   5  15
ENDBRANCH   1  10
BRANCH   3  17
ATOM     17  C   UNL     1       2.511   7.693  18.742  0.00  0.00    +0.000 A 
ATOM     18  C   UNL     1       2.203   7.228  20.022  0.00  0.00    +0.000 A 
ATOM     19  C   UNL     1       1.293   7.907  20.837  0.00  0.00    +0.000 A 
ATOM     20  C   UNL     1       0.668   9.062  20.378  0.00  0.00    +0.000 A 
ATOM     21  C   UNL     1       0.952   9.538  19.095  0.00  0.00    +0.000 A 
ATOM     22  C   UNL     1       1.880   8.861  18.286  0.00  0.00    +0.000 A 
BRANCH  21  23
ATOM     23  C   UNL     1       0.308  10.777  18.580  0.00  0.00    +0.000 C 
ATOM     24  N   UNL     1       1.118  11.862  18.370  0.00  0.00    +0.000 N 
ATOM     25  O   UNL     1      -0.897  10.836  18.373  0.00  0.00    +0.000 OA
ATOM     26  H   UNL     1       2.056  11.924  18.735  0.00  0.00    +0.000 HD
ATOM     27  H   UNL     1       0.667  12.724  18.087  0.00  0.00    +0.000 HD
ENDBRANCH  21  23
ENDBRANCH   3  17
TORSDOF 4
ENDMDL
