MODEL 1
REMARK VINA RESULT:      -9.0      0.000      0.000
REMARK  Name = 
REMARK  5 active torsions:
REMARK  status: ('A' for Active; 'I' for Inactive)
REMARK    1  A    between atoms: C_2  and  C_4
REMARK    2  A    between atoms: C_8  and  C_9
REMARK    3  A    between atoms: C_9  and  C_10
REMARK    4  A    between atoms: C_13  and  C_14
REMARK    5  A    between atoms: N_20  and  C_21
REMARK                            x       y       z     vdW  Elec       q    Type
REMARK                         _______ _______ _______ _____ _____    ______ ____
ROOT
ATOM      1  C   UNL     1       2.551   7.945  18.390  0.00  0.00    +0.000 A 
ATOM      2  N   UNL     1       2.144   7.519  19.595  0.00  0.00    +0.000 NA
ATOM      3  O   UNL     1       2.394   6.145  19.549  0.00  0.00    +0.000 OA
ATOM      4  C   UNL     1       2.954   5.890  18.330  0.00  0.00    +0.000 A 
ATOM      5  N   UNL     1       3.115   6.971  17.600  0.00  0.00    +0.000 NA
ENDROOT
BRANCH   4   6
ATOM      6  C   UNL     1       3.217   4.465  17.938  0.00  0.00    +0.000 C 
ATOM      7  C   UNL     1       4.042   3.772  19.063  0.00  0.00    +0.000 C 
ATOM      8  C   UNL     1       5.463   4.359  19.214  0.00  0.00    +0.000 C 
ATOM      9  C   UNL     1       6.065   4.591  17.881  0.00  0.00    +0.000 A 
ATOM     10  N   UNL     1       7.365   4.896  17.656  0.00  0.00    +0.000 NA
ATOM     11  N   UNL     1       7.523   5.045  16.348  0.00  0.00    +0.000 NA
ATOM     12  N   UNL     1       6.329   4.832  15.746  0.00  0.00    +0.000 N 
ATOM     13  C   UNL     1       5.370   4.572  16.688  0.00  0.00    +0.000 A 
ATOM     14  C   UNL     1       3.915   4.307  16.548  0.00  0.00    +0.000 C 
BRANCH  12  15
ATOM     15  C   UNL     1       6.250   4.838  14.301  0.00  0.00    +0.000 C 
ATOM     16  C   UNL     1       5.866   3.474  13.715  0.00  0.00    +0.000 C 
ATOM     17  C   UNL     1       6.370   3.488  12.276  0.00  0.00    +0.000 C 
ATOM     18  C   UNL     1       7.404   4.607  12.188  0.00  0.00    +0.000 C 
ATOM     19  C   UNL     1       7.578   5.146  13.603  0.00  0.00    +0.000 C 
ENDBRANCH  12  15
ENDBRANCH   4   6
BRANCH   1  20
ATOM     20  C   UNL     1       2.444   9.361  17.950  0.00  0.00    +0.000 C 
BRANCH  20  25
ATOM     21  C   UNL     1      -1.290  10.172  18.146  0.00  0.00    +0.000 A 
ATOM     22  C   UNL     1      -1.394  10.699  19.436  0.00  0.00    +0.000 A 
ATOM     23  C   UNL     1      -0.252  10.842  20.222  0.00  0.00    +0.000 A 
ATOM     24  C   UNL     1       0.992  10.430  19.738  0.00  0.00    +0.000 A 
ATOM     25  C   UNL     1       1.110   9.865  18.458  0.00  0.00    +0.000 A 
ATOM     26  C   UNL     1      -0.044   9.751  17.663  0.00  0.00    +0.000 A 
BRANCH  21  28
ATOM     27  N   UNL     1      -2.351  10.405  15.964  0.00  0.00    +0.000 N 
ATOM     28  C   UNL     1      -2.483  10.018  17.269  0.00  0.00    +0.000 C 
ATOM     29  O   UNL     1      -3.528   9.533  17.680  0.00  0.00    +0.000 OA
ATOM     30  H   UNL     1      -3.134  10.205  15.354  0.00  0.00    +0.000 HD
ATOM     31  H   UNL     1      -1.454  10.573  15.536  0.00  0.00    +0.000 HD
ENDBRANCH  21  28
ENDBRANCH  20  25
ENDBRANCH   1  20
TORSDOF 5
ENDMDL
MODEL 2
REMARK VINA RESULT:      -8.8      1.730      2.198
REMARK  Name = 
REMARK  5 active torsions:
REMARK  status: ('A' for Active; 'I' for Inactive)
REMARK    1  A    between atoms: C_2  and  C_4
REMARK    2  A    between atoms: C_8  and  C_9
REMARK    3  A    between atoms: C_9  and  C_10
REMARK    4  A    between atoms: C_13  and  C_14
REMARK    5  A    between atoms: N_20  and  C_21
REMARK                            x       y       z     vdW  Elec       q    Type
REMARK                         _______ _______ _______ _____ _____    ______ ____
ROOT
ATOM      1  C   UNL     1       2.492   8.047  18.347  0.00  0.00    +0.000 A 
ATOM      2  N   UNL     1       2.080   7.672  19.567  0.00  0.00    +0.000 NA
ATOM      3  O   UNL     1       2.506   6.345  19.655  0.00  0.00    +0.000 OA
ATOM      4  C   UNL     1       3.159   6.066  18.489  0.00  0.00    +0.000 A 
ATOM      5  N   UNL     1       3.218   7.094  17.672  0.00  0.00    +0.000 NA
ENDROOT
BRANCH   4   6
ATOM      6  C   UNL     1       3.624   4.661  18.237  0.00  0.00    +0.000 C 
ATOM      7  C   UNL     1       4.656   4.262  19.334  0.00  0.00    +0.000 C 
ATOM      8  C   UNL     1       5.964   5.081  19.253  0.00  0.00    +0.000 C 
ATOM      9  C   UNL     1       6.391   5.225  17.842  0.00  0.00    +0.000 A 
ATOM     10  N   UNL     1       7.593   5.698  17.437  0.00  0.00    +0.000 NA
ATOM     11  N   UNL     1       7.601   5.695  16.112  0.00  0.00    +0.000 NA
ATOM     12  N   UNL     1       6.410   5.218  15.678  0.00  0.00    +0.000 N 
ATOM     13  C   UNL     1       5.601   4.938  16.747  0.00  0.00    +0.000 A 
ATOM     14  C   UNL     1       4.207   4.431  16.805  0.00  0.00    +0.000 C 
BRANCH  12  15
ATOM     15  C   UNL     1       6.198   5.019  14.261  0.00  0.00    +0.000 C 
ATOM     16  C   UNL     1       5.692   3.611  13.921  0.00  0.00    +0.000 C 
ATOM     17  C   UNL     1       6.060   3.383  12.459  0.00  0.00    +0.000 C 
ATOM     18  C   UNL     1       7.136   4.410  12.116  0.00  0.00    +0.000 C 
ATOM     19  C   UNL     1       7.468   5.136  13.414  0.00  0.00    +0.000 C 
ENDBRANCH  12  15
ENDBRANCH   4   6
BRANCH   1  20
ATOM     20  C   UNL     1       2.227   9.394  17.777  0.00  0.00    +0.000 C 
BRANCH  20  25
ATOM     21  C   UNL     1      -0.143  11.037  20.291  0.00  0.00    +0.000 A 
ATOM     22  C   UNL     1      -1.371  10.926  19.631  0.00  0.00    +0.000 A 
ATOM     23  C   UNL     1      -1.442  10.275  18.401  0.00  0.00    +0.000 A 
ATOM     24  C   UNL     1      -0.285   9.760  17.808  0.00  0.00    +0.000 A 
ATOM     25  C   UNL     1       0.962   9.895  18.440  0.00  0.00    +0.000 A 
ATOM     26  C   UNL     1       1.018  10.529  19.694  0.00  0.00    +0.000 A 
BRANCH  21  28
ATOM     27  N   UNL     1       0.061  13.074  21.612  0.00  0.00    +0.000 N 
ATOM     28  C   UNL     1      -0.028  11.710  21.613  0.00  0.00    +0.000 C 
ATOM     29  O   UNL     1      -0.050  11.080  22.662  0.00  0.00    +0.000 OA
ATOM     30  H   UNL     1       0.040  13.527  22.517  0.00  0.00    +0.000 HD
ATOM     31  H   UNL     1      -0.163  13.632  20.803  0.00  0.00    +0.000 HD
ENDBRANCH  21  28
ENDBRANCH  20  25
ENDBRANCH   1  20
TORSDOF 5
ENDMDL
MODEL 3
REMARK VINA RESULT:      -8.7      2.085      2.780
REMARK  Name = 
REMARK  5 active torsions:
REMARK  status: ('A' for Active; 'I' for Inactive)
REMARK    1  A    between atoms: C_2  and  C_4
REMARK    2  A    between atoms: C_8  and  C_9
REMARK    3  A    between atoms: C_9  and  C_10
REMARK    4  A    between atoms: C_13  and  C_14
REMARK    5  A    between atoms: N_20  and  C_21
REMARK                            x       y       z     vdW  Elec       q    Type
REMARK                         _______ _______ _______ _____ _____    ______ ____
ROOT
ATOM      1  C   UNL     1       2.666   7.390  17.902  0.00  0.00    +0.000 A 
ATOM      2  N   UNL     1       1.674   6.490  17.825  0.00  0.00    +0.000 NA
ATOM      3  O   UNL     1       2.323   5.277  18.065  0.00  0.00    +0.000 OA
ATOM      4  C   UNL     1       3.636   5.575  18.291  0.00  0.00    +0.000 A 
ATOM      5  N   UNL     1       3.888   6.865  18.249  0.00  0.00    +0.000 NA
ENDROOT
BRANCH   4   6
ATOM      6  C   UNL     1       4.617   4.450  18.455  0.00  0.00    +0.000 C 
ATOM      7  C   UNL     1       5.848   4.962  19.263  0.00  0.00    +0.000 C 
ATOM      8  C   UNL     1       6.665   6.028  18.499  0.00  0.00    +0.000 C 
ATOM      9  C   UNL     1       6.814   5.637  17.079  0.00  0.00    +0.000 A 
ATOM     10  N   UNL     1       7.644   6.234  16.190  0.00  0.00    +0.000 NA
ATOM     11  N   UNL     1       7.489   5.625  15.023  0.00  0.00    +0.000 NA
ATOM     12  N   UNL     1       6.568   4.643  15.172  0.00  0.00    +0.000 N 
ATOM     13  C   UNL     1       6.092   4.639  16.456  0.00  0.00    +0.000 A 
ATOM     14  C   UNL     1       5.061   3.792  17.109  0.00  0.00    +0.000 C 
BRANCH  12  15
ATOM     15  C   UNL     1       6.287   3.758  14.062  0.00  0.00    +0.000 C 
ATOM     16  C   UNL     1       7.217   3.984  12.864  0.00  0.00    +0.000 C 
ATOM     17  C   UNL     1       6.470   3.432  11.654  0.00  0.00    +0.000 C 
ATOM     18  C   UNL     1       5.002   3.331  12.058  0.00  0.00    +0.000 C 
ATOM     19  C   UNL     1       4.895   3.941  13.451  0.00  0.00    +0.000 C 
ENDBRANCH  12  15
ENDBRANCH   4   6
BRANCH   1  20
ATOM     20  C   UNL     1       2.463   8.845  17.673  0.00  0.00    +0.000 C 
BRANCH  20  25
ATOM     21  C   UNL     1       0.425   9.563  20.831  0.00  0.00    +0.000 A 
ATOM     22  C   UNL     1      -0.727  10.145  20.293  0.00  0.00    +0.000 A 
ATOM     23  C   UNL     1      -0.869  10.256  18.911  0.00  0.00    +0.000 A 
ATOM     24  C   UNL     1       0.150   9.819  18.061  0.00  0.00    +0.000 A 
ATOM     25  C   UNL     1       1.330   9.266  18.584  0.00  0.00    +0.000 A 
ATOM     26  C   UNL     1       1.451   9.132  19.979  0.00  0.00    +0.000 A 
BRANCH  21  28
ATOM     27  N   UNL     1      -0.523   9.285  23.058  0.00  0.00    +0.000 N 
ATOM     28  C   UNL     1       0.607   9.411  22.299  0.00  0.00    +0.000 C 
ATOM     29  O   UNL     1       1.718   9.361  22.810  0.00  0.00    +0.000 OA
ATOM     30  H   UNL     1      -0.385   9.084  24.041  0.00  0.00    +0.000 HD
ATOM     31  H   UNL     1      -1.425   9.076  22.658  0.00  0.00    +0.000 HD
ENDBRANCH  21  28
ENDBRANCH  20  25
ENDBRANCH   1  20
TORSDOF 5
ENDMDL
MODEL 4
REMARK VINA RESULT:      -8.6      1.973      2.461
REMARK  Name = 
REMARK  5 active torsions:
REMARK  status: ('A' for Active; 'I' for Inactive)
REMARK    1  A    between atoms: C_2  and  C_4
REMARK    2  A    between atoms: C_8  and  C_9
REMARK    3  A    between atoms: C_9  and  C_10
REMARK    4  A    between atoms: C_13  and  C_14
REMARK    5  A    between atoms: N_20  and  C_21
REMARK                            x       y       z     vdW  Elec       q    Type
REMARK                         _______ _______ _______ _____ _____    ______ ____
ROOT
ATOM      1  C   UNL     1       2.443   7.727  18.439  0.00  0.00    +0.000 A 
ATOM      2  N   UNL     1       2.176   7.332  19.692  0.00  0.00    +0.000 NA
ATOM      3  O   UNL     1       2.677   6.029  19.731  0.00  0.00    +0.000 OA
ATOM      4  C   UNL     1       3.222   5.783  18.503  0.00  0.00    +0.000 A 
ATOM      5  N   UNL     1       3.145   6.813  17.689  0.00  0.00    +0.000 NA
ENDROOT
BRANCH   4   6
ATOM      6  C   UNL     1       3.732   4.404  18.199  0.00  0.00    +0.000 C 
ATOM      7  C   UNL     1       4.794   4.007  19.268  0.00  0.00    +0.000 C 
ATOM      8  C   UNL     1       6.071   4.874  19.194  0.00  0.00    +0.000 C 
ATOM      9  C   UNL     1       6.471   5.078  17.783  0.00  0.00    +0.000 A 
ATOM     10  N   UNL     1       7.649   5.606  17.376  0.00  0.00    +0.000 NA
ATOM     11  N   UNL     1       7.637   5.645  16.051  0.00  0.00    +0.000 NA
ATOM     12  N   UNL     1       6.456   5.141  15.619  0.00  0.00    +0.000 N 
ATOM     13  C   UNL     1       5.675   4.798  16.690  0.00  0.00    +0.000 A 
ATOM     14  C   UNL     1       4.300   4.241  16.752  0.00  0.00    +0.000 C 
BRANCH  12  15
ATOM     15  C   UNL     1       6.229   4.979  14.199  0.00  0.00    +0.000 C 
ATOM     16  C   UNL     1       5.687   3.592  13.831  0.00  0.00    +0.000 C 
ATOM     17  C   UNL     1       6.039   3.390  12.361  0.00  0.00    +0.000 C 
ATOM     18  C   UNL     1       7.137   4.398  12.034  0.00  0.00    +0.000 C 
ATOM     19  C   UNL     1       7.495   5.086  13.346  0.00  0.00    +0.000 C 
ENDBRANCH  12  15
ENDBRANCH   4   6
BRANCH   1  20
ATOM     20  C   UNL     1       2.052   9.058  17.905  0.00  0.00    +0.000 C 
BRANCH  20  25
ATOM     21  C   UNL     1       0.122   9.922  21.093  0.00  0.00    +0.000 A 
ATOM     22  C   UNL     1      -0.939  10.676  20.582  0.00  0.00    +0.000 A 
ATOM     23  C   UNL     1      -1.061  10.859  19.206  0.00  0.00    +0.000 A 
ATOM     24  C   UNL     1      -0.108  10.321  18.336  0.00  0.00    +0.000 A 
ATOM     25  C   UNL     1       0.985   9.593  18.834  0.00  0.00    +0.000 A 
ATOM     26  C   UNL     1       1.082   9.390  20.222  0.00  0.00    +0.000 A 
BRANCH  21  28
ATOM     27  N   UNL     1      -0.860   9.450  23.272  0.00  0.00    +0.000 N 
ATOM     28  C   UNL     1       0.278   9.689  22.555  0.00  0.00    +0.000 C 
ATOM     29  O   UNL     1       1.378   9.673  23.091  0.00  0.00    +0.000 OA
ATOM     30  H   UNL     1      -0.734   9.196  24.245  0.00  0.00    +0.000 HD
ATOM     31  H   UNL     1      -1.738   9.213  22.836  0.00  0.00    +0.000 HD
ENDBRANCH  21  28
ENDBRANCH  20  25
ENDBRANCH   1  20
TORSDOF 5
ENDMDL
MODEL 5
REMARK VINA RESULT:      -8.4      1.257      1.584
REMARK  Name = 
REMARK  5 active torsions:
REMARK  status: ('A' for Active; 'I' for Inactive)
REMARK    1  A    between atoms: C_2  and  C_4
REMARK    2  A    between atoms: C_8  and  C_9
REMARK    3  A    between atoms: C_9  and  C_10
REMARK    4  A    between atoms: C_13  and  C_14
REMARK    5  A    between atoms: N_20  and  C_21
REMARK                            x       y       z     vdW  Elec       q    Type
REMARK                         _______ _______ _______ _____ _____    ______ ____
ROOT
ATOM      1  C   UNL     1       2.709   7.453  17.854  0.00  0.00    +0.000 A 
ATOM      2  N   UNL     1       1.701   6.579  17.724  0.00  0.00    +0.000 NA
ATOM      3  O   UNL     1       2.315   5.346  17.957  0.00  0.00    +0.000 OA
ATOM      4  C   UNL     1       3.626   5.608  18.232  0.00  0.00    +0.000 A 
ATOM      5  N   UNL     1       3.907   6.892  18.227  0.00  0.00    +0.000 NA
ENDROOT
BRANCH   4   6
ATOM      6  C   UNL     1       4.576   4.458  18.400  0.00  0.00    +0.000 C 
ATOM      7  C   UNL     1       5.810   4.933  19.225  0.00  0.00    +0.000 C 
ATOM      8  C   UNL     1       6.663   5.981  18.476  0.00  0.00    +0.000 C 
ATOM      9  C   UNL     1       6.818   5.594  17.055  0.00  0.00    +0.000 A 
ATOM     10  N   UNL     1       7.672   6.174  16.179  0.00  0.00    +0.000 NA
ATOM     11  N   UNL     1       7.515   5.574  15.007  0.00  0.00    +0.000 NA
ATOM     12  N   UNL     1       6.567   4.616  15.140  0.00  0.00    +0.000 N 
ATOM     13  C   UNL     1       6.077   4.618  16.419  0.00  0.00    +0.000 A 
ATOM     14  C   UNL     1       5.018   3.795  17.056  0.00  0.00    +0.000 C 
BRANCH  12  15
ATOM     15  C   UNL     1       6.276   3.743  14.023  0.00  0.00    +0.000 C 
ATOM     16  C   UNL     1       7.212   3.964  12.829  0.00  0.00    +0.000 C 
ATOM     17  C   UNL     1       6.460   3.433  11.613  0.00  0.00    +0.000 C 
ATOM     18  C   UNL     1       4.990   3.352  12.013  0.00  0.00    +0.000 C 
ATOM     19  C   UNL     1       4.889   3.952  13.409  0.00  0.00    +0.000 C 
ENDBRANCH  12  15
ENDBRANCH   4   6
BRANCH   1  20
ATOM     20  C   UNL     1       2.547   8.917  17.652  0.00  0.00    +0.000 C 
BRANCH  20  25
ATOM     21  C   UNL     1      -0.754  10.454  18.829  0.00  0.00    +0.000 A 
ATOM     22  C   UNL     1      -0.786  10.054  20.167  0.00  0.00    +0.000 A 
ATOM     23  C   UNL     1       0.281   9.335  20.704  0.00  0.00    +0.000 A 
ATOM     24  C   UNL     1       1.369   8.984  19.900  0.00  0.00    +0.000 A 
ATOM     25  C   UNL     1       1.402   9.345  18.544  0.00  0.00    +0.000 A 
ATOM     26  C   UNL     1       0.333  10.095  18.020  0.00  0.00    +0.000 A 
BRANCH  21  28
ATOM     27  N   UNL     1      -1.520  12.265  17.390  0.00  0.00    +0.000 N 
ATOM     28  C   UNL     1      -1.865  11.237  18.223  0.00  0.00    +0.000 C 
ATOM     29  O   UNL     1      -3.038  10.954  18.425  0.00  0.00    +0.000 OA
ATOM     30  H   UNL     1      -2.281  12.727  16.908  0.00  0.00    +0.000 HD
ATOM     31  H   UNL     1      -0.592  12.369  17.011  0.00  0.00    +0.000 HD
ENDBRANCH  21  28
ENDBRANCH  20  25
ENDBRANCH   1  20
TORSDOF 5
ENDMDL
MODEL 6
REMARK VINA RESULT:      -8.2      2.802      3.893
REMARK  Name = 
REMARK  5 active torsions:
REMARK  status: ('A' for Active; 'I' for Inactive)
REMARK    1  A    between atoms: C_2  and  C_4
REMARK    2  A    between atoms: C_8  and  C_9
REMARK    3  A    between atoms: C_9  and  C_10
REMARK    4  A    between atoms: C_13  and  C_14
REMARK    5  A    between atoms: N_20  and  C_21
REMARK                            x       y       z     vdW  Elec       q    Type
REMARK                         _______ _______ _______ _____ _____    ______ ____
ROOT
ATOM      1  C   UNL     1       3.728   4.186  19.775  0.00  0.00    +0.000 A 
ATOM      2  N   UNL     1       4.174   2.920  19.781  0.00  0.00    +0.000 NA
ATOM      3  O   UNL     1       5.488   3.042  19.324  0.00  0.00    +0.000 OA
ATOM      4  C   UNL     1       5.709   4.373  19.118  0.00  0.00    +0.000 A 
ATOM      5  N   UNL     1       4.673   5.122  19.426  0.00  0.00    +0.000 NA
ENDROOT
BRANCH   4   6
ATOM      6  C   UNL     1       7.006   4.806  18.499  0.00  0.00    +0.000 C 
ATOM      7  C   UNL     1       7.140   6.353  18.629  0.00  0.00    +0.000 C 
ATOM      8  C   UNL     1       6.086   7.119  17.798  0.00  0.00    +0.000 C 
ATOM      9  C   UNL     1       5.932   6.491  16.465  0.00  0.00    +0.000 A 
ATOM     10  N   UNL     1       5.253   7.031  15.425  0.00  0.00    +0.000 NA
ATOM     11  N   UNL     1       5.321   6.175  14.414  0.00  0.00    +0.000 NA
ATOM     12  N   UNL     1       6.042   5.100  14.811  0.00  0.00    +0.000 N 
ATOM     13  C   UNL     1       6.422   5.248  16.118  0.00  0.00    +0.000 A 
ATOM     14  C   UNL     1       7.188   4.348  17.016  0.00  0.00    +0.000 C 
BRANCH  12  15
ATOM     15  C   UNL     1       6.349   4.058  13.855  0.00  0.00    +0.000 C 
ATOM     16  C   UNL     1       7.278   4.530  12.729  0.00  0.00    +0.000 C 
ATOM     17  C   UNL     1       7.044   3.566  11.571  0.00  0.00    +0.000 C 
ATOM     18  C   UNL     1       5.713   2.872  11.845  0.00  0.00    +0.000 C 
ATOM     19  C   UNL     1       5.132   3.530  13.091  0.00  0.00    +0.000 C 
ENDBRANCH  12  15
ENDBRANCH   4   6
BRANCH   1  20
ATOM     20  C   UNL     1       2.340   4.561  20.153  0.00  0.00    +0.000 C 
BRANCH  20  25
ATOM     21  C   UNL     1       1.577   8.310  20.207  0.00  0.00    +0.000 A 
ATOM     22  C   UNL     1       1.891   8.677  18.896  0.00  0.00    +0.000 A 
ATOM     23  C   UNL     1       2.298   7.708  17.980  0.00  0.00    +0.000 A 
ATOM     24  C   UNL     1       2.424   6.374  18.377  0.00  0.00    +0.000 A 
ATOM     25  C   UNL     1       2.148   5.992  19.700  0.00  0.00    +0.000 A 
ATOM     26  C   UNL     1       1.711   6.973  20.608  0.00  0.00    +0.000 A 
BRANCH  21  28
ATOM     27  N   UNL     1       1.622   9.194  22.476  0.00  0.00    +0.000 N 
ATOM     28  C   UNL     1       1.123   9.312  21.209  0.00  0.00    +0.000 C 
ATOM     29  O   UNL     1       0.367  10.226  20.911  0.00  0.00    +0.000 OA
ATOM     30  H   UNL     1       1.384   9.936  23.124  0.00  0.00    +0.000 HD
ATOM     31  H   UNL     1       2.420   8.619  22.695  0.00  0.00    +0.000 HD
ENDBRANCH  21  28
ENDBRANCH  20  25
ENDBRANCH   1  20
TORSDOF 5
ENDMDL
MODEL 7
REMARK VINA RESULT:      -8.1      6.991     10.143
REMARK  Name = 
REMARK  5 active torsions:
REMARK  status: ('A' for Active; 'I' for Inactive)
REMARK    1  A    between atoms: C_2  and  C_4
REMARK    2  A    between atoms: C_8  and  C_9
REMARK    3  A    between atoms: C_9  and  C_10
REMARK    4  A    between atoms: C_13  and  C_14
REMARK    5  A    between atoms: N_20  and  C_21
REMARK                            x       y       z     vdW  Elec       q    Type
REMARK                         _______ _______ _______ _____ _____    ______ ____
ROOT
ATOM      1  C   UNL     1      -3.469  11.008  17.475  0.00  0.00    +0.000 A 
ATOM      2  N   UNL     1      -3.139   9.711  17.387  0.00  0.00    +0.000 NA
ATOM      3  O   UNL     1      -1.842   9.675  17.904  0.00  0.00    +0.000 OA
ATOM      4  C   UNL     1      -1.535  10.952  18.278  0.00  0.00    +0.000 A 
ATOM      5  N   UNL     1      -2.521  11.799  18.078  0.00  0.00    +0.000 NA
ENDROOT
BRANCH   4   6
ATOM      6  C   UNL     1      -0.145  11.253  18.757  0.00  0.00    +0.000 C 
ATOM      7  C   UNL     1       0.476   9.959  19.364  0.00  0.00    +0.000 C 
ATOM      8  C   UNL     1      -0.243   9.496  20.651  0.00  0.00    +0.000 C 
ATOM      9  C   UNL     1      -0.540  10.660  21.518  0.00  0.00    +0.000 A 
ATOM     10  N   UNL     1      -0.968  10.586  22.800  0.00  0.00    +0.000 NA
ATOM     11  N   UNL     1      -1.141  11.825  23.238  0.00  0.00    +0.000 NA
ATOM     12  N   UNL     1      -0.820  12.682  22.239  0.00  0.00    +0.000 N 
ATOM     13  C   UNL     1      -0.464  11.979  21.119  0.00  0.00    +0.000 A 
ATOM     14  C   UNL     1      -0.063  12.444  19.766  0.00  0.00    +0.000 C 
BRANCH  12  15
ATOM     15  C   UNL     1      -0.829  14.106  22.493  0.00  0.00    +0.000 C 
ATOM     16  C   UNL     1      -1.239  14.458  23.928  0.00  0.00    +0.000 C 
ATOM     17  C   UNL     1      -1.740  15.897  23.872  0.00  0.00    +0.000 C 
ATOM     18  C   UNL     1      -2.048  16.193  22.407  0.00  0.00    +0.000 C 
ATOM     19  C   UNL     1      -1.841  14.887  21.650  0.00  0.00    +0.000 C 
ENDBRANCH  12  15
ENDBRANCH   4   6
BRANCH   1  20
ATOM     20  C   UNL     1      -4.769  11.549  16.999  0.00  0.00    +0.000 C 
BRANCH  20  25
ATOM     21  C   UNL     1      -7.006  10.641  19.967  0.00  0.00    +0.000 A 
ATOM     22  C   UNL     1      -7.203  11.891  20.561  0.00  0.00    +0.000 A 
ATOM     23  C   UNL     1      -6.660  13.033  19.974  0.00  0.00    +0.000 A 
ATOM     24  C   UNL     1      -5.890  12.929  18.812  0.00  0.00    +0.000 A 
ATOM     25  C   UNL     1      -5.651  11.677  18.222  0.00  0.00    +0.000 A 
ATOM     26  C   UNL     1      -6.227  10.536  18.807  0.00  0.00    +0.000 A 
BRANCH  21  28
ATOM     27  N   UNL     1      -7.743   8.333  19.716  0.00  0.00    +0.000 N 
ATOM     28  C   UNL     1      -7.583   9.401  20.554  0.00  0.00    +0.000 C 
ATOM     29  O   UNL     1      -7.868   9.321  21.741  0.00  0.00    +0.000 OA
ATOM     30  H   UNL     1      -8.044   7.466  20.145  0.00  0.00    +0.000 HD
ATOM     31  H   UNL     1      -7.300   8.280  18.812  0.00  0.00    +0.000 HD
ENDBRANCH  21  28
ENDBRANCH  20  25
ENDBRANCH   1  20
TORSDOF 5
ENDMDL
MODEL 8
REMARK VINA RESULT:      -8.0      3.403      9.142
REMARK  Name = 
REMARK  5 active torsions:
REMARK  status: ('A' for Active; 'I' for Inactive)
REMARK    1  A    between atoms: C_2  and  C_4
REMARK    2  A    between atoms: C_8  and  C_9
REMARK    3  A    between atoms: C_9  and  C_10
REMARK    4  A    between atoms: C_13  and  C_14
REMARK    5  A    between atoms: N_20  and  C_21
REMARK                            x       y       z     vdW  Elec       q    Type
REMARK                         _______ _______ _______ _____ _____    ______ ____
ROOT
ATOM      1  C   UNL     1       1.105   8.541  21.197  0.00  0.00    +0.000 A 
ATOM      2  N   UNL     1       1.507   9.135  22.331  0.00  0.00    +0.000 NA
ATOM      3  O   UNL     1       1.415  10.496  22.029  0.00  0.00    +0.000 OA
ATOM      4  C   UNL     1       0.939  10.581  20.752  0.00  0.00    +0.000 A 
ATOM      5  N   UNL     1       0.688   9.407  20.215  0.00  0.00    +0.000 NA
ENDROOT
BRANCH   4   6
ATOM      6  C   UNL     1       0.854  11.930  20.099  0.00  0.00    +0.000 C 
ATOM      7  C   UNL     1       0.301  12.960  21.129  0.00  0.00    +0.000 C 
ATOM      8  C   UNL     1      -1.164  12.676  21.533  0.00  0.00    +0.000 C 
ATOM      9  C   UNL     1      -1.962  12.309  20.341  0.00  0.00    +0.000 A 
ATOM     10  N   UNL     1      -3.312  12.207  20.310  0.00  0.00    +0.000 NA
ATOM     11  N   UNL     1      -3.659  11.844  19.083  0.00  0.00    +0.000 NA
ATOM     12  N   UNL     1      -2.535  11.722  18.338  0.00  0.00    +0.000 N 
ATOM     13  C   UNL     1      -1.433  11.978  19.110  0.00  0.00    +0.000 A 
ATOM     14  C   UNL     1       0.015  11.946  18.780  0.00  0.00    +0.000 C 
BRANCH  12  15
ATOM     15  C   UNL     1      -2.646  11.430  16.925  0.00  0.00    +0.000 C 
ATOM     16  C   UNL     1      -4.098  11.377  16.435  0.00  0.00    +0.000 C 
ATOM     17  C   UNL     1      -4.072  10.537  15.163  0.00  0.00    +0.000 C 
ATOM     18  C   UNL     1      -2.762   9.756  15.184  0.00  0.00    +0.000 C 
ATOM     19  C   UNL     1      -2.102  10.056  16.525  0.00  0.00    +0.000 C 
ENDBRANCH  12  15
ENDBRANCH   4   6
BRANCH   1  20
ATOM     20  C   UNL     1       1.072   7.065  21.021  0.00  0.00    +0.000 C 
BRANCH  20  25
ATOM     21  C   UNL     1       3.670   5.190  18.929  0.00  0.00    +0.000 A 
ATOM     22  C   UNL     1       3.885   6.088  17.880  0.00  0.00    +0.000 A 
ATOM     23  C   UNL     1       3.234   7.321  17.876  0.00  0.00    +0.000 A 
ATOM     24  C   UNL     1       2.340   7.648  18.899  0.00  0.00    +0.000 A 
ATOM     25  C   UNL     1       2.083   6.743  19.942  0.00  0.00    +0.000 A 
ATOM     26  C   UNL     1       2.767   5.514  19.951  0.00  0.00    +0.000 A 
BRANCH  21  28
ATOM     27  N   UNL     1       5.722   3.885  19.077  0.00  0.00    +0.000 N 
ATOM     28  C   UNL     1       4.359   3.872  18.979  0.00  0.00    +0.000 C 
ATOM     29  O   UNL     1       3.737   2.818  18.973  0.00  0.00    +0.000 OA
ATOM     30  H   UNL     1       6.173   2.988  19.209  0.00  0.00    +0.000 HD
ATOM     31  H   UNL     1       6.241   4.712  19.330  0.00  0.00    +0.000 HD
ENDBRANCH  21  28
ENDBRANCH  20  25
ENDBRANCH   1  20
TORSDOF 5
ENDMDL
MODEL 9
REMARK VINA RESULT:      -8.0      1.963      2.357
REMARK  Name = 
REMARK  5 active torsions:
REMARK  status: ('A' for Active; 'I' for Inactive)
REMARK    1  A    between atoms: C_2  and  C_4
REMARK    2  A    between atoms: C_8  and  C_9
REMARK    3  A    between atoms: C_9  and  C_10
REMARK    4  A    between atoms: C_13  and  C_14
REMARK    5  A    between atoms: N_20  and  C_21
REMARK                            x       y       z     vdW  Elec       q    Type
REMARK                         _______ _______ _______ _____ _____    ______ ____
ROOT
ATOM      1  C   UNL     1       2.083   7.875  18.260  0.00  0.00    +0.000 A 
ATOM      2  N   UNL     1       2.201   7.721  19.587  0.00  0.00    +0.000 NA
ATOM      3  O   UNL     1       2.857   6.494  19.710  0.00  0.00    +0.000 OA
ATOM      4  C   UNL     1       3.093   6.048  18.441  0.00  0.00    +0.000 A 
ATOM      5  N   UNL     1       2.678   6.884  17.515  0.00  0.00    +0.000 NA
ENDROOT
BRANCH   4   6
ATOM      6  C   UNL     1       3.677   4.679  18.251  0.00  0.00    +0.000 C 
ATOM      7  C   UNL     1       4.743   4.422  19.359  0.00  0.00    +0.000 C 
ATOM      8  C   UNL     1       5.975   5.347  19.232  0.00  0.00    +0.000 C 
ATOM      9  C   UNL     1       6.384   5.462  17.814  0.00  0.00    +0.000 A 
ATOM     10  N   UNL     1       7.540   6.018  17.380  0.00  0.00    +0.000 NA
ATOM     11  N   UNL     1       7.545   5.954  16.056  0.00  0.00    +0.000 NA
ATOM     12  N   UNL     1       6.399   5.356  15.651  0.00  0.00    +0.000 N 
ATOM     13  C   UNL     1       5.620   5.057  16.738  0.00  0.00    +0.000 A 
ATOM     14  C   UNL     1       4.275   4.434  16.828  0.00  0.00    +0.000 C 
BRANCH  12  15
ATOM     15  C   UNL     1       6.201   5.074  14.246  0.00  0.00    +0.000 C 
ATOM     16  C   UNL     1       5.701   3.648  13.985  0.00  0.00    +0.000 C 
ATOM     17  C   UNL     1       6.084   3.336  12.542  0.00  0.00    +0.000 C 
ATOM     18  C   UNL     1       7.163   4.342  12.151  0.00  0.00    +0.000 C 
ATOM     19  C   UNL     1       7.481   5.143  13.407  0.00  0.00    +0.000 C 
ENDBRANCH  12  15
ENDBRANCH   4   6
BRANCH   1  20
ATOM     20  C   UNL     1       1.401   9.038  17.633  0.00  0.00    +0.000 C 
BRANCH  20  25
ATOM     21  C   UNL     1       0.463  10.723  20.938  0.00  0.00    +0.000 A 
ATOM     22  C   UNL     1       1.065  11.976  20.794  0.00  0.00    +0.000 A 
ATOM     23  C   UNL     1       1.726  12.297  19.609  0.00  0.00    +0.000 A 
ATOM     24  C   UNL     1       1.819  11.358  18.578  0.00  0.00    +0.000 A 
ATOM     25  C   UNL     1       1.253  10.080  18.720  0.00  0.00    +0.000 A 
ATOM     26  C   UNL     1       0.564   9.778  19.908  0.00  0.00    +0.000 A 
BRANCH  21  28
ATOM     27  N   UNL     1       0.242   9.311  22.912  0.00  0.00    +0.000 N 
ATOM     28  C   UNL     1      -0.266  10.348  22.180  0.00  0.00    +0.000 C 
ATOM     29  O   UNL     1      -1.256  10.960  22.557  0.00  0.00    +0.000 OA
ATOM     30  H   UNL     1      -0.204   9.128  23.803  0.00  0.00    +0.000 HD
ATOM     31  H   UNL     1       1.173   8.951  22.771  0.00  0.00    +0.000 HD
ENDBRANCH  21  28
ENDBRANCH  20  25
ENDBRANCH   1  20
TORSDOF 5
ENDMDL
