MODEL 1
REMARK VINA RESULT:      -8.3      0.000      0.000
REMARK  Name = 
REMARK  6 active torsions:
REMARK  status: ('A' for Active; 'I' for Inactive)
REMARK    1  A    between atoms: C_1  and  C_2
REMARK    2  A    between atoms: C_4  and  C_5
REMARK    3  A    between atoms: N_7  and  C_8
REMARK    4  A    between atoms: C_10  and  C_11
REMARK    5  A    between atoms: N_13  and  C_14
REMARK    6  A    between atoms: C_14  and  C_15
REMARK                            x       y       z     vdW  Elec       q    Type
REMARK                         _______ _______ _______ _____ _____    ______ ____
ROOT
ATOM      1  C   UNL     1       2.515   8.083  17.928  0.00  0.00    +0.000 C 
ATOM      2  O   UNL     1       1.754   7.210  17.550  0.00  0.00    +0.000 OA
ATOM      3  N   UNL     1       3.947   7.947  17.793  0.00  0.00    +0.000 N 
ATOM      4  H   UNL     1       4.554   8.665  18.165  0.00  0.00    +0.000 HD
ENDROOT
BRANCH   1   8
ATOM      5  C   UNL     1       1.939  13.040  18.000  0.00  0.00    +0.000 C 
ATOM      6  C   UNL     1       1.714  11.672  18.570  0.00  0.00    +0.000 A 
ATOM      7  C   UNL     1       2.213  10.537  17.958  0.00  0.00    +0.000 A 
ATOM      8  C   UNL     1       2.009   9.309  18.592  0.00  0.00    +0.000 A 
ATOM      9  C   UNL     1       1.290   9.224  19.818  0.00  0.00    +0.000 A 
ATOM     10  C   UNL     1       1.051   8.039  20.569  0.00  0.00    +0.000 A 
ATOM     11  C   UNL     1       0.322   8.068  21.757  0.00  0.00    +0.000 A 
ATOM     12  C   UNL     1      -0.179   9.276  22.205  0.00  0.00    +0.000 A 
ATOM     13  F   UNL     1      -0.886   9.316  23.342  0.00  0.00    +0.000 F 
ATOM     14  C   UNL     1       0.053  10.446  21.498  0.00  0.00    +0.000 A 
ATOM     15  C   UNL     1       0.790  10.441  20.324  0.00  0.00    +0.000 A 
ATOM     16  N   UNL     1       1.010  11.617  19.719  0.00  0.00    +0.000 NA
ENDBRANCH   1   8
BRANCH   3  17
ATOM     17  C   UNL     1       4.543   6.805  17.251  0.00  0.00    +0.000 A 
ATOM     18  C   UNL     1       4.928   6.600  15.942  0.00  0.00    +0.000 A 
ATOM     19  C   UNL     1       5.403   5.273  15.877  0.00  0.00    +0.000 A 
ATOM     20  C   UNL     1       5.891   4.545  14.680  0.00  0.00    +0.000 C 
ATOM     21  N   UNL     1       5.351   4.677  17.068  0.00  0.00    +0.000 NA
ATOM     22  N   UNL     1       4.859   5.625  17.898  0.00  0.00    +0.000 N 
BRANCH  22  23
ATOM     23  C   UNL     1       4.569   5.247  19.277  0.00  0.00    +0.000 C 
BRANCH  23  24
ATOM     24  C   UNL     1       3.221   4.585  19.426  0.00  0.00    +0.000 A 
ATOM     25  C   UNL     1       2.502   4.691  20.627  0.00  0.00    +0.000 A 
ATOM     26  C   UNL     1       1.247   4.091  20.756  0.00  0.00    +0.000 A 
ATOM     27  C   UNL     1       0.690   3.389  19.688  0.00  0.00    +0.000 A 
ATOM     28  C   UNL     1       1.379   3.303  18.481  0.00  0.00    +0.000 A 
ATOM     29  C   UNL     1       2.631   3.904  18.349  0.00  0.00    +0.000 A 
ENDBRANCH  23  24
ENDBRANCH  22  23
ENDBRANCH   3  17
TORSDOF 4
ENDMDL
MODEL 2
REMARK VINA RESULT:      -8.3      3.576      7.658
REMARK  Name = 
REMARK  6 active torsions:
REMARK  status: ('A' for Active; 'I' for Inactive)
REMARK    1  A    between atoms: C_1  and  C_2
REMARK    2  A    between atoms: C_4  and  C_5
REMARK    3  A    between atoms: N_7  and  C_8
REMARK    4  A    between atoms: C_10  and  C_11
REMARK    5  A    between atoms: N_13  and  C_14
REMARK    6  A    between atoms: C_14  and  C_15
REMARK                            x       y       z     vdW  Elec       q    Type
REMARK                         _______ _______ _______ _____ _____    ______ ____
ROOT
ATOM      1  C   UNL     1       2.209   7.580  18.858  0.00  0.00    +0.000 C 
ATOM      2  O   UNL     1       2.213   7.895  20.035  0.00  0.00    +0.000 OA
ATOM      3  N   UNL     1       1.898   8.538  17.822  0.00  0.00    +0.000 N 
ATOM      4  H   UNL     1       1.850   8.233  16.859  0.00  0.00    +0.000 HD
ENDROOT
BRANCH   1   8
ATOM      5  C   UNL     1       0.945   2.752  18.839  0.00  0.00    +0.000 C 
ATOM      6  C   UNL     1       1.816   3.895  18.412  0.00  0.00    +0.000 A 
ATOM      7  C   UNL     1       1.576   5.190  18.833  0.00  0.00    +0.000 A 
ATOM      8  C   UNL     1       2.475   6.183  18.436  0.00  0.00    +0.000 A 
ATOM      9  C   UNL     1       3.590   5.877  17.607  0.00  0.00    +0.000 A 
ATOM     10  C   UNL     1       4.587   6.795  17.170  0.00  0.00    +0.000 A 
ATOM     11  C   UNL     1       5.636   6.389  16.348  0.00  0.00    +0.000 A 
ATOM     12  C   UNL     1       5.701   5.068  15.948  0.00  0.00    +0.000 A 
ATOM     13  F   UNL     1       6.701   4.666  15.152  0.00  0.00    +0.000 F 
ATOM     14  C   UNL     1       4.749   4.152  16.371  0.00  0.00    +0.000 A 
ATOM     15  C   UNL     1       3.708   4.532  17.204  0.00  0.00    +0.000 A 
ATOM     16  N   UNL     1       2.852   3.582  17.608  0.00  0.00    +0.000 NA
ENDBRANCH   1   8
BRANCH   3  17
ATOM     17  C   UNL     1       1.559   9.864  18.105  0.00  0.00    +0.000 A 
ATOM     18  C   UNL     1       2.401  10.956  18.137  0.00  0.00    +0.000 A 
ATOM     19  C   UNL     1       1.608  12.050  18.544  0.00  0.00    +0.000 A 
ATOM     20  C   UNL     1       2.047  13.447  18.781  0.00  0.00    +0.000 C 
ATOM     21  N   UNL     1       0.339  11.689  18.733  0.00  0.00    +0.000 NA
ATOM     22  N   UNL     1       0.315  10.369  18.432  0.00  0.00    +0.000 N 
BRANCH  22  23
ATOM     23  C   UNL     1      -0.928   9.637  18.652  0.00  0.00    +0.000 C 
BRANCH  23  24
ATOM     24  C   UNL     1      -2.059  10.142  17.790  0.00  0.00    +0.000 A 
ATOM     25  C   UNL     1      -3.052  10.974  18.330  0.00  0.00    +0.000 A 
ATOM     26  C   UNL     1      -4.090  11.453  17.527  0.00  0.00    +0.000 A 
ATOM     27  C   UNL     1      -4.141  11.120  16.174  0.00  0.00    +0.000 A 
ATOM     28  C   UNL     1      -3.145  10.322  15.618  0.00  0.00    +0.000 A 
ATOM     29  C   UNL     1      -2.107   9.844  16.419  0.00  0.00    +0.000 A 
ENDBRANCH  23  24
ENDBRANCH  22  23
ENDBRANCH   3  17
TORSDOF 4
ENDMDL
MODEL 3
REMARK VINA RESULT:      -8.2      3.554      7.577
REMARK  Name = 
REMARK  6 active torsions:
REMARK  status: ('A' for Active; 'I' for Inactive)
REMARK    1  A    between atoms: C_1  and  C_2
REMARK    2  A    between atoms: C_4  and  C_5
REMARK    3  A    between atoms: N_7  and  C_8
REMARK    4  A    between atoms: C_10  and  C_11
REMARK    5  A    between atoms: N_13  and  C_14
REMARK    6  A    between atoms: C_14  and  C_15
REMARK                            x       y       z     vdW  Elec       q    Type
REMARK                         _______ _______ _______ _____ _____    ______ ____
ROOT
ATOM      1  C   UNL     1       1.975   8.090  19.603  0.00  0.00    +0.000 C 
ATOM      2  O   UNL     1       1.869   8.574  20.716  0.00  0.00    +0.000 OA
ATOM      3  N   UNL     1       1.779   8.884  18.412  0.00  0.00    +0.000 N 
ATOM      4  H   UNL     1       1.820   8.441  17.504  0.00  0.00    +0.000 HD
ENDROOT
BRANCH   1   8
ATOM      5  C   UNL     1       1.217   3.328  20.890  0.00  0.00    +0.000 C 
ATOM      6  C   UNL     1       1.844   4.384  20.029  0.00  0.00    +0.000 A 
ATOM      7  C   UNL     1       1.589   5.729  20.227  0.00  0.00    +0.000 A 
ATOM      8  C   UNL     1       2.263   6.647  19.418  0.00  0.00    +0.000 A 
ATOM      9  C   UNL     1       3.167   6.213  18.407  0.00  0.00    +0.000 A 
ATOM     10  C   UNL     1       3.933   7.053  17.550  0.00  0.00    +0.000 A 
ATOM     11  C   UNL     1       4.783   6.519  16.583  0.00  0.00    +0.000 A 
ATOM     12  C   UNL     1       4.875   5.146  16.457  0.00  0.00    +0.000 A 
ATOM     13  F   UNL     1       5.684   4.621  15.526  0.00  0.00    +0.000 F 
ATOM     14  C   UNL     1       4.149   4.307  17.289  0.00  0.00    +0.000 A 
ATOM     15  C   UNL     1       3.312   4.818  18.268  0.00  0.00    +0.000 A 
ATOM     16  N   UNL     1       2.677   3.945  19.064  0.00  0.00    +0.000 NA
ENDBRANCH   1   8
BRANCH   3  17
ATOM     17  C   UNL     1       1.430  10.237  18.464  0.00  0.00    +0.000 A 
ATOM     18  C   UNL     1       2.274  11.324  18.369  0.00  0.00    +0.000 A 
ATOM     19  C   UNL     1       1.464  12.466  18.554  0.00  0.00    +0.000 A 
ATOM     20  C   UNL     1       1.896  13.884  18.591  0.00  0.00    +0.000 C 
ATOM     21  N   UNL     1       0.185  12.133  18.729  0.00  0.00    +0.000 NA
ATOM     22  N   UNL     1       0.173  10.783  18.640  0.00  0.00    +0.000 N 
BRANCH  22  23
ATOM     23  C   UNL     1      -1.083  10.089  18.905  0.00  0.00    +0.000 C 
BRANCH  23  24
ATOM     24  C   UNL     1      -2.142  10.391  17.873  0.00  0.00    +0.000 A 
ATOM     25  C   UNL     1      -2.058   9.847  16.582  0.00  0.00    +0.000 A 
ATOM     26  C   UNL     1      -3.048  10.115  15.634  0.00  0.00    +0.000 A 
ATOM     27  C   UNL     1      -4.139  10.917  15.965  0.00  0.00    +0.000 A 
ATOM     28  C   UNL     1      -4.252  11.437  17.252  0.00  0.00    +0.000 A 
ATOM     29  C   UNL     1      -3.265  11.168  18.201  0.00  0.00    +0.000 A 
ENDBRANCH  23  24
ENDBRANCH  22  23
ENDBRANCH   3  17
TORSDOF 4
ENDMDL
MODEL 4
REMARK VINA RESULT:      -8.2      1.382      3.508
REMARK  Name = 
REMARK  6 active torsions:
REMARK  status: ('A' for Active; 'I' for Inactive)
REMARK    1  A    between atoms: C_1  and  C_2
REMARK    2  A    between atoms: C_4  and  C_5
REMARK    3  A    between atoms: N_7  and  C_8
REMARK    4  A    between atoms: C_10  and  C_11
REMARK    5  A    between atoms: N_13  and  C_14
REMARK    6  A    between atoms: C_14  and  C_15
REMARK                            x       y       z     vdW  Elec       q    Type
REMARK                         _______ _______ _______ _____ _____    ______ ____
ROOT
ATOM      1  C   UNL     1       1.929   7.971  18.907  0.00  0.00    +0.000 C 
ATOM      2  O   UNL     1       1.844   7.582  17.756  0.00  0.00    +0.000 OA
ATOM      3  N   UNL     1       2.279   7.073  19.983  0.00  0.00    +0.000 N 
ATOM      4  H   UNL     1       2.288   7.415  20.935  0.00  0.00    +0.000 HD
ENDROOT
BRANCH   1   8
ATOM      5  C   UNL     1       2.312  12.855  17.955  0.00  0.00    +0.000 C 
ATOM      6  C   UNL     1       1.795  11.699  18.756  0.00  0.00    +0.000 A 
ATOM      7  C   UNL     1       2.103  10.391  18.429  0.00  0.00    +0.000 A 
ATOM      8  C   UNL     1       1.627   9.378  19.266  0.00  0.00    +0.000 A 
ATOM      9  C   UNL     1       0.833   9.680  20.408  0.00  0.00    +0.000 A 
ATOM     10  C   UNL     1       0.325   8.740  21.349  0.00  0.00    +0.000 A 
ATOM     11  C   UNL     1      -0.454   9.145  22.430  0.00  0.00    +0.000 A 
ATOM     12  C   UNL     1      -0.740  10.489  22.584  0.00  0.00    +0.000 A 
ATOM     13  F   UNL     1      -1.494  10.891  23.616  0.00  0.00    +0.000 F 
ATOM     14  C   UNL     1      -0.245  11.425  21.688  0.00  0.00    +0.000 A 
ATOM     15  C   UNL     1       0.547  11.045  20.616  0.00  0.00    +0.000 A 
ATOM     16  N   UNL     1       1.025  12.010  19.819  0.00  0.00    +0.000 NA
ENDBRANCH   1   8
BRANCH   3  17
ATOM     17  C   UNL     1       2.511   5.711  19.776  0.00  0.00    +0.000 A 
ATOM     18  C   UNL     1       1.610   4.676  19.913  0.00  0.00    +0.000 A 
ATOM     19  C   UNL     1       2.335   3.490  19.671  0.00  0.00    +0.000 A 
ATOM     20  C   UNL     1       1.837   2.094  19.743  0.00  0.00    +0.000 C 
ATOM     21  N   UNL     1       3.608   3.749  19.373  0.00  0.00    +0.000 NA
ATOM     22  N   UNL     1       3.695   5.099  19.407  0.00  0.00    +0.000 N 
BRANCH  22  23
ATOM     23  C   UNL     1       5.009   5.708  19.233  0.00  0.00    +0.000 C 
BRANCH  23  24
ATOM     24  C   UNL     1       5.575   5.482  17.852  0.00  0.00    +0.000 A 
ATOM     25  C   UNL     1       6.773   4.773  17.678  0.00  0.00    +0.000 A 
ATOM     26  C   UNL     1       7.286   4.552  16.397  0.00  0.00    +0.000 A 
ATOM     27  C   UNL     1       6.604   5.024  15.276  0.00  0.00    +0.000 A 
ATOM     28  C   UNL     1       5.398   5.702  15.433  0.00  0.00    +0.000 A 
ATOM     29  C   UNL     1       4.883   5.922  16.712  0.00  0.00    +0.000 A 
ENDBRANCH  23  24
ENDBRANCH  22  23
ENDBRANCH   3  17
TORSDOF 4
ENDMDL
MODEL 5
REMARK VINA RESULT:      -8.1      3.563      7.635
REMARK  Name = 
REMARK  6 active torsions:
REMARK  status: ('A' for Active; 'I' for Inactive)
REMARK    1  A    between atoms: C_1  and  C_2
REMARK    2  A    between atoms: C_4  and  C_5
REMARK    3  A    between atoms: N_7  and  C_8
REMARK    4  A    between atoms: C_10  and  C_11
REMARK    5  A    between atoms: N_13  and  C_14
REMARK    6  A    between atoms: C_14  and  C_15
REMARK                            x       y       z     vdW  Elec       q    Type
REMARK                         _______ _______ _______ _____ _____    ______ ____
ROOT
ATOM      1  C   UNL     1       2.268   8.365  18.179  0.00  0.00    +0.000 C 
ATOM      2  O   UNL     1       2.466   8.811  17.063  0.00  0.00    +0.000 OA
ATOM      3  N   UNL     1       1.624   9.154  19.203  0.00  0.00    +0.000 N 
ATOM      4  H   UNL     1       1.522   8.774  20.135  0.00  0.00    +0.000 HD
ENDROOT
BRANCH   1   8
ATOM      5  C   UNL     1       2.011   4.396  21.194  0.00  0.00    +0.000 C 
ATOM      6  C   UNL     1       2.541   5.111  19.988  0.00  0.00    +0.000 A 
ATOM      7  C   UNL     1       2.131   6.390  19.661  0.00  0.00    +0.000 A 
ATOM      8  C   UNL     1       2.723   7.004  18.554  0.00  0.00    +0.000 A 
ATOM      9  C   UNL     1       3.701   6.327  17.773  0.00  0.00    +0.000 A 
ATOM     10  C   UNL     1       4.395   6.861  16.651  0.00  0.00    +0.000 A 
ATOM     11  C   UNL     1       5.331   6.103  15.949  0.00  0.00    +0.000 A 
ATOM     12  C   UNL     1       5.582   4.806  16.354  0.00  0.00    +0.000 A 
ATOM     13  F   UNL     1       6.474   4.065  15.684  0.00  0.00    +0.000 F 
ATOM     14  C   UNL     1       4.929   4.268  17.453  0.00  0.00    +0.000 A 
ATOM     15  C   UNL     1       4.008   5.011  18.175  0.00  0.00    +0.000 A 
ATOM     16  N   UNL     1       3.450   4.438  19.251  0.00  0.00    +0.000 NA
ENDBRANCH   1   8
BRANCH   3  17
ATOM     17  C   UNL     1       1.219  10.474  18.988  0.00  0.00    +0.000 A 
ATOM     18  C   UNL     1       2.025  11.583  18.833  0.00  0.00    +0.000 A 
ATOM     19  C   UNL     1       1.154  12.687  18.720  0.00  0.00    +0.000 A 
ATOM     20  C   UNL     1       1.520  14.118  18.586  0.00  0.00    +0.000 C 
ATOM     21  N   UNL     1      -0.123  12.308  18.772  0.00  0.00    +0.000 NA
ATOM     22  N   UNL     1      -0.071  10.962  18.901  0.00  0.00    +0.000 N 
BRANCH  22  23
ATOM     23  C   UNL     1      -1.324  10.242  19.103  0.00  0.00    +0.000 C 
BRANCH  23  24
ATOM     24  C   UNL     1      -2.265  10.376  17.930  0.00  0.00    +0.000 A 
ATOM     25  C   UNL     1      -3.442  11.131  18.041  0.00  0.00    +0.000 A 
ATOM     26  C   UNL     1      -4.303  11.266  16.950  0.00  0.00    +0.000 A 
ATOM     27  C   UNL     1      -3.995  10.661  15.732  0.00  0.00    +0.000 A 
ATOM     28  C   UNL     1      -2.814   9.935  15.599  0.00  0.00    +0.000 A 
ATOM     29  C   UNL     1      -1.951   9.801  16.688  0.00  0.00    +0.000 A 
ENDBRANCH  23  24
ENDBRANCH  22  23
ENDBRANCH   3  17
TORSDOF 4
ENDMDL
MODEL 6
REMARK VINA RESULT:      -7.9      3.224      7.121
REMARK  Name = 
REMARK  6 active torsions:
REMARK  status: ('A' for Active; 'I' for Inactive)
REMARK    1  A    between atoms: C_1  and  C_2
REMARK    2  A    between atoms: C_4  and  C_5
REMARK    3  A    between atoms: N_7  and  C_8
REMARK    4  A    between atoms: C_10  and  C_11
REMARK    5  A    between atoms: N_13  and  C_14
REMARK    6  A    between atoms: C_14  and  C_15
REMARK                            x       y       z     vdW  Elec       q    Type
REMARK                         _______ _______ _______ _____ _____    ______ ____
ROOT
ATOM      1  C   UNL     1       2.137   8.336  19.078  0.00  0.00    +0.000 C 
ATOM      2  O   UNL     1       1.822   8.431  20.251  0.00  0.00    +0.000 OA
ATOM      3  N   UNL     1       1.904   9.413  18.144  0.00  0.00    +0.000 N 
ATOM      4  H   UNL     1       2.128   9.282  17.166  0.00  0.00    +0.000 HD
ENDROOT
BRANCH   1   8
ATOM      5  C   UNL     1       5.246   6.032  15.926  0.00  0.00    +0.000 C 
ATOM      6  C   UNL     1       4.258   6.026  17.054  0.00  0.00    +0.000 A 
ATOM      7  C   UNL     1       3.689   7.193  17.529  0.00  0.00    +0.000 A 
ATOM      8  C   UNL     1       2.732   7.087  18.542  0.00  0.00    +0.000 A 
ATOM      9  C   UNL     1       2.371   5.822  19.084  0.00  0.00    +0.000 A 
ATOM     10  C   UNL     1       1.389   5.590  20.088  0.00  0.00    +0.000 A 
ATOM     11  C   UNL     1       1.120   4.304  20.555  0.00  0.00    +0.000 A 
ATOM     12  C   UNL     1       1.828   3.239  20.032  0.00  0.00    +0.000 A 
ATOM     13  F   UNL     1       1.584   2.000  20.478  0.00  0.00    +0.000 F 
ATOM     14  C   UNL     1       2.780   3.439  19.043  0.00  0.00    +0.000 A 
ATOM     15  C   UNL     1       3.050   4.707  18.552  0.00  0.00    +0.000 A 
ATOM     16  N   UNL     1       3.951   4.816  17.565  0.00  0.00    +0.000 NA
ENDBRANCH   1   8
BRANCH   3  17
ATOM     17  C   UNL     1       1.282  10.607  18.518  0.00  0.00    +0.000 A 
ATOM     18  C   UNL     1       1.885  11.821  18.776  0.00  0.00    +0.000 A 
ATOM     19  C   UNL     1       0.853  12.691  19.188  0.00  0.00    +0.000 A 
ATOM     20  C   UNL     1       0.980  14.102  19.627  0.00  0.00    +0.000 C 
ATOM     21  N   UNL     1      -0.334  12.083  19.169  0.00  0.00    +0.000 NA
ATOM     22  N   UNL     1      -0.065  10.832  18.730  0.00  0.00    +0.000 N 
BRANCH  22  23
ATOM     23  C   UNL     1      -1.156   9.864  18.706  0.00  0.00    +0.000 C 
BRANCH  23  24
ATOM     24  C   UNL     1      -2.204  10.196  17.672  0.00  0.00    +0.000 A 
ATOM     25  C   UNL     1      -3.343  10.937  18.022  0.00  0.00    +0.000 A 
ATOM     26  C   UNL     1      -4.304  11.258  17.060  0.00  0.00    +0.000 A 
ATOM     27  C   UNL     1      -4.134  10.855  15.736  0.00  0.00    +0.000 A 
ATOM     28  C   UNL     1      -2.993  10.147  15.368  0.00  0.00    +0.000 A 
ATOM     29  C   UNL     1      -2.031   9.828  16.328  0.00  0.00    +0.000 A 
ENDBRANCH  23  24
ENDBRANCH  22  23
ENDBRANCH   3  17
TORSDOF 4
ENDMDL
MODEL 7
REMARK VINA RESULT:      -7.9      1.644      2.007
REMARK  Name = 
REMARK  6 active torsions:
REMARK  status: ('A' for Active; 'I' for Inactive)
REMARK    1  A    between atoms: C_1  and  C_2
REMARK    2  A    between atoms: C_4  and  C_5
REMARK    3  A    between atoms: N_7  and  C_8
REMARK    4  A    between atoms: C_10  and  C_11
REMARK    5  A    between atoms: N_13  and  C_14
REMARK    6  A    between atoms: C_14  and  C_15
REMARK                            x       y       z     vdW  Elec       q    Type
REMARK                         _______ _______ _______ _____ _____    ______ ____
ROOT
ATOM      1  C   UNL     1       2.168   8.626  18.025  0.00  0.00    +0.000 C 
ATOM      2  O   UNL     1       2.947   9.222  17.303  0.00  0.00    +0.000 OA
ATOM      3  N   UNL     1       2.316   7.214  18.294  0.00  0.00    +0.000 N 
ATOM      4  H   UNL     1       1.621   6.738  18.854  0.00  0.00    +0.000 HD
ENDROOT
BRANCH   1   8
ATOM      5  C   UNL     1      -2.075  11.200  17.496  0.00  0.00    +0.000 C 
ATOM      6  C   UNL     1      -1.045  10.502  18.332  0.00  0.00    +0.000 A 
ATOM      7  C   UNL     1       0.056   9.887  17.766  0.00  0.00    +0.000 A 
ATOM      8  C   UNL     1       0.998   9.313  18.624  0.00  0.00    +0.000 A 
ATOM      9  C   UNL     1       0.819   9.342  20.036  0.00  0.00    +0.000 A 
ATOM     10  C   UNL     1       1.724   8.824  21.006  0.00  0.00    +0.000 A 
ATOM     11  C   UNL     1       1.444   8.896  22.369  0.00  0.00    +0.000 A 
ATOM     12  C   UNL     1       0.260   9.479  22.780  0.00  0.00    +0.000 A 
ATOM     13  F   UNL     1      -0.023   9.548  24.088  0.00  0.00    +0.000 F 
ATOM     14  C   UNL     1      -0.631  10.002  21.855  0.00  0.00    +0.000 A 
ATOM     15  C   UNL     1      -0.363   9.957  20.496  0.00  0.00    +0.000 A 
ATOM     16  N   UNL     1      -1.250  10.523  19.665  0.00  0.00    +0.000 NA
ENDBRANCH   1   8
BRANCH   3  17
ATOM     17  C   UNL     1       3.336   6.447  17.726  0.00  0.00    +0.000 A 
ATOM     18  C   UNL     1       4.559   6.888  17.263  0.00  0.00    +0.000 A 
ATOM     19  C   UNL     1       5.200   5.757  16.714  0.00  0.00    +0.000 A 
ATOM     20  C   UNL     1       6.522   5.705  16.042  0.00  0.00    +0.000 C 
ATOM     21  N   UNL     1       4.452   4.662  16.841  0.00  0.00    +0.000 NA
ATOM     22  N   UNL     1       3.339   5.086  17.484  0.00  0.00    +0.000 N 
BRANCH  22  23
ATOM     23  C   UNL     1       2.252   4.133  17.677  0.00  0.00    +0.000 C 
BRANCH  23  24
ATOM     24  C   UNL     1       2.210   3.575  19.079  0.00  0.00    +0.000 A 
ATOM     25  C   UNL     1       3.344   2.968  19.640  0.00  0.00    +0.000 A 
ATOM     26  C   UNL     1       3.308   2.467  20.944  0.00  0.00    +0.000 A 
ATOM     27  C   UNL     1       2.146   2.578  21.706  0.00  0.00    +0.000 A 
ATOM     28  C   UNL     1       1.024   3.206  21.173  0.00  0.00    +0.000 A 
ATOM     29  C   UNL     1       1.059   3.709  19.872  0.00  0.00    +0.000 A 
ENDBRANCH  23  24
ENDBRANCH  22  23
ENDBRANCH   3  17
TORSDOF 4
ENDMDL
MODEL 8
REMARK VINA RESULT:      -7.8      1.604      3.517
REMARK  Name = 
REMARK  6 active torsions:
REMARK  status: ('A' for Active; 'I' for Inactive)
REMARK    1  A    between atoms: C_1  and  C_2
REMARK    2  A    between atoms: C_4  and  C_5
REMARK    3  A    between atoms: N_7  and  C_8
REMARK    4  A    between atoms: C_10  and  C_11
REMARK    5  A    between atoms: N_13  and  C_14
REMARK    6  A    between atoms: C_14  and  C_15
REMARK                            x       y       z     vdW  Elec       q    Type
REMARK                         _______ _______ _______ _____ _____    ______ ____
ROOT
ATOM      1  C   UNL     1       1.716   8.109  18.460  0.00  0.00    +0.000 C 
ATOM      2  O   UNL     1       1.219   7.768  17.401  0.00  0.00    +0.000 OA
ATOM      3  N   UNL     1       2.455   7.179  19.281  0.00  0.00    +0.000 N 
ATOM      4  H   UNL     1       2.809   7.478  20.180  0.00  0.00    +0.000 HD
ENDROOT
BRANCH   1   8
ATOM      5  C   UNL     1       2.447  13.025  18.011  0.00  0.00    +0.000 C 
ATOM      6  C   UNL     1       1.873  11.830  18.710  0.00  0.00    +0.000 A 
ATOM      7  C   UNL     1       2.062  10.547  18.231  0.00  0.00    +0.000 A 
ATOM      8  C   UNL     1       1.543   9.487  18.980  0.00  0.00    +0.000 A 
ATOM      9  C   UNL     1       0.825   9.721  20.186  0.00  0.00    +0.000 A 
ATOM     10  C   UNL     1       0.284   8.724  21.047  0.00  0.00    +0.000 A 
ATOM     11  C   UNL     1      -0.414   9.066  22.203  0.00  0.00    +0.000 A 
ATOM     12  C   UNL     1      -0.586  10.402  22.512  0.00  0.00    +0.000 A 
ATOM     13  F   UNL     1      -1.261  10.744  23.617  0.00  0.00    +0.000 F 
ATOM     14  C   UNL     1      -0.057  11.392  21.697  0.00  0.00    +0.000 A 
ATOM     15  C   UNL     1       0.657  11.072  20.552  0.00  0.00    +0.000 A 
ATOM     16  N   UNL     1       1.176  12.081  19.838  0.00  0.00    +0.000 NA
ENDBRANCH   1   8
BRANCH   3  17
ATOM     17  C   UNL     1       2.619   5.836  18.929  0.00  0.00    +0.000 A 
ATOM     18  C   UNL     1       2.045   4.735  19.531  0.00  0.00    +0.000 A 
ATOM     19  C   UNL     1       2.575   3.607  18.869  0.00  0.00    +0.000 A 
ATOM     20  C   UNL     1       2.314   2.178  19.168  0.00  0.00    +0.000 C 
ATOM     21  N   UNL     1       3.411   3.961  17.893  0.00  0.00    +0.000 NA
ATOM     22  N   UNL     1       3.404   5.314  17.918  0.00  0.00    +0.000 N 
BRANCH  22  23
ATOM     23  C   UNL     1       4.321   6.022  17.031  0.00  0.00    +0.000 C 
BRANCH  23  24
ATOM     24  C   UNL     1       5.667   6.272  17.667  0.00  0.00    +0.000 A 
ATOM     25  C   UNL     1       6.130   5.449  18.705  0.00  0.00    +0.000 A 
ATOM     26  C   UNL     1       7.383   5.672  19.281  0.00  0.00    +0.000 A 
ATOM     27  C   UNL     1       8.193   6.710  18.820  0.00  0.00    +0.000 A 
ATOM     28  C   UNL     1       7.759   7.513  17.770  0.00  0.00    +0.000 A 
ATOM     29  C   UNL     1       6.509   7.290  17.192  0.00  0.00    +0.000 A 
ENDBRANCH  23  24
ENDBRANCH  22  23
ENDBRANCH   3  17
TORSDOF 4
ENDMDL
MODEL 9
REMARK VINA RESULT:      -7.8      2.804      3.441
REMARK  Name = 
REMARK  6 active torsions:
REMARK  status: ('A' for Active; 'I' for Inactive)
REMARK    1  A    between atoms: C_1  and  C_2
REMARK    2  A    between atoms: C_4  and  C_5
REMARK    3  A    between atoms: N_7  and  C_8
REMARK    4  A    between atoms: C_10  and  C_11
REMARK    5  A    between atoms: N_13  and  C_14
REMARK    6  A    between atoms: C_14  and  C_15
REMARK                            x       y       z     vdW  Elec       q    Type
REMARK                         _______ _______ _______ _____ _____    ______ ____
ROOT
ATOM      1  C   UNL     1       1.482   9.430  18.291  0.00  0.00    +0.000 C 
ATOM      2  O   UNL     1       2.130   9.945  17.398  0.00  0.00    +0.000 OA
ATOM      3  N   UNL     1       1.748   8.080  18.734  0.00  0.00    +0.000 N 
ATOM      4  H   UNL     1       1.157   7.662  19.441  0.00  0.00    +0.000 HD
ENDROOT
BRANCH   1   8
ATOM      5  C   UNL     1      -0.370  12.001  22.147  0.00  0.00    +0.000 C 
ATOM      6  C   UNL     1      -0.481  11.409  20.774  0.00  0.00    +0.000 A 
ATOM      7  C   UNL     1       0.567  10.719  20.193  0.00  0.00    +0.000 A 
ATOM      8  C   UNL     1       0.355  10.148  18.935  0.00  0.00    +0.000 A 
ATOM      9  C   UNL     1      -0.891  10.290  18.262  0.00  0.00    +0.000 A 
ATOM     10  C   UNL     1      -1.232   9.726  17.001  0.00  0.00    +0.000 A 
ATOM     11  C   UNL     1      -2.484   9.938  16.427  0.00  0.00    +0.000 A 
ATOM     12  C   UNL     1      -3.406  10.717  17.100  0.00  0.00    +0.000 A 
ATOM     13  F   UNL     1      -4.611  10.935  16.555  0.00  0.00    +0.000 F 
ATOM     14  C   UNL     1      -3.102  11.267  18.336  0.00  0.00    +0.000 A 
ATOM     15  C   UNL     1      -1.869  11.053  18.933  0.00  0.00    +0.000 A 
ATOM     16  N   UNL     1      -1.664  11.578  20.149  0.00  0.00    +0.000 NA
ENDBRANCH   1   8
BRANCH   3  17
ATOM     17  C   UNL     1       2.735   7.282  18.151  0.00  0.00    +0.000 A 
ATOM     18  C   UNL     1       3.934   7.694  17.608  0.00  0.00    +0.000 A 
ATOM     19  C   UNL     1       4.544   6.535  17.080  0.00  0.00    +0.000 A 
ATOM     20  C   UNL     1       5.829   6.444  16.346  0.00  0.00    +0.000 C 
ATOM     21  N   UNL     1       3.798   5.451  17.294  0.00  0.00    +0.000 NA
ATOM     22  N   UNL     1       2.721   5.911  17.972  0.00  0.00    +0.000 N 
BRANCH  22  23
ATOM     23  C   UNL     1       1.641   4.974  18.263  0.00  0.00    +0.000 C 
BRANCH  23  24
ATOM     24  C   UNL     1       1.949   4.081  19.441  0.00  0.00    +0.000 A 
ATOM     25  C   UNL     1       0.973   3.825  20.417  0.00  0.00    +0.000 A 
ATOM     26  C   UNL     1       1.255   2.985  21.497  0.00  0.00    +0.000 A 
ATOM     27  C   UNL     1       2.507   2.382  21.610  0.00  0.00    +0.000 A 
ATOM     28  C   UNL     1       3.473   2.603  20.632  0.00  0.00    +0.000 A 
ATOM     29  C   UNL     1       3.193   3.439  19.551  0.00  0.00    +0.000 A 
ENDBRANCH  23  24
ENDBRANCH  22  23
ENDBRANCH   3  17
TORSDOF 4
ENDMDL
