MODEL 1
REMARK VINA RESULT:      -9.1      0.000      0.000
REMARK  Name = 
REMARK  7 active torsions:
REMARK  status: ('A' for Active; 'I' for Inactive)
REMARK    1  A    between atoms: C_1  and  N_2
REMARK    2  A    between atoms: C_6  and  C_7
REMARK    3  A    between atoms: C_7  and  C_8
REMARK    4  A    between atoms: C_8  and  C_9
REMARK    5  A    between atoms: C_13  and  N_14
REMARK    6  A    between atoms: C_20  and  O_21
REMARK    7  A    between atoms: O_21  and  C_22
REMARK                            x       y       z     vdW  Elec       q    Type
REMARK                         _______ _______ _______ _____ _____    ______ ____
ROOT
ATOM      1  C   UNL     1       3.115   5.604  18.480  0.00  0.00    +0.000 A 
ATOM      2  C   UNL     1       3.650   6.353  17.412  0.00  0.00    +0.000 A 
ATOM      3  C   UNL     1       3.451   7.726  17.303  0.00  0.00    +0.000 A 
ATOM      4  C   UNL     1       2.684   8.389  18.254  0.00  0.00    +0.000 A 
ATOM      5  C   UNL     1       2.105   7.692  19.307  0.00  0.00    +0.000 A 
ATOM      6  C   UNL     1       2.364   6.320  19.437  0.00  0.00    +0.000 A 
ENDROOT
BRANCH   5   7
ATOM      7  N   UNL     1       1.253   8.285  20.259  0.00  0.00    +0.000 N 
ATOM      8  C   UNL     1       0.490   9.413  20.068  0.00  0.00    +0.000 C 
ATOM      9  O   UNL     1       0.379  10.018  19.004  0.00  0.00    +0.000 OA
ATOM     10  N   UNL     1      -0.160   9.871  21.187  0.00  0.00    +0.000 N 
ATOM     11  C   UNL     1      -0.153   9.322  22.533  0.00  0.00    +0.000 C 
ATOM     12  C   UNL     1      -0.820  10.393  23.322  0.00  0.00    +0.000 C 
ATOM     13  C   UNL     1      -1.227  11.388  22.519  0.00  0.00    +0.000 C 
ATOM     14  C   UNL     1      -0.849  11.146  21.102  0.00  0.00    +0.000 C 
ATOM     15  H   UNL     1       1.064   7.745  21.090  0.00  0.00    +0.000 HD
BRANCH  13  16
ATOM     16  O   UNL     1      -1.840  12.572  22.827  0.00  0.00    +0.000 OA
BRANCH  16  17
ATOM     17  C   UNL     1      -3.206  12.637  22.892  0.00  0.00    +0.000 A 
ATOM     18  C   UNL     1      -4.027  12.944  21.809  0.00  0.00    +0.000 A 
ATOM     19  C   UNL     1      -5.404  12.993  21.993  0.00  0.00    +0.000 A 
ATOM     20  C   UNL     1      -5.906  12.765  23.266  0.00  0.00    +0.000 A 
ATOM     21  N   UNL     1      -5.136  12.502  24.344  0.00  0.00    +0.000 NA
ATOM     22  C   UNL     1      -3.800  12.447  24.131  0.00  0.00    +0.000 A 
ENDBRANCH  16  17
ENDBRANCH  13  16
ENDBRANCH   5   7
BRANCH   1  23
ATOM     23  C   UNL     1       3.312   4.011  18.570  0.00  0.00    +0.000 C 
ATOM     24  C   UNL     1       2.918   3.299  19.896  0.00  0.00    +0.000 C 
ATOM     25  O   UNL     1       1.891   2.519  19.248  0.00  0.00    +0.000 OA
ATOM     26  C   UNL     1       2.137   3.171  17.990  0.00  0.00    +0.000 C 
BRANCH  23  27
ATOM     27  C   UNL     1       4.675   3.594  17.981  0.00  0.00    +0.000 C 
BRANCH  27  33
ATOM     28  C   UNL     1       7.059   4.860  16.308  0.00  0.00    +0.000 C 
ATOM     29  N   UNL     1       6.857   4.919  17.730  0.00  0.00    +0.000 N 
ATOM     30  C   UNL     1       7.714   5.507  18.613  0.00  0.00    +0.000 A 
ATOM     31  N   UNL     1       7.235   5.398  19.828  0.00  0.00    +0.000 NA
ATOM     32  N   UNL     1       6.051   4.709  19.746  0.00  0.00    +0.000 NA
ATOM     33  C   UNL     1       5.825   4.409  18.481  0.00  0.00    +0.000 A 
ENDBRANCH  27  33
ENDBRANCH  23  27
ENDBRANCH   1  23
TORSDOF 6
ENDMDL
MODEL 2
REMARK VINA RESULT:      -8.9      3.421     10.857
REMARK  Name = 
REMARK  7 active torsions:
REMARK  status: ('A' for Active; 'I' for Inactive)
REMARK    1  A    between atoms: C_1  and  N_2
REMARK    2  A    between atoms: C_6  and  C_7
REMARK    3  A    between atoms: C_7  and  C_8
REMARK    4  A    between atoms: C_8  and  C_9
REMARK    5  A    between atoms: C_13  and  N_14
REMARK    6  A    between atoms: C_20  and  O_21
REMARK    7  A    between atoms: O_21  and  C_22
REMARK                            x       y       z     vdW  Elec       q    Type
REMARK                         _______ _______ _______ _____ _____    ______ ____
ROOT
ATOM      1  C   UNL     1      -1.599  10.974  17.738  0.00  0.00    +0.000 A 
ATOM      2  C   UNL     1      -1.252  12.260  18.197  0.00  0.00    +0.000 A 
ATOM      3  C   UNL     1      -0.083  12.494  18.916  0.00  0.00    +0.000 A 
ATOM      4  C   UNL     1       0.765  11.434  19.218  0.00  0.00    +0.000 A 
ATOM      5  C   UNL     1       0.451  10.141  18.819  0.00  0.00    +0.000 A 
ATOM      6  C   UNL     1      -0.699   9.930  18.044  0.00  0.00    +0.000 A 
ENDROOT
BRANCH   5   7
ATOM      7  N   UNL     1       1.222   9.012  19.158  0.00  0.00    +0.000 N 
ATOM      8  C   UNL     1       2.094   8.350  18.326  0.00  0.00    +0.000 C 
ATOM      9  O   UNL     1       2.387   8.704  17.185  0.00  0.00    +0.000 OA
ATOM     10  N   UNL     1       2.633   7.200  18.845  0.00  0.00    +0.000 N 
ATOM     11  C   UNL     1       2.412   6.599  20.150  0.00  0.00    +0.000 C 
ATOM     12  C   UNL     1       3.060   5.268  20.006  0.00  0.00    +0.000 C 
ATOM     13  C   UNL     1       3.646   5.154  18.804  0.00  0.00    +0.000 C 
ATOM     14  C   UNL     1       3.430   6.363  17.967  0.00  0.00    +0.000 C 
ATOM     15  H   UNL     1       1.260   8.773  20.137  0.00  0.00    +0.000 HD
BRANCH  13  16
ATOM     16  O   UNL     1       4.310   4.096  18.247  0.00  0.00    +0.000 OA
BRANCH  16  17
ATOM     17  C   UNL     1       5.230   4.312  17.256  0.00  0.00    +0.000 A 
ATOM     18  C   UNL     1       4.983   4.107  15.900  0.00  0.00    +0.000 A 
ATOM     19  C   UNL     1       5.996   4.351  14.981  0.00  0.00    +0.000 A 
ATOM     20  C   UNL     1       7.233   4.759  15.458  0.00  0.00    +0.000 A 
ATOM     21  N   UNL     1       7.517   4.930  16.768  0.00  0.00    +0.000 NA
ATOM     22  C   UNL     1       6.506   4.700  17.638  0.00  0.00    +0.000 A 
ENDBRANCH  16  17
ENDBRANCH  13  16
ENDBRANCH   5   7
BRANCH   1  23
ATOM     23  C   UNL     1      -2.975  10.706  16.950  0.00  0.00    +0.000 C 
ATOM     24  C   UNL     1      -3.321  11.628  15.747  0.00  0.00    +0.000 C 
ATOM     25  O   UNL     1      -3.286  10.530  14.812  0.00  0.00    +0.000 OA
ATOM     26  C   UNL     1      -2.897   9.612  15.846  0.00  0.00    +0.000 C 
BRANCH  23  27
ATOM     27  C   UNL     1      -4.132  10.456  17.940  0.00  0.00    +0.000 C 
BRANCH  27  33
ATOM     28  C   UNL     1      -4.134  12.642  20.244  0.00  0.00    +0.000 C 
ATOM     29  N   UNL     1      -5.040  12.538  19.133  0.00  0.00    +0.000 N 
ATOM     30  C   UNL     1      -6.104  13.362  18.918  0.00  0.00    +0.000 A 
ATOM     31  N   UNL     1      -6.718  13.008  17.816  0.00  0.00    +0.000 NA
ATOM     32  N   UNL     1      -6.058  11.918  17.307  0.00  0.00    +0.000 NA
ATOM     33  C   UNL     1      -5.050  11.626  18.105  0.00  0.00    +0.000 A 
ENDBRANCH  27  33
ENDBRANCH  23  27
ENDBRANCH   1  23
TORSDOF 6
ENDMDL
MODEL 3
REMARK VINA RESULT:      -8.7      2.543      3.992
REMARK  Name = 
REMARK  7 active torsions:
REMARK  status: ('A' for Active; 'I' for Inactive)
REMARK    1  A    between atoms: C_1  and  N_2
REMARK    2  A    between atoms: C_6  and  C_7
REMARK    3  A    between atoms: C_7  and  C_8
REMARK    4  A    between atoms: C_8  and  C_9
REMARK    5  A    between atoms: C_13  and  N_14
REMARK    6  A    between atoms: C_20  and  O_21
REMARK    7  A    between atoms: O_21  and  C_22
REMARK                            x       y       z     vdW  Elec       q    Type
REMARK                         _______ _______ _______ _____ _____    ______ ____
ROOT
ATOM      1  C   UNL     1       5.532   5.097  18.800  0.00  0.00    +0.000 A 
ATOM      2  C   UNL     1       5.210   3.744  19.030  0.00  0.00    +0.000 A 
ATOM      3  C   UNL     1       4.002   3.363  19.606  0.00  0.00    +0.000 A 
ATOM      4  C   UNL     1       3.085   4.335  19.993  0.00  0.00    +0.000 A 
ATOM      5  C   UNL     1       3.369   5.683  19.820  0.00  0.00    +0.000 A 
ATOM      6  C   UNL     1       4.564   6.050  19.184  0.00  0.00    +0.000 A 
ENDROOT
BRANCH   5   7
ATOM      7  N   UNL     1       2.523   6.720  20.260  0.00  0.00    +0.000 N 
ATOM      8  C   UNL     1       1.948   7.685  19.466  0.00  0.00    +0.000 C 
ATOM      9  O   UNL     1       2.025   7.728  18.240  0.00  0.00    +0.000 OA
ATOM     10  N   UNL     1       1.266   8.664  20.143  0.00  0.00    +0.000 N 
ATOM     11  C   UNL     1       1.068   8.811  21.575  0.00  0.00    +0.000 C 
ATOM     12  C   UNL     1       0.487  10.177  21.683  0.00  0.00    +0.000 C 
ATOM     13  C   UNL     1       0.301  10.709  20.465  0.00  0.00    +0.000 C 
ATOM     14  C   UNL     1       0.774   9.801  19.387  0.00  0.00    +0.000 C 
ATOM     15  H   UNL     1       2.182   6.649  21.206  0.00  0.00    +0.000 HD
BRANCH  13  16
ATOM     16  O   UNL     1      -0.164  11.944  20.107  0.00  0.00    +0.000 OA
BRANCH  16  17
ATOM     17  C   UNL     1      -1.513  12.172  20.039  0.00  0.00    +0.000 A 
ATOM     18  C   UNL     1      -2.254  12.789  21.045  0.00  0.00    +0.000 A 
ATOM     19  C   UNL     1      -3.622  12.960  20.873  0.00  0.00    +0.000 A 
ATOM     20  C   UNL     1      -4.205  12.475  19.711  0.00  0.00    +0.000 A 
ATOM     21  N   UNL     1      -3.522  11.840  18.734  0.00  0.00    +0.000 NA
ATOM     22  C   UNL     1      -2.188  11.701  18.923  0.00  0.00    +0.000 A 
ENDBRANCH  16  17
ENDBRANCH  13  16
ENDBRANCH   5   7
BRANCH   1  23
ATOM     23  C   UNL     1       6.950   5.528  18.177  0.00  0.00    +0.000 C 
ATOM     24  C   UNL     1       7.113   6.989  17.669  0.00  0.00    +0.000 C 
ATOM     25  O   UNL     1       8.142   7.280  18.638  0.00  0.00    +0.000 OA
ATOM     26  C   UNL     1       8.017   5.972  19.220  0.00  0.00    +0.000 C 
BRANCH  23  27
ATOM     27  C   UNL     1       7.483   4.439  17.223  0.00  0.00    +0.000 C 
BRANCH  27  33
ATOM     28  C   UNL     1       4.817   3.392  15.851  0.00  0.00    +0.000 C 
ATOM     29  N   UNL     1       5.895   4.118  15.235  0.00  0.00    +0.000 N 
ATOM     30  C   UNL     1       5.960   4.438  13.911  0.00  0.00    +0.000 A 
ATOM     31  N   UNL     1       7.060   5.110  13.675  0.00  0.00    +0.000 NA
ATOM     32  N   UNL     1       7.741   5.217  14.861  0.00  0.00    +0.000 NA
ATOM     33  C   UNL     1       7.045   4.611  15.803  0.00  0.00    +0.000 A 
ENDBRANCH  27  33
ENDBRANCH  23  27
ENDBRANCH   1  23
TORSDOF 6
ENDMDL
MODEL 4
REMARK VINA RESULT:      -8.7      3.468      4.926
REMARK  Name = 
REMARK  7 active torsions:
REMARK  status: ('A' for Active; 'I' for Inactive)
REMARK    1  A    between atoms: C_1  and  N_2
REMARK    2  A    between atoms: C_6  and  C_7
REMARK    3  A    between atoms: C_7  and  C_8
REMARK    4  A    between atoms: C_8  and  C_9
REMARK    5  A    between atoms: C_13  and  N_14
REMARK    6  A    between atoms: C_20  and  O_21
REMARK    7  A    between atoms: O_21  and  C_22
REMARK                            x       y       z     vdW  Elec       q    Type
REMARK                         _______ _______ _______ _____ _____    ______ ____
ROOT
ATOM      1  C   UNL     1       5.462   5.039  18.853  0.00  0.00    +0.000 A 
ATOM      2  C   UNL     1       5.126   3.695  19.116  0.00  0.00    +0.000 A 
ATOM      3  C   UNL     1       3.904   3.340  19.681  0.00  0.00    +0.000 A 
ATOM      4  C   UNL     1       2.989   4.329  20.024  0.00  0.00    +0.000 A 
ATOM      5  C   UNL     1       3.286   5.670  19.818  0.00  0.00    +0.000 A 
ATOM      6  C   UNL     1       4.495   6.010  19.193  0.00  0.00    +0.000 A 
ENDROOT
BRANCH   5   7
ATOM      7  N   UNL     1       2.441   6.725  20.214  0.00  0.00    +0.000 N 
ATOM      8  C   UNL     1       2.049   7.784  19.429  0.00  0.00    +0.000 C 
ATOM      9  O   UNL     1       2.318   7.915  18.236  0.00  0.00    +0.000 OA
ATOM     10  N   UNL     1       1.326   8.752  20.078  0.00  0.00    +0.000 N 
ATOM     11  C   UNL     1       0.917   8.803  21.472  0.00  0.00    +0.000 C 
ATOM     12  C   UNL     1       0.403  10.192  21.608  0.00  0.00    +0.000 C 
ATOM     13  C   UNL     1       0.437  10.827  20.426  0.00  0.00    +0.000 C 
ATOM     14  C   UNL     1       1.021   9.975  19.357  0.00  0.00    +0.000 C 
ATOM     15  H   UNL     1       1.954   6.605  21.089  0.00  0.00    +0.000 HD
BRANCH  13  16
ATOM     16  O   UNL     1       0.101  12.115  20.110  0.00  0.00    +0.000 OA
BRANCH  16  17
ATOM     17  C   UNL     1       1.082  13.023  19.814  0.00  0.00    +0.000 A 
ATOM     18  C   UNL     1       1.189  13.691  18.595  0.00  0.00    +0.000 A 
ATOM     19  C   UNL     1       2.233  14.587  18.401  0.00  0.00    +0.000 A 
ATOM     20  C   UNL     1       3.154  14.757  19.425  0.00  0.00    +0.000 A 
ATOM     21  N   UNL     1       3.101  14.097  20.603  0.00  0.00    +0.000 NA
ATOM     22  C   UNL     1       2.064  13.242  20.769  0.00  0.00    +0.000 A 
ENDBRANCH  16  17
ENDBRANCH  13  16
ENDBRANCH   5   7
BRANCH   1  23
ATOM     23  C   UNL     1       6.894   5.443  18.243  0.00  0.00    +0.000 C 
ATOM     24  C   UNL     1       7.100   6.908  17.766  0.00  0.00    +0.000 C 
ATOM     25  O   UNL     1       8.133   7.150  18.744  0.00  0.00    +0.000 OA
ATOM     26  C   UNL     1       7.969   5.834  19.298  0.00  0.00    +0.000 C 
BRANCH  23  27
ATOM     27  C   UNL     1       7.398   4.358  17.269  0.00  0.00    +0.000 C 
BRANCH  27  33
ATOM     28  C   UNL     1       4.705   3.455  15.850  0.00  0.00    +0.000 C 
ATOM     29  N   UNL     1       5.818   4.148  15.260  0.00  0.00    +0.000 N 
ATOM     30  C   UNL     1       5.910   4.493  13.944  0.00  0.00    +0.000 A 
ATOM     31  N   UNL     1       7.039   5.123  13.733  0.00  0.00    +0.000 NA
ATOM     32  N   UNL     1       7.713   5.176  14.927  0.00  0.00    +0.000 NA
ATOM     33  C   UNL     1       6.982   4.579  15.849  0.00  0.00    +0.000 A 
ENDBRANCH  27  33
ENDBRANCH  23  27
ENDBRANCH   1  23
TORSDOF 6
ENDMDL
MODEL 5
REMARK VINA RESULT:      -8.6      6.299      8.366
REMARK  Name = 
REMARK  7 active torsions:
REMARK  status: ('A' for Active; 'I' for Inactive)
REMARK    1  A    between atoms: C_1  and  N_2
REMARK    2  A    between atoms: C_6  and  C_7
REMARK    3  A    between atoms: C_7  and  C_8
REMARK    4  A    between atoms: C_8  and  C_9
REMARK    5  A    between atoms: C_13  and  N_14
REMARK    6  A    between atoms: C_20  and  O_21
REMARK    7  A    between atoms: O_21  and  C_22
REMARK                            x       y       z     vdW  Elec       q    Type
REMARK                         _______ _______ _______ _____ _____    ______ ____
ROOT
ATOM      1  C   UNL     1       4.918   5.021  17.528  0.00  0.00    +0.000 A 
ATOM      2  C   UNL     1       5.322   4.186  16.466  0.00  0.00    +0.000 A 
ATOM      3  C   UNL     1       6.408   4.501  15.655  0.00  0.00    +0.000 A 
ATOM      4  C   UNL     1       7.111   5.682  15.870  0.00  0.00    +0.000 A 
ATOM      5  C   UNL     1       6.731   6.556  16.880  0.00  0.00    +0.000 A 
ATOM      6  C   UNL     1       5.673   6.197  17.728  0.00  0.00    +0.000 A 
ENDROOT
BRANCH   5   7
ATOM      7  N   UNL     1       7.347   7.804  17.102  0.00  0.00    +0.000 N 
ATOM      8  C   UNL     1       8.184   8.116  18.148  0.00  0.00    +0.000 C 
ATOM      9  O   UNL     1       8.581   7.320  18.996  0.00  0.00    +0.000 OA
ATOM     10  N   UNL     1       8.556   9.435  18.219  0.00  0.00    +0.000 N 
ATOM     11  C   UNL     1       8.192  10.533  17.340  0.00  0.00    +0.000 C 
ATOM     12  C   UNL     1       8.690  11.722  18.083  0.00  0.00    +0.000 C 
ATOM     13  C   UNL     1       9.328  11.346  19.202  0.00  0.00    +0.000 C 
ATOM     14  C   UNL     1       9.302   9.872  19.386  0.00  0.00    +0.000 C 
ATOM     15  H   UNL     1       7.300   8.468  16.345  0.00  0.00    +0.000 HD
BRANCH  13  16
ATOM     16  O   UNL     1       9.898  12.107  20.186  0.00  0.00    +0.000 OA
BRANCH  16  17
ATOM     17  C   UNL     1       9.112  12.671  21.155  0.00  0.00    +0.000 A 
ATOM     18  C   UNL     1       8.730  12.024  22.328  0.00  0.00    +0.000 A 
ATOM     19  C   UNL     1       7.919  12.692  23.238  0.00  0.00    +0.000 A 
ATOM     20  C   UNL     1       7.492  13.974  22.923  0.00  0.00    +0.000 A 
ATOM     21  N   UNL     1       7.813  14.614  21.778  0.00  0.00    +0.000 NA
ATOM     22  C   UNL     1       8.616  13.945  20.917  0.00  0.00    +0.000 A 
ENDBRANCH  16  17
ENDBRANCH  13  16
ENDBRANCH   5   7
BRANCH   1  23
ATOM     23  C   UNL     1       3.634   4.672  18.429  0.00  0.00    +0.000 C 
ATOM     24  C   UNL     1       3.309   5.602  19.632  0.00  0.00    +0.000 C 
ATOM     25  O   UNL     1       2.041   5.997  19.068  0.00  0.00    +0.000 OA
ATOM     26  C   UNL     1       2.282   5.218  17.884  0.00  0.00    +0.000 C 
BRANCH  23  27
ATOM     27  C   UNL     1       3.574   3.160  18.733  0.00  0.00    +0.000 C 
BRANCH  27  33
ATOM     28  C   UNL     1       0.480   2.637  19.221  0.00  0.00    +0.000 C 
ATOM     29  N   UNL     1       1.535   2.635  20.198  0.00  0.00    +0.000 N 
ATOM     30  C   UNL     1       1.355   2.449  21.537  0.00  0.00    +0.000 A 
ATOM     31  N   UNL     1       2.514   2.493  22.146  0.00  0.00    +0.000 NA
ATOM     32  N   UNL     1       3.473   2.731  21.194  0.00  0.00    +0.000 NA
ATOM     33  C   UNL     1       2.883   2.828  20.018  0.00  0.00    +0.000 A 
ENDBRANCH  27  33
ENDBRANCH  23  27
ENDBRANCH   1  23
TORSDOF 6
ENDMDL
MODEL 6
REMARK VINA RESULT:      -8.6      2.570     10.770
REMARK  Name = 
REMARK  7 active torsions:
REMARK  status: ('A' for Active; 'I' for Inactive)
REMARK    1  A    between atoms: C_1  and  N_2
REMARK    2  A    between atoms: C_6  and  C_7
REMARK    3  A    between atoms: C_7  and  C_8
REMARK    4  A    between atoms: C_8  and  C_9
REMARK    5  A    between atoms: C_13  and  N_14
REMARK    6  A    between atoms: C_20  and  O_21
REMARK    7  A    between atoms: O_21  and  C_22
REMARK                            x       y       z     vdW  Elec       q    Type
REMARK                         _______ _______ _______ _____ _____    ______ ____
ROOT
ATOM      1  C   UNL     1      -1.116  11.390  21.656  0.00  0.00    +0.000 A 
ATOM      2  C   UNL     1      -1.124  10.899  22.977  0.00  0.00    +0.000 A 
ATOM      3  C   UNL     1      -0.337   9.818  23.365  0.00  0.00    +0.000 A 
ATOM      4  C   UNL     1       0.467   9.178  22.428  0.00  0.00    +0.000 A 
ATOM      5  C   UNL     1       0.484   9.601  21.105  0.00  0.00    +0.000 A 
ATOM      6  C   UNL     1      -0.267  10.728  20.742  0.00  0.00    +0.000 A 
ENDROOT
BRANCH   5   7
ATOM      7  N   UNL     1       1.212   8.951  20.089  0.00  0.00    +0.000 N 
ATOM      8  C   UNL     1       1.682   7.660  20.132  0.00  0.00    +0.000 C 
ATOM      9  O   UNL     1       1.458   6.857  21.036  0.00  0.00    +0.000 OA
ATOM     10  N   UNL     1       2.474   7.294  19.074  0.00  0.00    +0.000 N 
ATOM     11  C   UNL     1       2.874   8.083  17.920  0.00  0.00    +0.000 C 
ATOM     12  C   UNL     1       3.916   7.228  17.289  0.00  0.00    +0.000 C 
ATOM     13  C   UNL     1       4.039   6.067  17.950  0.00  0.00    +0.000 C 
ATOM     14  C   UNL     1       3.139   6.005  19.132  0.00  0.00    +0.000 C 
ATOM     15  H   UNL     1       1.248   9.417  19.195  0.00  0.00    +0.000 HD
BRANCH  13  16
ATOM     16  O   UNL     1       4.895   5.021  17.739  0.00  0.00    +0.000 OA
BRANCH  16  17
ATOM     17  C   UNL     1       5.568   4.919  16.551  0.00  0.00    +0.000 A 
ATOM     18  C   UNL     1       5.109   4.195  15.451  0.00  0.00    +0.000 A 
ATOM     19  C   UNL     1       5.882   4.153  14.297  0.00  0.00    +0.000 A 
ATOM     20  C   UNL     1       7.104   4.809  14.297  0.00  0.00    +0.000 A 
ATOM     21  N   UNL     1       7.594   5.487  15.358  0.00  0.00    +0.000 NA
ATOM     22  C   UNL     1       6.813   5.524  16.463  0.00  0.00    +0.000 A 
ENDBRANCH  16  17
ENDBRANCH  13  16
ENDBRANCH   5   7
BRANCH   1  23
ATOM     23  C   UNL     1      -2.063  12.609  21.207  0.00  0.00    +0.000 C 
ATOM     24  C   UNL     1      -3.434  12.772  21.922  0.00  0.00    +0.000 C 
ATOM     25  O   UNL     1      -3.071  14.060  22.464  0.00  0.00    +0.000 OA
ATOM     26  C   UNL     1      -1.754  13.969  21.897  0.00  0.00    +0.000 C 
BRANCH  23  27
ATOM     27  C   UNL     1      -2.107  12.730  19.670  0.00  0.00    +0.000 C 
BRANCH  27  33
ATOM     28  C   UNL     1      -1.839  10.301  17.642  0.00  0.00    +0.000 C 
ATOM     29  N   UNL     1      -3.048  10.905  18.133  0.00  0.00    +0.000 N 
ATOM     30  C   UNL     1      -4.307  10.545  17.753  0.00  0.00    +0.000 A 
ATOM     31  N   UNL     1      -5.185  11.279  18.391  0.00  0.00    +0.000 NA
ATOM     32  N   UNL     1      -4.491  12.151  19.192  0.00  0.00    +0.000 NA
ATOM     33  C   UNL     1      -3.200  11.934  19.030  0.00  0.00    +0.000 A 
ENDBRANCH  27  33
ENDBRANCH  23  27
ENDBRANCH   1  23
TORSDOF 6
ENDMDL
MODEL 7
REMARK VINA RESULT:      -8.6      1.556      1.900
REMARK  Name = 
REMARK  7 active torsions:
REMARK  status: ('A' for Active; 'I' for Inactive)
REMARK    1  A    between atoms: C_1  and  N_2
REMARK    2  A    between atoms: C_6  and  C_7
REMARK    3  A    between atoms: C_7  and  C_8
REMARK    4  A    between atoms: C_8  and  C_9
REMARK    5  A    between atoms: C_13  and  N_14
REMARK    6  A    between atoms: C_20  and  O_21
REMARK    7  A    between atoms: O_21  and  C_22
REMARK                            x       y       z     vdW  Elec       q    Type
REMARK                         _______ _______ _______ _____ _____    ______ ____
ROOT
ATOM      1  C   UNL     1       2.872   5.767  18.876  0.00  0.00    +0.000 A 
ATOM      2  C   UNL     1       3.417   6.378  17.729  0.00  0.00    +0.000 A 
ATOM      3  C   UNL     1       3.237   7.732  17.461  0.00  0.00    +0.000 A 
ATOM      4  C   UNL     1       2.480   8.512  18.328  0.00  0.00    +0.000 A 
ATOM      5  C   UNL     1       1.891   7.950  19.453  0.00  0.00    +0.000 A 
ATOM      6  C   UNL     1       2.131   6.599  19.743  0.00  0.00    +0.000 A 
ENDROOT
BRANCH   5   7
ATOM      7  N   UNL     1       1.048   8.662  20.329  0.00  0.00    +0.000 N 
ATOM      8  C   UNL     1       0.199   9.686  19.978  0.00  0.00    +0.000 C 
ATOM      9  O   UNL     1      -0.006  10.070  18.829  0.00  0.00    +0.000 OA
ATOM     10  N   UNL     1      -0.425  10.309  21.029  0.00  0.00    +0.000 N 
ATOM     11  C   UNL     1      -0.313  10.028  22.451  0.00  0.00    +0.000 C 
ATOM     12  C   UNL     1      -1.014  11.187  23.066  0.00  0.00    +0.000 C 
ATOM     13  C   UNL     1      -1.529  11.985  22.118  0.00  0.00    +0.000 C 
ATOM     14  C   UNL     1      -1.205  11.501  20.751  0.00  0.00    +0.000 C 
ATOM     15  H   UNL     1       0.939   8.280  21.256  0.00  0.00    +0.000 HD
BRANCH  13  16
ATOM     16  O   UNL     1      -2.207  13.168  22.238  0.00  0.00    +0.000 OA
BRANCH  16  17
ATOM     17  C   UNL     1      -2.087  13.911  23.381  0.00  0.00    +0.000 A 
ATOM     18  C   UNL     1      -3.082  14.024  24.350  0.00  0.00    +0.000 A 
ATOM     19  C   UNL     1      -2.854  14.817  25.468  0.00  0.00    +0.000 A 
ATOM     20  C   UNL     1      -1.648  15.496  25.559  0.00  0.00    +0.000 A 
ATOM     21  N   UNL     1      -0.678  15.438  24.620  0.00  0.00    +0.000 NA
ATOM     22  C   UNL     1      -0.923  14.647  23.549  0.00  0.00    +0.000 A 
ENDBRANCH  16  17
ENDBRANCH  13  16
ENDBRANCH   5   7
BRANCH   1  23
ATOM     23  C   UNL     1       3.046   4.192  19.152  0.00  0.00    +0.000 C 
ATOM     24  C   UNL     1       2.858   3.679  20.608  0.00  0.00    +0.000 C 
ATOM     25  O   UNL     1       1.723   2.866  20.243  0.00  0.00    +0.000 OA
ATOM     26  C   UNL     1       1.775   3.335  18.886  0.00  0.00    +0.000 C 
BRANCH  23  27
ATOM     27  C   UNL     1       4.287   3.643  18.418  0.00  0.00    +0.000 C 
BRANCH  27  33
ATOM     28  C   UNL     1       6.566   4.493  16.377  0.00  0.00    +0.000 C 
ATOM     29  N   UNL     1       6.524   4.731  17.794  0.00  0.00    +0.000 N 
ATOM     30  C   UNL     1       7.513   5.337  18.510  0.00  0.00    +0.000 A 
ATOM     31  N   UNL     1       7.161   5.410  19.770  0.00  0.00    +0.000 NA
ATOM     32  N   UNL     1       5.927   4.825  19.889  0.00  0.00    +0.000 NA
ATOM     33  C   UNL     1       5.543   4.404  18.699  0.00  0.00    +0.000 A 
ENDBRANCH  27  33
ENDBRANCH  23  27
ENDBRANCH   1  23
TORSDOF 6
ENDMDL
MODEL 8
REMARK VINA RESULT:      -8.6      6.261      8.377
REMARK  Name = 
REMARK  7 active torsions:
REMARK  status: ('A' for Active; 'I' for Inactive)
REMARK    1  A    between atoms: C_1  and  N_2
REMARK    2  A    between atoms: C_6  and  C_7
REMARK    3  A    between atoms: C_7  and  C_8
REMARK    4  A    between atoms: C_8  and  C_9
REMARK    5  A    between atoms: C_13  and  N_14
REMARK    6  A    between atoms: C_20  and  O_21
REMARK    7  A    between atoms: O_21  and  C_22
REMARK                            x       y       z     vdW  Elec       q    Type
REMARK                         _______ _______ _______ _____ _____    ______ ____
ROOT
ATOM      1  C   UNL     1       4.444   5.084  17.367  0.00  0.00    +0.000 A 
ATOM      2  C   UNL     1       4.817   4.238  16.303  0.00  0.00    +0.000 A 
ATOM      3  C   UNL     1       5.947   4.484  15.528  0.00  0.00    +0.000 A 
ATOM      4  C   UNL     1       6.727   5.606  15.784  0.00  0.00    +0.000 A 
ATOM      5  C   UNL     1       6.384   6.490  16.798  0.00  0.00    +0.000 A 
ATOM      6  C   UNL     1       5.278   6.198  17.609  0.00  0.00    +0.000 A 
ENDROOT
BRANCH   5   7
ATOM      7  N   UNL     1       7.083   7.685  17.060  0.00  0.00    +0.000 N 
ATOM      8  C   UNL     1       7.998   7.881  18.068  0.00  0.00    +0.000 C 
ATOM      9  O   UNL     1       8.398   7.009  18.837  0.00  0.00    +0.000 OA
ATOM     10  N   UNL     1       8.450   9.170  18.199  0.00  0.00    +0.000 N 
ATOM     11  C   UNL     1       8.098  10.343  17.416  0.00  0.00    +0.000 C 
ATOM     12  C   UNL     1       8.708  11.450  18.201  0.00  0.00    +0.000 C 
ATOM     13  C   UNL     1       9.389  10.966  19.251  0.00  0.00    +0.000 C 
ATOM     14  C   UNL     1       9.288   9.486  19.342  0.00  0.00    +0.000 C 
ATOM     15  H   UNL     1       7.029   8.400  16.351  0.00  0.00    +0.000 HD
BRANCH  13  16
ATOM     16  O   UNL     1      10.060  11.627  20.244  0.00  0.00    +0.000 OA
BRANCH  16  17
ATOM     17  C   UNL     1       9.382  12.473  21.079  0.00  0.00    +0.000 A 
ATOM     18  C   UNL     1       9.464  13.864  21.021  0.00  0.00    +0.000 A 
ATOM     19  C   UNL     1       8.738  14.626  21.928  0.00  0.00    +0.000 A 
ATOM     20  C   UNL     1       7.981  13.965  22.885  0.00  0.00    +0.000 A 
ATOM     21  N   UNL     1       7.910  12.620  22.993  0.00  0.00    +0.000 NA
ATOM     22  C   UNL     1       8.616  11.905  22.086  0.00  0.00    +0.000 A 
ENDBRANCH  16  17
ENDBRANCH  13  16
ENDBRANCH   5   7
BRANCH   1  23
ATOM     23  C   UNL     1       3.111   4.817  18.225  0.00  0.00    +0.000 C 
ATOM     24  C   UNL     1       1.780   5.446  17.724  0.00  0.00    +0.000 C 
ATOM     25  O   UNL     1       1.171   4.154  17.521  0.00  0.00    +0.000 OA
ATOM     26  C   UNL     1       2.381   3.480  17.905  0.00  0.00    +0.000 C 
BRANCH  23  27
ATOM     27  C   UNL     1       3.390   4.985  19.733  0.00  0.00    +0.000 C 
BRANCH  27  33
ATOM     28  C   UNL     1       4.509   2.093  20.417  0.00  0.00    +0.000 C 
ATOM     29  N   UNL     1       3.263   2.673  20.838  0.00  0.00    +0.000 N 
ATOM     30  C   UNL     1       2.318   2.030  21.581  0.00  0.00    +0.000 A 
ATOM     31  N   UNL     1       1.310   2.838  21.803  0.00  0.00    +0.000 NA
ATOM     32  N   UNL     1       1.588   4.027  21.179  0.00  0.00    +0.000 NA
ATOM     33  C   UNL     1       2.762   3.928  20.586  0.00  0.00    +0.000 A 
ENDBRANCH  27  33
ENDBRANCH  23  27
ENDBRANCH   1  23
TORSDOF 6
ENDMDL
MODEL 9
REMARK VINA RESULT:      -8.5      3.633     10.311
REMARK  Name = 
REMARK  7 active torsions:
REMARK  status: ('A' for Active; 'I' for Inactive)
REMARK    1  A    between atoms: C_1  and  N_2
REMARK    2  A    between atoms: C_6  and  C_7
REMARK    3  A    between atoms: C_7  and  C_8
REMARK    4  A    between atoms: C_8  and  C_9
REMARK    5  A    between atoms: C_13  and  N_14
REMARK    6  A    between atoms: C_20  and  O_21
REMARK    7  A    between atoms: O_21  and  C_22
REMARK                            x       y       z     vdW  Elec       q    Type
REMARK                         _______ _______ _______ _____ _____    ______ ____
ROOT
ATOM      1  C   UNL     1       0.307  12.763  19.116  0.00  0.00    +0.000 A 
ATOM      2  C   UNL     1      -0.905  12.695  18.400  0.00  0.00    +0.000 A 
ATOM      3  C   UNL     1      -1.470  11.479  18.025  0.00  0.00    +0.000 A 
ATOM      4  C   UNL     1      -0.819  10.290  18.337  0.00  0.00    +0.000 A 
ATOM      5  C   UNL     1       0.396  10.305  19.010  0.00  0.00    +0.000 A 
ATOM      6  C   UNL     1       0.923  11.533  19.435  0.00  0.00    +0.000 A 
ENDROOT
BRANCH   5   7
ATOM      7  N   UNL     1       1.147   9.146  19.288  0.00  0.00    +0.000 N 
ATOM      8  C   UNL     1       1.967   8.484  18.404  0.00  0.00    +0.000 C 
ATOM      9  O   UNL     1       2.227   8.863  17.264  0.00  0.00    +0.000 OA
ATOM     10  N   UNL     1       2.492   7.305  18.870  0.00  0.00    +0.000 N 
ATOM     11  C   UNL     1       2.303   6.673  20.165  0.00  0.00    +0.000 C 
ATOM     12  C   UNL     1       2.907   5.329  19.960  0.00  0.00    +0.000 C 
ATOM     13  C   UNL     1       3.444   5.234  18.734  0.00  0.00    +0.000 C 
ATOM     14  C   UNL     1       3.232   6.472  17.939  0.00  0.00    +0.000 C 
ATOM     15  H   UNL     1       1.214   8.877  20.257  0.00  0.00    +0.000 HD
BRANCH  13  16
ATOM     16  O   UNL     1       4.056   4.175  18.122  0.00  0.00    +0.000 OA
BRANCH  16  17
ATOM     17  C   UNL     1       5.077   4.394  17.237  0.00  0.00    +0.000 A 
ATOM     18  C   UNL     1       4.954   4.274  15.854  0.00  0.00    +0.000 A 
ATOM     19  C   UNL     1       6.064   4.512  15.050  0.00  0.00    +0.000 A 
ATOM     20  C   UNL     1       7.266   4.829  15.665  0.00  0.00    +0.000 A 
ATOM     21  N   UNL     1       7.428   4.916  17.004  0.00  0.00    +0.000 NA
ATOM     22  C   UNL     1       6.327   4.694  17.760  0.00  0.00    +0.000 A 
ENDBRANCH  16  17
ENDBRANCH  13  16
ENDBRANCH   5   7
BRANCH   1  23
ATOM     23  C   UNL     1       0.975  14.174  19.504  0.00  0.00    +0.000 C 
ATOM     24  C   UNL     1       0.375  15.464  18.879  0.00  0.00    +0.000 C 
ATOM     25  O   UNL     1      -0.009  15.988  20.168  0.00  0.00    +0.000 OA
ATOM     26  C   UNL     1       0.457  14.802  20.831  0.00  0.00    +0.000 C 
BRANCH  23  27
ATOM     27  C   UNL     1       2.514  14.079  19.463  0.00  0.00    +0.000 C 
BRANCH  27  33
ATOM     28  C   UNL     1       3.551  16.946  20.351  0.00  0.00    +0.000 C 
ATOM     29  N   UNL     1       3.642  15.714  21.087  0.00  0.00    +0.000 N 
ATOM     30  C   UNL     1       4.250  15.575  22.299  0.00  0.00    +0.000 A 
ATOM     31  N   UNL     1       4.147  14.332  22.701  0.00  0.00    +0.000 NA
ATOM     32  N   UNL     1       3.476  13.636  21.728  0.00  0.00    +0.000 NA
ATOM     33  C   UNL     1       3.179  14.465  20.746  0.00  0.00    +0.000 A 
ENDBRANCH  27  33
ENDBRANCH  23  27
ENDBRANCH   1  23
TORSDOF 6
ENDMDL
