MODEL 1
REMARK VINA RESULT:      -8.9      0.000      0.000
REMARK  Name = 
REMARK  6 active torsions:
REMARK  status: ('A' for Active; 'I' for Inactive)
REMARK    1  A    between atoms: C_2  and  C_13
REMARK    2  A    between atoms: N_3  and  C_4
REMARK    3  A    between atoms: C_4  and  C_5
REMARK    4  A    between atoms: C_5  and  C_6
REMARK    5  A    between atoms: N_20  and  C_21
REMARK    6  A    between atoms: C_21  and  C_22
REMARK                            x       y       z     vdW  Elec       q    Type
REMARK                         _______ _______ _______ _____ _____    ______ ____
ROOT
ATOM      1  C   UNL     1       2.725   6.722  18.989  0.00  0.00    +0.000 A 
ATOM      2  C   UNL     1       2.572   7.665  17.976  0.00  0.00    +0.000 A 
ATOM      3  N   UNL     1       1.868   8.828  18.065  0.00  0.00    +0.000 NA
ATOM      4  C   UNL     1       1.325   9.014  19.287  0.00  0.00    +0.000 A 
ATOM      5  C   UNL     1       1.435   8.171  20.387  0.00  0.00    +0.000 A 
ATOM      6  C   UNL     1       0.727   8.839  21.409  0.00  0.00    +0.000 A 
ATOM      7  N   UNL     1       0.200  10.001  21.011  0.00  0.00    +0.000 NA
ATOM      8  N   UNL     1       0.543  10.065  19.697  0.00  0.00    +0.000 N 
ATOM      9  C   UNL     1       2.158   6.974  20.244  0.00  0.00    +0.000 A 
ENDROOT
BRANCH   1  11
ATOM     10  O   UNL     1       4.168   4.964  19.572  0.00  0.00    +0.000 OA
ATOM     11  C   UNL     1       3.508   5.498  18.688  0.00  0.00    +0.000 C 
ATOM     12  N   UNL     1       3.471   5.042  17.391  0.00  0.00    +0.000 N 
ATOM     13  H   UNL     1       2.884   5.485  16.693  0.00  0.00    +0.000 HD
BRANCH  12  14
ATOM     14  C   UNL     1       4.200   3.867  16.951  0.00  0.00    +0.000 C 
BRANCH  14  15
ATOM     15  C   UNL     1       5.353   4.189  16.008  0.00  0.00    +0.000 C 
BRANCH  15  16
ATOM     16  C   UNL     1       5.814   5.631  16.125  0.00  0.00    +0.000 C 
ATOM     17  O   UNL     1       5.343   6.526  15.420  0.00  0.00    +0.000 OA
ATOM     18  N   UNL     1       6.787   5.890  17.066  0.00  0.00    +0.000 N 
ATOM     19  C   UNL     1       7.461   4.947  17.940  0.00  0.00    +0.000 C 
ATOM     20  C   UNL     1       7.831   5.798  19.143  0.00  0.00    +0.000 C 
ATOM     21  C   UNL     1       8.158   7.155  18.529  0.00  0.00    +0.000 C 
ATOM     22  C   UNL     1       7.279   7.239  17.285  0.00  0.00    +0.000 C 
ENDBRANCH  15  16
ENDBRANCH  14  15
ENDBRANCH  12  14
ENDBRANCH   1  11
BRANCH   8  23
ATOM     23  C   UNL     1       0.090  11.179  18.876  0.00  0.00    +0.000 C 
BRANCH  23  24
ATOM     24  C   UNL     1      -1.323  10.954  18.393  0.00  0.00    +0.000 A 
ATOM     25  C   UNL     1      -1.595  10.004  17.396  0.00  0.00    +0.000 A 
ATOM     26  C   UNL     1      -2.885   9.864  16.884  0.00  0.00    +0.000 A 
ATOM     27  C   UNL     1      -3.916  10.670  17.363  0.00  0.00    +0.000 A 
ATOM     28  C   UNL     1      -3.664  11.601  18.368  0.00  0.00    +0.000 A 
ATOM     29  C   UNL     1      -2.375  11.743  18.883  0.00  0.00    +0.000 A 
ENDBRANCH  23  24
ENDBRANCH   8  23
TORSDOF 6
ENDMDL
MODEL 2
REMARK VINA RESULT:      -8.7      1.911      3.474
REMARK  Name = 
REMARK  6 active torsions:
REMARK  status: ('A' for Active; 'I' for Inactive)
REMARK    1  A    between atoms: C_2  and  C_13
REMARK    2  A    between atoms: N_3  and  C_4
REMARK    3  A    between atoms: C_4  and  C_5
REMARK    4  A    between atoms: C_5  and  C_6
REMARK    5  A    between atoms: N_20  and  C_21
REMARK    6  A    between atoms: C_21  and  C_22
REMARK                            x       y       z     vdW  Elec       q    Type
REMARK                         _______ _______ _______ _____ _____    ______ ____
ROOT
ATOM      1  C   UNL     1       2.919   6.958  18.923  0.00  0.00    +0.000 A 
ATOM      2  C   UNL     1       2.780   7.938  17.943  0.00  0.00    +0.000 A 
ATOM      3  N   UNL     1       1.971   9.031  18.014  0.00  0.00    +0.000 NA
ATOM      4  C   UNL     1       1.299   9.105  19.183  0.00  0.00    +0.000 A 
ATOM      5  C   UNL     1       1.377   8.217  20.249  0.00  0.00    +0.000 A 
ATOM      6  C   UNL     1       0.519   8.768  21.225  0.00  0.00    +0.000 A 
ATOM      7  N   UNL     1      -0.069   9.901  20.829  0.00  0.00    +0.000 NA
ATOM      8  N   UNL     1       0.391  10.064  19.560  0.00  0.00    +0.000 N 
ATOM      9  C   UNL     1       2.214   7.094  20.125  0.00  0.00    +0.000 A 
ENDROOT
BRANCH   1  11
ATOM     10  O   UNL     1       4.796   5.623  19.377  0.00  0.00    +0.000 OA
ATOM     11  C   UNL     1       3.832   5.822  18.647  0.00  0.00    +0.000 C 
ATOM     12  N   UNL     1       3.553   5.059  17.537  0.00  0.00    +0.000 N 
ATOM     13  H   UNL     1       2.725   5.227  16.976  0.00  0.00    +0.000 HD
BRANCH  12  14
ATOM     14  C   UNL     1       4.369   3.927  17.138  0.00  0.00    +0.000 C 
BRANCH  14  15
ATOM     15  C   UNL     1       3.823   2.588  17.622  0.00  0.00    +0.000 C 
BRANCH  15  16
ATOM     16  C   UNL     1       3.912   2.436  19.131  0.00  0.00    +0.000 C 
ATOM     17  O   UNL     1       4.976   2.183  19.700  0.00  0.00    +0.000 OA
ATOM     18  N   UNL     1       2.738   2.600  19.835  0.00  0.00    +0.000 N 
ATOM     19  C   UNL     1       1.410   2.864  19.311  0.00  0.00    +0.000 C 
ATOM     20  C   UNL     1       0.737   3.616  20.446  0.00  0.00    +0.000 C 
ATOM     21  C   UNL     1       1.316   2.962  21.697  0.00  0.00    +0.000 C 
ATOM     22  C   UNL     1       2.713   2.509  21.284  0.00  0.00    +0.000 C 
ENDBRANCH  15  16
ENDBRANCH  14  15
ENDBRANCH  12  14
ENDBRANCH   1  11
BRANCH   8  23
ATOM     23  C   UNL     1      -0.078  11.178  18.748  0.00  0.00    +0.000 C 
BRANCH  23  24
ATOM     24  C   UNL     1      -1.497  10.948  18.286  0.00  0.00    +0.000 A 
ATOM     25  C   UNL     1      -1.778  10.004  17.286  0.00  0.00    +0.000 A 
ATOM     26  C   UNL     1      -3.075   9.861  16.792  0.00  0.00    +0.000 A 
ATOM     27  C   UNL     1      -4.104  10.657  17.292  0.00  0.00    +0.000 A 
ATOM     28  C   UNL     1      -3.841  11.583  18.300  0.00  0.00    +0.000 A 
ATOM     29  C   UNL     1      -2.545  11.727  18.797  0.00  0.00    +0.000 A 
ENDBRANCH  23  24
ENDBRANCH   8  23
TORSDOF 6
ENDMDL
MODEL 3
REMARK VINA RESULT:      -8.3      1.901      3.326
REMARK  Name = 
REMARK  6 active torsions:
REMARK  status: ('A' for Active; 'I' for Inactive)
REMARK    1  A    between atoms: C_2  and  C_13
REMARK    2  A    between atoms: N_3  and  C_4
REMARK    3  A    between atoms: C_4  and  C_5
REMARK    4  A    between atoms: C_5  and  C_6
REMARK    5  A    between atoms: N_20  and  C_21
REMARK    6  A    between atoms: C_21  and  C_22
REMARK                            x       y       z     vdW  Elec       q    Type
REMARK                         _______ _______ _______ _____ _____    ______ ____
ROOT
ATOM      1  C   UNL     1       2.872   7.199  18.805  0.00  0.00    +0.000 A 
ATOM      2  C   UNL     1       2.683   8.172  17.827  0.00  0.00    +0.000 A 
ATOM      3  N   UNL     1       1.858   9.252  17.921  0.00  0.00    +0.000 NA
ATOM      4  C   UNL     1       1.225   9.319  19.112  0.00  0.00    +0.000 A 
ATOM      5  C   UNL     1       1.355   8.437  20.178  0.00  0.00    +0.000 A 
ATOM      6  C   UNL     1       0.521   8.976  21.181  0.00  0.00    +0.000 A 
ATOM      7  N   UNL     1      -0.100  10.097  20.801  0.00  0.00    +0.000 NA
ATOM      8  N   UNL     1       0.314  10.264  19.517  0.00  0.00    +0.000 N 
ATOM      9  C   UNL     1       2.206   7.327  20.030  0.00  0.00    +0.000 A 
ENDROOT
BRANCH   1  11
ATOM     10  O   UNL     1       4.765   5.874  19.223  0.00  0.00    +0.000 OA
ATOM     11  C   UNL     1       3.795   6.077  18.502  0.00  0.00    +0.000 C 
ATOM     12  N   UNL     1       3.518   5.333  17.378  0.00  0.00    +0.000 N 
ATOM     13  H   UNL     1       2.685   5.504  16.825  0.00  0.00    +0.000 HD
BRANCH  12  14
ATOM     14  C   UNL     1       4.342   4.218  16.953  0.00  0.00    +0.000 C 
BRANCH  14  15
ATOM     15  C   UNL     1       3.889   2.879  17.524  0.00  0.00    +0.000 C 
BRANCH  15  16
ATOM     16  C   UNL     1       2.475   2.932  18.076  0.00  0.00    +0.000 C 
ATOM     17  O   UNL     1       1.487   2.965  17.339  0.00  0.00    +0.000 OA
ATOM     18  N   UNL     1       2.352   2.940  19.449  0.00  0.00    +0.000 N 
ATOM     19  C   UNL     1       3.411   2.942  20.442  0.00  0.00    +0.000 C 
ATOM     20  C   UNL     1       2.762   2.261  21.636  0.00  0.00    +0.000 C 
ATOM     21  C   UNL     1       1.314   2.736  21.571  0.00  0.00    +0.000 C 
ATOM     22  C   UNL     1       1.047   2.958  20.085  0.00  0.00    +0.000 C 
ENDBRANCH  15  16
ENDBRANCH  14  15
ENDBRANCH  12  14
ENDBRANCH   1  11
BRANCH   8  23
ATOM     23  C   UNL     1      -0.201  11.366  18.718  0.00  0.00    +0.000 C 
BRANCH  23  24
ATOM     24  C   UNL     1      -1.588  11.058  18.205  0.00  0.00    +0.000 A 
ATOM     25  C   UNL     1      -1.780  10.104  17.194  0.00  0.00    +0.000 A 
ATOM     26  C   UNL     1      -3.049   9.890  16.655  0.00  0.00    +0.000 A 
ATOM     27  C   UNL     1      -4.138  10.624  17.120  0.00  0.00    +0.000 A 
ATOM     28  C   UNL     1      -3.964  11.559  18.138  0.00  0.00    +0.000 A 
ATOM     29  C   UNL     1      -2.696  11.775  18.681  0.00  0.00    +0.000 A 
ENDBRANCH  23  24
ENDBRANCH   8  23
TORSDOF 6
ENDMDL
MODEL 4
REMARK VINA RESULT:      -8.1      1.605      2.769
REMARK  Name = 
REMARK  6 active torsions:
REMARK  status: ('A' for Active; 'I' for Inactive)
REMARK    1  A    between atoms: C_2  and  C_13
REMARK    2  A    between atoms: N_3  and  C_4
REMARK    3  A    between atoms: C_4  and  C_5
REMARK    4  A    between atoms: C_5  and  C_6
REMARK    5  A    between atoms: N_20  and  C_21
REMARK    6  A    between atoms: C_21  and  C_22
REMARK                            x       y       z     vdW  Elec       q    Type
REMARK                         _______ _______ _______ _____ _____    ______ ____
ROOT
ATOM      1  C   UNL     1       2.590   7.028  19.000  0.00  0.00    +0.000 A 
ATOM      2  C   UNL     1       2.423   7.908  17.933  0.00  0.00    +0.000 A 
ATOM      3  N   UNL     1       1.729   9.079  17.963  0.00  0.00    +0.000 NA
ATOM      4  C   UNL     1       1.211   9.344  19.181  0.00  0.00    +0.000 A 
ATOM      5  C   UNL     1       1.337   8.571  20.329  0.00  0.00    +0.000 A 
ATOM      6  C   UNL     1       0.653   9.306  21.321  0.00  0.00    +0.000 A 
ATOM      7  N   UNL     1       0.125  10.445  20.861  0.00  0.00    +0.000 NA
ATOM      8  N   UNL     1       0.443  10.425  19.539  0.00  0.00    +0.000 N 
ATOM      9  C   UNL     1       2.049   7.362  20.247  0.00  0.00    +0.000 A 
ENDROOT
BRANCH   1  11
ATOM     10  O   UNL     1       4.037   5.302  19.663  0.00  0.00    +0.000 OA
ATOM     11  C   UNL     1       3.359   5.782  18.762  0.00  0.00    +0.000 C 
ATOM     12  N   UNL     1       3.292   5.245  17.497  0.00  0.00    +0.000 N 
ATOM     13  H   UNL     1       2.691   5.646  16.785  0.00  0.00    +0.000 HD
BRANCH  12  14
ATOM     14  C   UNL     1       4.004   4.039  17.118  0.00  0.00    +0.000 C 
BRANCH  14  15
ATOM     15  C   UNL     1       5.127   4.289  16.117  0.00  0.00    +0.000 C 
BRANCH  15  16
ATOM     16  C   UNL     1       5.666   5.707  16.193  0.00  0.00    +0.000 C 
ATOM     17  O   UNL     1       5.227   6.612  15.481  0.00  0.00    +0.000 OA
ATOM     18  N   UNL     1       6.675   5.931  17.105  0.00  0.00    +0.000 N 
ATOM     19  C   UNL     1       7.319   4.970  17.983  0.00  0.00    +0.000 C 
ATOM     20  C   UNL     1       7.763   5.823  19.159  0.00  0.00    +0.000 C 
ATOM     21  C   UNL     1       8.148   7.149  18.510  0.00  0.00    +0.000 C 
ATOM     22  C   UNL     1       7.243   7.256  17.285  0.00  0.00    +0.000 C 
ENDBRANCH  15  16
ENDBRANCH  14  15
ENDBRANCH  12  14
ENDBRANCH   1  11
BRANCH   8  23
ATOM     23  C   UNL     1      -0.018  11.489  18.659  0.00  0.00    +0.000 C 
BRANCH  23  24
ATOM     24  C   UNL     1       0.870  12.705  18.771  0.00  0.00    +0.000 A 
ATOM     25  C   UNL     1       0.359  13.922  19.249  0.00  0.00    +0.000 A 
ATOM     26  C   UNL     1       1.154  15.068  19.261  0.00  0.00    +0.000 A 
ATOM     27  C   UNL     1       2.467  15.011  18.799  0.00  0.00    +0.000 A 
ATOM     28  C   UNL     1       2.993  13.804  18.341  0.00  0.00    +0.000 A 
ATOM     29  C   UNL     1       2.200  12.656  18.329  0.00  0.00    +0.000 A 
ENDBRANCH  23  24
ENDBRANCH   8  23
TORSDOF 6
ENDMDL
MODEL 5
REMARK VINA RESULT:      -8.0      1.598      2.807
REMARK  Name = 
REMARK  6 active torsions:
REMARK  status: ('A' for Active; 'I' for Inactive)
REMARK    1  A    between atoms: C_2  and  C_13
REMARK    2  A    between atoms: N_3  and  C_4
REMARK    3  A    between atoms: C_4  and  C_5
REMARK    4  A    between atoms: C_5  and  C_6
REMARK    5  A    between atoms: N_20  and  C_21
REMARK    6  A    between atoms: C_21  and  C_22
REMARK                            x       y       z     vdW  Elec       q    Type
REMARK                         _______ _______ _______ _____ _____    ______ ____
ROOT
ATOM      1  C   UNL     1       2.757   6.690  19.002  0.00  0.00    +0.000 A 
ATOM      2  C   UNL     1       2.699   7.722  18.069  0.00  0.00    +0.000 A 
ATOM      3  N   UNL     1       2.019   8.893  18.212  0.00  0.00    +0.000 NA
ATOM      4  C   UNL     1       1.394   8.988  19.405  0.00  0.00    +0.000 A 
ATOM      5  C   UNL     1       1.404   8.050  20.431  0.00  0.00    +0.000 A 
ATOM      6  C   UNL     1       0.640   8.646  21.457  0.00  0.00    +0.000 A 
ATOM      7  N   UNL     1       0.171   9.854  21.128  0.00  0.00    +0.000 NA
ATOM      8  N   UNL     1       0.609  10.022  19.852  0.00  0.00    +0.000 N 
ATOM      9  C   UNL     1       2.107   6.848  20.232  0.00  0.00    +0.000 A 
ENDROOT
BRANCH   1  11
ATOM     10  O   UNL     1       4.173   4.887  19.513  0.00  0.00    +0.000 OA
ATOM     11  C   UNL     1       3.530   5.474  18.649  0.00  0.00    +0.000 C 
ATOM     12  N   UNL     1       3.507   5.086  17.329  0.00  0.00    +0.000 N 
ATOM     13  H   UNL     1       2.934   5.572  16.648  0.00  0.00    +0.000 HD
BRANCH  12  14
ATOM     14  C   UNL     1       4.228   3.927  16.839  0.00  0.00    +0.000 C 
BRANCH  14  15
ATOM     15  C   UNL     1       5.372   4.281  15.895  0.00  0.00    +0.000 C 
BRANCH  15  16
ATOM     16  C   UNL     1       5.827   5.722  16.050  0.00  0.00    +0.000 C 
ATOM     17  O   UNL     1       5.364   6.631  15.358  0.00  0.00    +0.000 OA
ATOM     18  N   UNL     1       6.786   5.963  17.010  0.00  0.00    +0.000 N 
ATOM     19  C   UNL     1       7.450   5.002  17.873  0.00  0.00    +0.000 C 
ATOM     20  C   UNL     1       7.801   5.828  19.099  0.00  0.00    +0.000 C 
ATOM     21  C   UNL     1       8.133   7.199  18.520  0.00  0.00    +0.000 C 
ATOM     22  C   UNL     1       7.271   7.308  17.265  0.00  0.00    +0.000 C 
ENDBRANCH  15  16
ENDBRANCH  14  15
ENDBRANCH  12  14
ENDBRANCH   1  11
BRANCH   8  23
ATOM     23  C   UNL     1       0.243  11.216  19.104  0.00  0.00    +0.000 C 
BRANCH  23  24
ATOM     24  C   UNL     1       1.276  12.303  19.283  0.00  0.00    +0.000 A 
ATOM     25  C   UNL     1       2.182  12.604  18.253  0.00  0.00    +0.000 A 
ATOM     26  C   UNL     1       3.197  13.541  18.454  0.00  0.00    +0.000 A 
ATOM     27  C   UNL     1       3.316  14.187  19.683  0.00  0.00    +0.000 A 
ATOM     28  C   UNL     1       2.409  13.913  20.705  0.00  0.00    +0.000 A 
ATOM     29  C   UNL     1       1.393  12.978  20.507  0.00  0.00    +0.000 A 
ENDBRANCH  23  24
ENDBRANCH   8  23
TORSDOF 6
ENDMDL
MODEL 6
REMARK VINA RESULT:      -7.9      3.925      9.600
REMARK  Name = 
REMARK  6 active torsions:
REMARK  status: ('A' for Active; 'I' for Inactive)
REMARK    1  A    between atoms: C_2  and  C_13
REMARK    2  A    between atoms: N_3  and  C_4
REMARK    3  A    between atoms: C_4  and  C_5
REMARK    4  A    between atoms: C_5  and  C_6
REMARK    5  A    between atoms: N_20  and  C_21
REMARK    6  A    between atoms: C_21  and  C_22
REMARK                            x       y       z     vdW  Elec       q    Type
REMARK                         _______ _______ _______ _____ _____    ______ ____
ROOT
ATOM      1  C   UNL     1       0.149  10.094  21.310  0.00  0.00    +0.000 A 
ATOM      2  C   UNL     1       0.854   9.064  21.927  0.00  0.00    +0.000 A 
ATOM      3  N   UNL     1       1.647   8.150  21.302  0.00  0.00    +0.000 NA
ATOM      4  C   UNL     1       1.718   8.350  19.969  0.00  0.00    +0.000 A 
ATOM      5  C   UNL     1       1.096   9.358  19.241  0.00  0.00    +0.000 A 
ATOM      6  C   UNL     1       1.524   9.143  17.913  0.00  0.00    +0.000 A 
ATOM      7  N   UNL     1       2.339   8.091  17.787  0.00  0.00    +0.000 NA
ATOM      8  N   UNL     1       2.409   7.597  19.052  0.00  0.00    +0.000 N 
ATOM      9  C   UNL     1       0.274  10.269  19.926  0.00  0.00    +0.000 A 
ENDROOT
BRANCH   1  11
ATOM     10  O   UNL     1      -0.569  10.936  23.381  0.00  0.00    +0.000 OA
ATOM     11  C   UNL     1      -0.689  10.974  22.162  0.00  0.00    +0.000 C 
ATOM     12  N   UNL     1      -1.600  11.776  21.515  0.00  0.00    +0.000 N 
ATOM     13  H   UNL     1      -1.647  11.811  20.503  0.00  0.00    +0.000 HD
BRANCH  12  14
ATOM     14  C   UNL     1      -2.494  12.674  22.222  0.00  0.00    +0.000 C 
BRANCH  14  15
ATOM     15  C   UNL     1      -3.411  13.466  21.296  0.00  0.00    +0.000 C 
BRANCH  15  16
ATOM     16  C   UNL     1      -3.932  12.630  20.141  0.00  0.00    +0.000 C 
ATOM     17  O   UNL     1      -3.195  12.239  19.233  0.00  0.00    +0.000 OA
ATOM     18  N   UNL     1      -5.276  12.325  20.161  0.00  0.00    +0.000 N 
ATOM     19  C   UNL     1      -6.273  12.737  21.133  0.00  0.00    +0.000 C 
ATOM     20  C   UNL     1      -7.293  11.613  21.076  0.00  0.00    +0.000 C 
ATOM     21  C   UNL     1      -7.293  11.209  19.605  0.00  0.00    +0.000 C 
ATOM     22  C   UNL     1      -5.875  11.505  19.124  0.00  0.00    +0.000 C 
ENDBRANCH  15  16
ENDBRANCH  14  15
ENDBRANCH  12  14
ENDBRANCH   1  11
BRANCH   8  23
ATOM     23  C   UNL     1       3.169   6.386  19.324  0.00  0.00    +0.000 C 
BRANCH  23  24
ATOM     24  C   UNL     1       2.269   5.174  19.330  0.00  0.00    +0.000 A 
ATOM     25  C   UNL     1       1.759   4.668  20.537  0.00  0.00    +0.000 A 
ATOM     26  C   UNL     1       1.006   3.493  20.551  0.00  0.00    +0.000 A 
ATOM     27  C   UNL     1       0.753   2.813  19.361  0.00  0.00    +0.000 A 
ATOM     28  C   UNL     1       1.235   3.316  18.155  0.00  0.00    +0.000 A 
ATOM     29  C   UNL     1       1.987   4.491  18.137  0.00  0.00    +0.000 A 
ENDBRANCH  23  24
ENDBRANCH   8  23
TORSDOF 6
ENDMDL
MODEL 7
REMARK VINA RESULT:      -7.9      0.857      1.336
REMARK  Name = 
REMARK  6 active torsions:
REMARK  status: ('A' for Active; 'I' for Inactive)
REMARK    1  A    between atoms: C_2  and  C_13
REMARK    2  A    between atoms: N_3  and  C_4
REMARK    3  A    between atoms: C_4  and  C_5
REMARK    4  A    between atoms: C_5  and  C_6
REMARK    5  A    between atoms: N_20  and  C_21
REMARK    6  A    between atoms: C_21  and  C_22
REMARK                            x       y       z     vdW  Elec       q    Type
REMARK                         _______ _______ _______ _____ _____    ______ ____
ROOT
ATOM      1  C   UNL     1       2.111   6.732  18.974  0.00  0.00    +0.000 A 
ATOM      2  C   UNL     1       2.036   7.808  18.092  0.00  0.00    +0.000 A 
ATOM      3  N   UNL     1       1.666   9.079  18.410  0.00  0.00    +0.000 NA
ATOM      4  C   UNL     1       1.388   9.226  19.723  0.00  0.00    +0.000 A 
ATOM      5  C   UNL     1       1.460   8.246  20.707  0.00  0.00    +0.000 A 
ATOM      6  C   UNL     1       1.112   8.921  21.897  0.00  0.00    +0.000 A 
ATOM      7  N   UNL     1       0.832  10.214  21.705  0.00  0.00    +0.000 NA
ATOM      8  N   UNL     1       0.967  10.367  20.361  0.00  0.00    +0.000 N 
ATOM      9  C   UNL     1       1.831   6.944  20.330  0.00  0.00    +0.000 A 
ENDROOT
BRANCH   1  11
ATOM     10  O   UNL     1       1.918   4.400  18.792  0.00  0.00    +0.000 OA
ATOM     11  C   UNL     1       2.508   5.411  18.429  0.00  0.00    +0.000 C 
ATOM     12  N   UNL     1       3.566   5.396  17.551  0.00  0.00    +0.000 N 
ATOM     13  H   UNL     1       4.007   6.255  17.242  0.00  0.00    +0.000 HD
BRANCH  12  14
ATOM     14  C   UNL     1       4.072   4.174  16.952  0.00  0.00    +0.000 C 
BRANCH  14  15
ATOM     15  C   UNL     1       5.239   4.406  16.000  0.00  0.00    +0.000 C 
BRANCH  15  16
ATOM     16  C   UNL     1       5.805   5.812  16.107  0.00  0.00    +0.000 C 
ATOM     17  O   UNL     1       5.417   6.729  15.380  0.00  0.00    +0.000 OA
ATOM     18  N   UNL     1       6.777   6.010  17.063  0.00  0.00    +0.000 N 
ATOM     19  C   UNL     1       7.361   5.031  17.963  0.00  0.00    +0.000 C 
ATOM     20  C   UNL     1       7.771   5.870  19.162  0.00  0.00    +0.000 C 
ATOM     21  C   UNL     1       8.213   7.190  18.537  0.00  0.00    +0.000 C 
ATOM     22  C   UNL     1       7.365   7.321  17.274  0.00  0.00    +0.000 C 
ENDBRANCH  15  16
ENDBRANCH  14  15
ENDBRANCH  12  14
ENDBRANCH   1  11
BRANCH   8  23
ATOM     23  C   UNL     1       0.679  11.650  19.738  0.00  0.00    +0.000 C 
BRANCH  23  24
ATOM     24  C   UNL     1      -0.777  11.746  19.347  0.00  0.00    +0.000 A 
ATOM     25  C   UNL     1      -1.694  12.420  20.168  0.00  0.00    +0.000 A 
ATOM     26  C   UNL     1      -3.054  12.425  19.855  0.00  0.00    +0.000 A 
ATOM     27  C   UNL     1      -3.511  11.760  18.719  0.00  0.00    +0.000 A 
ATOM     28  C   UNL     1      -2.607  11.105  17.884  0.00  0.00    +0.000 A 
ATOM     29  C   UNL     1      -1.247  11.099  18.194  0.00  0.00    +0.000 A 
ENDBRANCH  23  24
ENDBRANCH   8  23
TORSDOF 6
ENDMDL
MODEL 8
REMARK VINA RESULT:      -7.8      2.710      9.194
REMARK  Name = 
REMARK  6 active torsions:
REMARK  status: ('A' for Active; 'I' for Inactive)
REMARK    1  A    between atoms: C_2  and  C_13
REMARK    2  A    between atoms: N_3  and  C_4
REMARK    3  A    between atoms: C_4  and  C_5
REMARK    4  A    between atoms: C_5  and  C_6
REMARK    5  A    between atoms: N_20  and  C_21
REMARK    6  A    between atoms: C_21  and  C_22
REMARK                            x       y       z     vdW  Elec       q    Type
REMARK                         _______ _______ _______ _____ _____    ______ ____
ROOT
ATOM      1  C   UNL     1       1.202   8.823  20.315  0.00  0.00    +0.000 A 
ATOM      2  C   UNL     1       1.802   8.869  19.059  0.00  0.00    +0.000 A 
ATOM      3  N   UNL     1       2.471   7.849  18.453  0.00  0.00    +0.000 NA
ATOM      4  C   UNL     1       2.482   6.722  19.197  0.00  0.00    +0.000 A 
ATOM      5  C   UNL     1       1.891   6.536  20.441  0.00  0.00    +0.000 A 
ATOM      6  C   UNL     1       2.160   5.187  20.756  0.00  0.00    +0.000 A 
ATOM      7  N   UNL     1       2.864   4.556  19.811  0.00  0.00    +0.000 NA
ATOM      8  N   UNL     1       3.086   5.528  18.887  0.00  0.00    +0.000 N 
ATOM      9  C   UNL     1       1.225   7.622  21.035  0.00  0.00    +0.000 A 
ENDROOT
BRANCH   1  11
ATOM     10  O   UNL     1       1.024  10.656  21.771  0.00  0.00    +0.000 OA
ATOM     11  C   UNL     1       0.543  10.053  20.818  0.00  0.00    +0.000 C 
ATOM     12  N   UNL     1      -0.620  10.434  20.190  0.00  0.00    +0.000 N 
ATOM     13  H   UNL     1      -0.969   9.935  19.380  0.00  0.00    +0.000 HD
BRANCH  12  14
ATOM     14  C   UNL     1      -1.377  11.607  20.586  0.00  0.00    +0.000 C 
BRANCH  14  15
ATOM     15  C   UNL     1      -1.846  12.451  19.406  0.00  0.00    +0.000 C 
BRANCH  15  16
ATOM     16  C   UNL     1      -2.664  11.650  18.408  0.00  0.00    +0.000 C 
ATOM     17  O   UNL     1      -2.135  10.975  17.523  0.00  0.00    +0.000 OA
ATOM     18  N   UNL     1      -4.034  11.714  18.546  0.00  0.00    +0.000 N 
ATOM     19  C   UNL     1      -4.802  12.486  19.506  0.00  0.00    +0.000 C 
ATOM     20  C   UNL     1      -6.075  11.670  19.662  0.00  0.00    +0.000 C 
ATOM     21  C   UNL     1      -6.309  11.109  18.263  0.00  0.00    +0.000 C 
ATOM     22  C   UNL     1      -4.912  10.963  17.666  0.00  0.00    +0.000 C 
ENDBRANCH  15  16
ENDBRANCH  14  15
ENDBRANCH  12  14
ENDBRANCH   1  11
BRANCH   8  23
ATOM     23  C   UNL     1       3.892   5.247  17.707  0.00  0.00    +0.000 C 
BRANCH  23  24
ATOM     24  C   UNL     1       5.305   5.746  17.887  0.00  0.00    +0.000 A 
ATOM     25  C   UNL     1       6.144   5.182  18.862  0.00  0.00    +0.000 A 
ATOM     26  C   UNL     1       7.415   5.708  19.092  0.00  0.00    +0.000 A 
ATOM     27  C   UNL     1       7.863   6.800  18.351  0.00  0.00    +0.000 A 
ATOM     28  C   UNL     1       7.049   7.355  17.366  0.00  0.00    +0.000 A 
ATOM     29  C   UNL     1       5.777   6.831  17.133  0.00  0.00    +0.000 A 
ENDBRANCH  23  24
ENDBRANCH   8  23
TORSDOF 6
ENDMDL
MODEL 9
REMARK VINA RESULT:      -7.7      2.890      8.882
REMARK  Name = 
REMARK  6 active torsions:
REMARK  status: ('A' for Active; 'I' for Inactive)
REMARK    1  A    between atoms: C_2  and  C_13
REMARK    2  A    between atoms: N_3  and  C_4
REMARK    3  A    between atoms: C_4  and  C_5
REMARK    4  A    between atoms: C_5  and  C_6
REMARK    5  A    between atoms: N_20  and  C_21
REMARK    6  A    between atoms: C_21  and  C_22
REMARK                            x       y       z     vdW  Elec       q    Type
REMARK                         _______ _______ _______ _____ _____    ______ ____
ROOT
ATOM      1  C   UNL     1       1.249   8.782  20.391  0.00  0.00    +0.000 A 
ATOM      2  C   UNL     1       1.859   8.861  19.141  0.00  0.00    +0.000 A 
ATOM      3  N   UNL     1       2.509   7.849  18.502  0.00  0.00    +0.000 NA
ATOM      4  C   UNL     1       2.491   6.696  19.205  0.00  0.00    +0.000 A 
ATOM      5  C   UNL     1       1.889   6.477  20.438  0.00  0.00    +0.000 A 
ATOM      6  C   UNL     1       2.126   5.112  20.705  0.00  0.00    +0.000 A 
ATOM      7  N   UNL     1       2.823   4.501  19.742  0.00  0.00    +0.000 NA
ATOM      8  N   UNL     1       3.072   5.501  18.855  0.00  0.00    +0.000 N 
ATOM      9  C   UNL     1       1.242   7.556  21.067  0.00  0.00    +0.000 A 
ENDROOT
BRANCH   1  11
ATOM     10  O   UNL     1       1.128  10.591  21.882  0.00  0.00    +0.000 OA
ATOM     11  C   UNL     1       0.614  10.007  20.935  0.00  0.00    +0.000 C 
ATOM     12  N   UNL     1      -0.565  10.406  20.349  0.00  0.00    +0.000 N 
ATOM     13  H   UNL     1      -0.943   9.921  19.542  0.00  0.00    +0.000 HD
BRANCH  12  14
ATOM     14  C   UNL     1      -1.303  11.575  20.789  0.00  0.00    +0.000 C 
BRANCH  14  15
ATOM     15  C   UNL     1      -1.734  12.483  19.642  0.00  0.00    +0.000 C 
BRANCH  15  16
ATOM     16  C   UNL     1      -3.131  12.159  19.140  0.00  0.00    +0.000 C 
ATOM     17  O   UNL     1      -4.142  12.490  19.762  0.00  0.00    +0.000 OA
ATOM     18  N   UNL     1      -3.210  11.476  17.945  0.00  0.00    +0.000 N 
ATOM     19  C   UNL     1      -2.120  10.989  17.119  0.00  0.00    +0.000 C 
ATOM     20  C   UNL     1      -2.720  10.992  15.723  0.00  0.00    +0.000 C 
ATOM     21  C   UNL     1      -4.176  10.605  15.963  0.00  0.00    +0.000 C 
ATOM     22  C   UNL     1      -4.494  11.142  17.356  0.00  0.00    +0.000 C 
ENDBRANCH  15  16
ENDBRANCH  14  15
ENDBRANCH  12  14
ENDBRANCH   1  11
BRANCH   8  23
ATOM     23  C   UNL     1       3.879   5.245  17.671  0.00  0.00    +0.000 C 
BRANCH  23  24
ATOM     24  C   UNL     1       5.295   5.729  17.868  0.00  0.00    +0.000 A 
ATOM     25  C   UNL     1       6.103   5.183  18.878  0.00  0.00    +0.000 A 
ATOM     26  C   UNL     1       7.377   5.697  19.121  0.00  0.00    +0.000 A 
ATOM     27  C   UNL     1       7.858   6.760  18.358  0.00  0.00    +0.000 A 
ATOM     28  C   UNL     1       7.074   7.296  17.338  0.00  0.00    +0.000 A 
ATOM     29  C   UNL     1       5.800   6.783  17.092  0.00  0.00    +0.000 A 
ENDBRANCH  23  24
ENDBRANCH   8  23
TORSDOF 6
ENDMDL
