MODEL 1
REMARK VINA RESULT:      -8.5      0.000      0.000
REMARK  Name = 
REMARK  3 active torsions:
REMARK  status: ('A' for Active; 'I' for Inactive)
REMARK    1  A    between atoms: C_2  and  C_10
REMARK    2  A    between atoms: N_3  and  C_4
REMARK    3  A    between atoms: C_15  and  C_17
REMARK                            x       y       z     vdW  Elec       q    Type
REMARK                         _______ _______ _______ _____ _____    ______ ____
ROOT
ATOM      1  C   UNL     1       6.946   5.525  16.092  0.00  0.00    +0.000 C 
ATOM      2  C   UNL     1       7.764   4.764  17.139  0.00  0.00    +0.000 C 
ATOM      3  C   UNL     1       6.991   4.404  18.405  0.00  0.00    +0.000 C 
ATOM      4  C   UNL     1       6.095   5.529  18.914  0.00  0.00    +0.000 C 
ATOM      5  N   UNL     1       5.293   6.134  17.849  0.00  0.00    +0.000 N 
ATOM      6  C   UNL     1       3.922   6.447  17.866  0.00  0.00    +0.000 C 
ATOM      7  O   UNL     1       3.395   7.082  16.949  0.00  0.00    +0.000 OA
ATOM      8  C   UNL     1       6.080   6.625  16.709  0.00  0.00    +0.000 C 
ENDROOT
BRANCH   6   9
ATOM      9  C   UNL     1       2.994   5.861  18.873  0.00  0.00    +0.000 A 
ATOM     10  C   UNL     1       2.543   6.766  19.856  0.00  0.00    +0.000 A 
ATOM     11  C   UNL     1       1.580   6.389  20.782  0.00  0.00    +0.000 A 
ATOM     12  C   UNL     1       0.959   5.157  20.641  0.00  0.00    +0.000 A 
ATOM     13  C   UNL     1       1.410   4.233  19.688  0.00  0.00    +0.000 A 
ATOM     14  C   UNL     1       0.758   3.004  19.555  0.00  0.00    +0.000 A 
ATOM     15  C   UNL     1       1.386   1.941  18.915  0.00  0.00    +0.000 A 
ATOM     16  C   UNL     1       2.625   2.136  18.316  0.00  0.00    +0.000 A 
ATOM     17  C   UNL     1       3.172   3.421  18.252  0.00  0.00    +0.000 A 
ATOM     18  C   UNL     1       2.552   4.516  18.905  0.00  0.00    +0.000 A 
ENDBRANCH   6   9
BRANCH   1  20
ATOM     19  O   UNL     1       5.115   4.067  15.598  0.00  0.00    +0.000 OA
ATOM     20  C   UNL     1       6.140   4.603  15.174  0.00  0.00    +0.000 C 
ATOM     21  N   UNL     1       6.635   4.497  13.892  0.00  0.00    +0.000 N 
ATOM     22  H   UNL     1       7.494   4.997  13.703  0.00  0.00    +0.000 HD
BRANCH  21  23
ATOM     23  C   UNL     1       6.160   3.699  12.829  0.00  0.00    +0.000 A 
ATOM     24  C   UNL     1       4.834   3.713  12.388  0.00  0.00    +0.000 A 
ATOM     25  C   UNL     1       4.415   2.854  11.369  0.00  0.00    +0.000 A 
ATOM     26  C   UNL     1       5.330   1.989  10.767  0.00  0.00    +0.000 A 
ATOM     27  C   UNL     1       6.659   1.984  11.188  0.00  0.00    +0.000 A 
ATOM     28  C   UNL     1       7.068   2.836  12.215  0.00  0.00    +0.000 A 
ENDBRANCH  21  23
ENDBRANCH   1  20
TORSDOF 3
ENDMDL
MODEL 2
REMARK VINA RESULT:      -8.1      2.491      5.179
REMARK  Name = 
REMARK  3 active torsions:
REMARK  status: ('A' for Active; 'I' for Inactive)
REMARK    1  A    between atoms: C_2  and  C_10
REMARK    2  A    between atoms: N_3  and  C_4
REMARK    3  A    between atoms: C_15  and  C_17
REMARK                            x       y       z     vdW  Elec       q    Type
REMARK                         _______ _______ _______ _____ _____    ______ ____
ROOT
ATOM      1  C   UNL     1       2.807   2.610  19.467  0.00  0.00    +0.000 C 
ATOM      2  C   UNL     1       1.301   2.340  19.540  0.00  0.00    +0.000 C 
ATOM      3  C   UNL     1       0.431   3.593  19.482  0.00  0.00    +0.000 C 
ATOM      4  C   UNL     1       0.966   4.748  20.323  0.00  0.00    +0.000 C 
ATOM      5  N   UNL     1       2.397   4.977  20.115  0.00  0.00    +0.000 N 
ATOM      6  C   UNL     1       3.058   6.201  19.904  0.00  0.00    +0.000 C 
ATOM      7  O   UNL     1       4.289   6.271  19.880  0.00  0.00    +0.000 OA
ATOM      8  C   UNL     1       3.235   3.791  20.340  0.00  0.00    +0.000 C 
ENDROOT
BRANCH   6   9
ATOM      9  C   UNL     1       2.324   7.430  19.495  0.00  0.00    +0.000 A 
ATOM     10  C   UNL     1       2.434   7.754  18.126  0.00  0.00    +0.000 A 
ATOM     11  C   UNL     1       1.702   8.802  17.584  0.00  0.00    +0.000 A 
ATOM     12  C   UNL     1       0.751   9.436  18.369  0.00  0.00    +0.000 A 
ATOM     13  C   UNL     1       0.645   9.147  19.737  0.00  0.00    +0.000 A 
ATOM     14  C   UNL     1      -0.330   9.788  20.505  0.00  0.00    +0.000 A 
ATOM     15  C   UNL     1      -0.225   9.821  21.891  0.00  0.00    +0.000 A 
ATOM     16  C   UNL     1       0.801   9.123  22.518  0.00  0.00    +0.000 A 
ATOM     17  C   UNL     1       1.641   8.297  21.765  0.00  0.00    +0.000 A 
ATOM     18  C   UNL     1       1.555   8.257  20.350  0.00  0.00    +0.000 A 
ENDBRANCH   6   9
BRANCH   1  20
ATOM     19  O   UNL     1       2.917   1.960  17.167  0.00  0.00    +0.000 OA
ATOM     20  C   UNL     1       3.323   2.738  18.032  0.00  0.00    +0.000 C 
ATOM     21  N   UNL     1       4.193   3.787  17.828  0.00  0.00    +0.000 N 
ATOM     22  H   UNL     1       4.433   4.333  18.646  0.00  0.00    +0.000 HD
BRANCH  21  23
ATOM     23  C   UNL     1       4.879   4.146  16.648  0.00  0.00    +0.000 A 
ATOM     24  C   UNL     1       5.603   3.237  15.872  0.00  0.00    +0.000 A 
ATOM     25  C   UNL     1       6.310   3.671  14.746  0.00  0.00    +0.000 A 
ATOM     26  C   UNL     1       6.277   5.016  14.378  0.00  0.00    +0.000 A 
ATOM     27  C   UNL     1       5.539   5.924  15.136  0.00  0.00    +0.000 A 
ATOM     28  C   UNL     1       4.846   5.488  16.265  0.00  0.00    +0.000 A 
ENDBRANCH  21  23
ENDBRANCH   1  20
TORSDOF 3
ENDMDL
MODEL 3
REMARK VINA RESULT:      -7.9      5.751      8.786
REMARK  Name = 
REMARK  3 active torsions:
REMARK  status: ('A' for Active; 'I' for Inactive)
REMARK    1  A    between atoms: C_2  and  C_10
REMARK    2  A    between atoms: N_3  and  C_4
REMARK    3  A    between atoms: C_15  and  C_17
REMARK                            x       y       z     vdW  Elec       q    Type
REMARK                         _______ _______ _______ _____ _____    ______ ____
ROOT
ATOM      1  C   UNL     1       1.590   9.583  21.546  0.00  0.00    +0.000 C 
ATOM      2  C   UNL     1       0.776   9.135  22.763  0.00  0.00    +0.000 C 
ATOM      3  C   UNL     1      -0.713   9.461  22.683  0.00  0.00    +0.000 C 
ATOM      4  C   UNL     1      -1.004  10.854  22.133  0.00  0.00    +0.000 C 
ATOM      5  N   UNL     1      -0.238  11.150  20.920  0.00  0.00    +0.000 N 
ATOM      6  C   UNL     1      -0.700  11.720  19.720  0.00  0.00    +0.000 C 
ATOM      7  O   UNL     1       0.080  12.045  18.821  0.00  0.00    +0.000 OA
ATOM      8  C   UNL     1       1.215  10.988  21.073  0.00  0.00    +0.000 C 
ENDROOT
BRANCH   6   9
ATOM      9  C   UNL     1      -2.149  11.774  19.381  0.00  0.00    +0.000 A 
ATOM     10  C   UNL     1      -2.955  12.420  20.342  0.00  0.00    +0.000 A 
ATOM     11  C   UNL     1      -4.302  12.651  20.099  0.00  0.00    +0.000 A 
ATOM     12  C   UNL     1      -4.816  12.371  18.842  0.00  0.00    +0.000 A 
ATOM     13  C   UNL     1      -4.039  11.706  17.883  0.00  0.00    +0.000 A 
ATOM     14  C   UNL     1      -4.574  11.448  16.618  0.00  0.00    +0.000 A 
ATOM     15  C   UNL     1      -4.001  10.486  15.795  0.00  0.00    +0.000 A 
ATOM     16  C   UNL     1      -2.829   9.852  16.193  0.00  0.00    +0.000 A 
ATOM     17  C   UNL     1      -2.170  10.273  17.351  0.00  0.00    +0.000 A 
ATOM     18  C   UNL     1      -2.743  11.247  18.209  0.00  0.00    +0.000 A 
ENDBRANCH   6   9
BRANCH   1  20
ATOM     19  O   UNL     1       1.329   8.942  19.256  0.00  0.00    +0.000 OA
ATOM     20  C   UNL     1       1.569   8.565  20.403  0.00  0.00    +0.000 C 
ATOM     21  N   UNL     1       1.882   7.277  20.779  0.00  0.00    +0.000 N 
ATOM     22  H   UNL     1       2.049   7.128  21.766  0.00  0.00    +0.000 HD
BRANCH  21  23
ATOM     23  C   UNL     1       1.903   6.108  19.987  0.00  0.00    +0.000 A 
ATOM     24  C   UNL     1       2.491   6.048  18.721  0.00  0.00    +0.000 A 
ATOM     25  C   UNL     1       2.424   4.876  17.962  0.00  0.00    +0.000 A 
ATOM     26  C   UNL     1       1.784   3.748  18.478  0.00  0.00    +0.000 A 
ATOM     27  C   UNL     1       1.213   3.796  19.749  0.00  0.00    +0.000 A 
ATOM     28  C   UNL     1       1.273   4.972  20.496  0.00  0.00    +0.000 A 
ENDBRANCH  21  23
ENDBRANCH   1  20
TORSDOF 3
ENDMDL
MODEL 4
REMARK VINA RESULT:      -7.7      2.471      7.236
REMARK  Name = 
REMARK  3 active torsions:
REMARK  status: ('A' for Active; 'I' for Inactive)
REMARK    1  A    between atoms: C_2  and  C_10
REMARK    2  A    between atoms: N_3  and  C_4
REMARK    3  A    between atoms: C_15  and  C_17
REMARK                            x       y       z     vdW  Elec       q    Type
REMARK                         _______ _______ _______ _____ _____    ______ ____
ROOT
ATOM      1  C   UNL     1       2.075   2.795  20.512  0.00  0.00    +0.000 C 
ATOM      2  C   UNL     1       3.187   2.019  21.224  0.00  0.00    +0.000 C 
ATOM      3  C   UNL     1       4.541   2.067  20.520  0.00  0.00    +0.000 C 
ATOM      4  C   UNL     1       4.448   1.906  19.006  0.00  0.00    +0.000 C 
ATOM      5  N   UNL     1       3.412   2.755  18.414  0.00  0.00    +0.000 N 
ATOM      6  C   UNL     1       3.507   3.572  17.273  0.00  0.00    +0.000 C 
ATOM      7  O   UNL     1       2.515   4.132  16.799  0.00  0.00    +0.000 OA
ATOM      8  C   UNL     1       2.077   2.570  18.999  0.00  0.00    +0.000 C 
ENDROOT
BRANCH   6   9
ATOM      9  C   UNL     1       4.821   3.972  16.698  0.00  0.00    +0.000 A 
ATOM     10  C   UNL     1       5.047   3.526  15.379  0.00  0.00    +0.000 A 
ATOM     11  C   UNL     1       6.175   3.929  14.677  0.00  0.00    +0.000 A 
ATOM     12  C   UNL     1       7.005   4.891  15.233  0.00  0.00    +0.000 A 
ATOM     13  C   UNL     1       6.812   5.326  16.552  0.00  0.00    +0.000 A 
ATOM     14  C   UNL     1       7.653   6.307  17.085  0.00  0.00    +0.000 A 
ATOM     15  C   UNL     1       7.741   6.484  18.462  0.00  0.00    +0.000 A 
ATOM     16  C   UNL     1       6.911   5.752  19.303  0.00  0.00    +0.000 A 
ATOM     17  C   UNL     1       5.913   4.939  18.759  0.00  0.00    +0.000 A 
ATOM     18  C   UNL     1       5.812   4.738  17.358  0.00  0.00    +0.000 A 
ENDBRANCH   6   9
BRANCH   1  20
ATOM     19  O   UNL     1       2.241   4.628  22.041  0.00  0.00    +0.000 OA
ATOM     20  C   UNL     1       2.058   4.283  20.873  0.00  0.00    +0.000 C 
ATOM     21  N   UNL     1       1.880   5.130  19.801  0.00  0.00    +0.000 N 
ATOM     22  H   UNL     1       1.737   4.687  18.901  0.00  0.00    +0.000 HD
BRANCH  21  23
ATOM     23  C   UNL     1       1.769   6.537  19.798  0.00  0.00    +0.000 A 
ATOM     24  C   UNL     1       1.266   7.271  20.877  0.00  0.00    +0.000 A 
ATOM     25  C   UNL     1       1.126   8.659  20.786  0.00  0.00    +0.000 A 
ATOM     26  C   UNL     1       1.509   9.324  19.621  0.00  0.00    +0.000 A 
ATOM     27  C   UNL     1       2.030   8.599  18.550  0.00  0.00    +0.000 A 
ATOM     28  C   UNL     1       2.156   7.213  18.641  0.00  0.00    +0.000 A 
ENDBRANCH  21  23
ENDBRANCH   1  20
TORSDOF 3
ENDMDL
MODEL 5
REMARK VINA RESULT:      -7.6      1.052      1.454
REMARK  Name = 
REMARK  3 active torsions:
REMARK  status: ('A' for Active; 'I' for Inactive)
REMARK    1  A    between atoms: C_2  and  C_10
REMARK    2  A    between atoms: N_3  and  C_4
REMARK    3  A    between atoms: C_15  and  C_17
REMARK                            x       y       z     vdW  Elec       q    Type
REMARK                         _______ _______ _______ _____ _____    ______ ____
ROOT
ATOM      1  C   UNL     1       6.992   6.673  16.832  0.00  0.00    +0.000 C 
ATOM      2  C   UNL     1       7.830   5.625  17.570  0.00  0.00    +0.000 C 
ATOM      3  C   UNL     1       7.037   4.744  18.532  0.00  0.00    +0.000 C 
ATOM      4  C   UNL     1       6.010   5.512  19.357  0.00  0.00    +0.000 C 
ATOM      5  N   UNL     1       5.203   6.423  18.543  0.00  0.00    +0.000 N 
ATOM      6  C   UNL     1       3.808   6.602  18.564  0.00  0.00    +0.000 C 
ATOM      7  O   UNL     1       3.265   7.505  17.921  0.00  0.00    +0.000 OA
ATOM      8  C   UNL     1       5.991   7.377  17.749  0.00  0.00    +0.000 C 
ENDROOT
BRANCH   6   9
ATOM      9  C   UNL     1       2.896   5.603  19.187  0.00  0.00    +0.000 A 
ATOM     10  C   UNL     1       2.168   6.082  20.296  0.00  0.00    +0.000 A 
ATOM     11  C   UNL     1       1.192   5.298  20.897  0.00  0.00    +0.000 A 
ATOM     12  C   UNL     1       0.838   4.095  20.305  0.00  0.00    +0.000 A 
ATOM     13  C   UNL     1       1.567   3.590  19.219  0.00  0.00    +0.000 A 
ATOM     14  C   UNL     1       1.182   2.383  18.630  0.00  0.00    +0.000 A 
ATOM     15  C   UNL     1       2.072   1.676  17.830  0.00  0.00    +0.000 A 
ATOM     16  C   UNL     1       3.314   2.226  17.533  0.00  0.00    +0.000 A 
ATOM     17  C   UNL     1       3.609   3.532  17.933  0.00  0.00    +0.000 A 
ATOM     18  C   UNL     1       2.718   4.266  18.757  0.00  0.00    +0.000 A 
ENDBRANCH   6   9
BRANCH   1  20
ATOM     19  O   UNL     1       5.234   6.566  15.213  0.00  0.00    +0.000 OA
ATOM     20  C   UNL     1       6.328   6.125  15.566  0.00  0.00    +0.000 C 
ATOM     21  N   UNL     1       7.075   5.185  14.889  0.00  0.00    +0.000 N 
ATOM     22  H   UNL     1       7.956   4.924  15.315  0.00  0.00    +0.000 HD
BRANCH  21  23
ATOM     23  C   UNL     1       6.734   4.458  13.728  0.00  0.00    +0.000 A 
ATOM     24  C   UNL     1       7.527   4.428  12.578  0.00  0.00    +0.000 A 
ATOM     25  C   UNL     1       7.101   3.736  11.440  0.00  0.00    +0.000 A 
ATOM     26  C   UNL     1       5.885   3.051  11.455  0.00  0.00    +0.000 A 
ATOM     27  C   UNL     1       5.099   3.062  12.607  0.00  0.00    +0.000 A 
ATOM     28  C   UNL     1       5.524   3.763  13.735  0.00  0.00    +0.000 A 
ENDBRANCH  21  23
ENDBRANCH   1  20
TORSDOF 3
ENDMDL
MODEL 6
REMARK VINA RESULT:      -7.6      8.911     11.494
REMARK  Name = 
REMARK  3 active torsions:
REMARK  status: ('A' for Active; 'I' for Inactive)
REMARK    1  A    between atoms: C_2  and  C_10
REMARK    2  A    between atoms: N_3  and  C_4
REMARK    3  A    between atoms: C_15  and  C_17
REMARK                            x       y       z     vdW  Elec       q    Type
REMARK                         _______ _______ _______ _____ _____    ______ ____
ROOT
ATOM      1  C   UNL     1       0.531  11.796  20.638  0.00  0.00    +0.000 C 
ATOM      2  C   UNL     1       0.573  10.363  21.175  0.00  0.00    +0.000 C 
ATOM      3  C   UNL     1      -0.643   9.963  22.006  0.00  0.00    +0.000 C 
ATOM      4  C   UNL     1      -1.106  11.047  22.973  0.00  0.00    +0.000 C 
ATOM      5  N   UNL     1      -1.195  12.364  22.338  0.00  0.00    +0.000 N 
ATOM      6  C   UNL     1      -2.240  13.302  22.428  0.00  0.00    +0.000 C 
ATOM      7  O   UNL     1      -2.129  14.436  21.954  0.00  0.00    +0.000 OA
ATOM      8  C   UNL     1       0.047  12.802  21.685  0.00  0.00    +0.000 C 
ENDROOT
BRANCH   6   9
ATOM      9  C   UNL     1      -3.597  12.924  22.910  0.00  0.00    +0.000 A 
ATOM     10  C   UNL     1      -3.675  12.642  24.289  0.00  0.00    +0.000 A 
ATOM     11  C   UNL     1      -4.900  12.397  24.896  0.00  0.00    +0.000 A 
ATOM     12  C   UNL     1      -6.062  12.575  24.160  0.00  0.00    +0.000 A 
ATOM     13  C   UNL     1      -6.005  12.830  22.783  0.00  0.00    +0.000 A 
ATOM     14  C   UNL     1      -7.189  13.021  22.066  0.00  0.00    +0.000 A 
ATOM     15  C   UNL     1      -7.200  12.897  20.681  0.00  0.00    +0.000 A 
ATOM     16  C   UNL     1      -6.007  12.684  20.002  0.00  0.00    +0.000 A 
ATOM     17  C   UNL     1      -4.795  12.720  20.697  0.00  0.00    +0.000 A 
ATOM     18  C   UNL     1      -4.763  12.837  22.110  0.00  0.00    +0.000 A 
ENDBRANCH   6   9
BRANCH   1  20
ATOM     19  O   UNL     1       0.006  12.855  18.558  0.00  0.00    +0.000 OA
ATOM     20  C   UNL     1      -0.239  11.920  19.321  0.00  0.00    +0.000 C 
ATOM     21  N   UNL     1      -1.136  10.901  19.085  0.00  0.00    +0.000 N 
ATOM     22  H   UNL     1      -1.226  10.207  19.816  0.00  0.00    +0.000 HD
BRANCH  21  23
ATOM     23  C   UNL     1      -2.026  10.745  18.001  0.00  0.00    +0.000 A 
ATOM     24  C   UNL     1      -1.798   9.867  16.937  0.00  0.00    +0.000 A 
ATOM     25  C   UNL     1      -2.691   9.805  15.863  0.00  0.00    +0.000 A 
ATOM     26  C   UNL     1      -3.833  10.608  15.860  0.00  0.00    +0.000 A 
ATOM     27  C   UNL     1      -4.076  11.470  16.928  0.00  0.00    +0.000 A 
ATOM     28  C   UNL     1      -3.175  11.536  17.990  0.00  0.00    +0.000 A 
ENDBRANCH  21  23
ENDBRANCH   1  20
TORSDOF 3
ENDMDL
MODEL 7
REMARK VINA RESULT:      -7.5      1.082      2.852
REMARK  Name = 
REMARK  3 active torsions:
REMARK  status: ('A' for Active; 'I' for Inactive)
REMARK    1  A    between atoms: C_2  and  C_10
REMARK    2  A    between atoms: N_3  and  C_4
REMARK    3  A    between atoms: C_15  and  C_17
REMARK                            x       y       z     vdW  Elec       q    Type
REMARK                         _______ _______ _______ _____ _____    ______ ____
ROOT
ATOM      1  C   UNL     1       7.119   5.286  16.165  0.00  0.00    +0.000 C 
ATOM      2  C   UNL     1       7.779   4.569  17.346  0.00  0.00    +0.000 C 
ATOM      3  C   UNL     1       6.902   4.463  18.591  0.00  0.00    +0.000 C 
ATOM      4  C   UNL     1       6.130   5.740  18.905  0.00  0.00    +0.000 C 
ATOM      5  N   UNL     1       5.466   6.299  17.725  0.00  0.00    +0.000 N 
ATOM      6  C   UNL     1       4.145   6.771  17.615  0.00  0.00    +0.000 C 
ATOM      7  O   UNL     1       3.751   7.346  16.597  0.00  0.00    +0.000 OA
ATOM      8  C   UNL     1       6.366   6.548  16.590  0.00  0.00    +0.000 C 
ENDROOT
BRANCH   6   9
ATOM      9  C   UNL     1       3.101   6.428  18.619  0.00  0.00    +0.000 A 
ATOM     10  C   UNL     1       3.005   5.054  18.923  0.00  0.00    +0.000 A 
ATOM     11  C   UNL     1       2.161   4.607  19.931  0.00  0.00    +0.000 A 
ATOM     12  C   UNL     1       1.521   5.538  20.734  0.00  0.00    +0.000 A 
ATOM     13  C   UNL     1       1.583   6.906  20.432  0.00  0.00    +0.000 A 
ATOM     14  C   UNL     1       0.941   7.827  21.265  0.00  0.00    +0.000 A 
ATOM     15  C   UNL     1       0.660   9.110  20.810  0.00  0.00    +0.000 A 
ATOM     16  C   UNL     1       1.112   9.508  19.557  0.00  0.00    +0.000 A 
ATOM     17  C   UNL     1       1.947   8.664  18.819  0.00  0.00    +0.000 A 
ATOM     18  C   UNL     1       2.239   7.349  19.262  0.00  0.00    +0.000 A 
ENDBRANCH   6   9
BRANCH   1  20
ATOM     19  O   UNL     1       5.337   3.724  15.836  0.00  0.00    +0.000 OA
ATOM     20  C   UNL     1       6.252   4.359  15.310  0.00  0.00    +0.000 C 
ATOM     21  N   UNL     1       6.562   4.363  13.967  0.00  0.00    +0.000 N 
ATOM     22  H   UNL     1       7.350   4.938  13.693  0.00  0.00    +0.000 HD
BRANCH  21  23
ATOM     23  C   UNL     1       5.994   3.594  12.929  0.00  0.00    +0.000 A 
ATOM     24  C   UNL     1       6.661   2.541  12.297  0.00  0.00    +0.000 A 
ATOM     25  C   UNL     1       6.064   1.858  11.234  0.00  0.00    +0.000 A 
ATOM     26  C   UNL     1       4.782   2.212  10.811  0.00  0.00    +0.000 A 
ATOM     27  C   UNL     1       4.103   3.248  11.451  0.00  0.00    +0.000 A 
ATOM     28  C   UNL     1       4.709   3.934  12.503  0.00  0.00    +0.000 A 
ENDBRANCH  21  23
ENDBRANCH   1  20
TORSDOF 3
ENDMDL
MODEL 8
REMARK VINA RESULT:      -7.5      7.045     11.666
REMARK  Name = 
REMARK  3 active torsions:
REMARK  status: ('A' for Active; 'I' for Inactive)
REMARK    1  A    between atoms: C_2  and  C_10
REMARK    2  A    between atoms: N_3  and  C_4
REMARK    3  A    between atoms: C_15  and  C_17
REMARK                            x       y       z     vdW  Elec       q    Type
REMARK                         _______ _______ _______ _____ _____    ______ ____
ROOT
ATOM      1  C   UNL     1      -3.811  11.896  17.898  0.00  0.00    +0.000 C 
ATOM      2  C   UNL     1      -4.225  10.524  17.359  0.00  0.00    +0.000 C 
ATOM      3  C   UNL     1      -3.307   9.377  17.776  0.00  0.00    +0.000 C 
ATOM      4  C   UNL     1      -1.824   9.726  17.707  0.00  0.00    +0.000 C 
ATOM      5  N   UNL     1      -1.522  11.018  18.326  0.00  0.00    +0.000 N 
ATOM      6  C   UNL     1      -0.483  11.329  19.222  0.00  0.00    +0.000 C 
ATOM      7  O   UNL     1      -0.255  12.493  19.564  0.00  0.00    +0.000 OA
ATOM      8  C   UNL     1      -2.304  12.140  17.789  0.00  0.00    +0.000 C 
ENDROOT
BRANCH   6   9
ATOM      9  C   UNL     1       0.261  10.272  19.962  0.00  0.00    +0.000 A 
ATOM     10  C   UNL     1       0.000  10.229  21.347  0.00  0.00    +0.000 A 
ATOM     11  C   UNL     1       0.528   9.217  22.138  0.00  0.00    +0.000 A 
ATOM     12  C   UNL     1       1.197   8.166  21.527  0.00  0.00    +0.000 A 
ATOM     13  C   UNL     1       1.488   8.204  20.156  0.00  0.00    +0.000 A 
ATOM     14  C   UNL     1       2.150   7.127  19.561  0.00  0.00    +0.000 A 
ATOM     15  C   UNL     1       2.780   7.282  18.332  0.00  0.00    +0.000 A 
ATOM     16  C   UNL     1       2.663   8.485  17.647  0.00  0.00    +0.000 A 
ATOM     17  C   UNL     1       1.814   9.483  18.135  0.00  0.00    +0.000 A 
ATOM     18  C   UNL     1       1.169   9.348  19.391  0.00  0.00    +0.000 A 
ENDBRANCH   6   9
BRANCH   1  20
ATOM     19  O   UNL     1      -5.447  11.747  19.637  0.00  0.00    +0.000 OA
ATOM     20  C   UNL     1      -4.337  12.168  19.310  0.00  0.00    +0.000 C 
ATOM     21  N   UNL     1      -3.458  12.844  20.127  0.00  0.00    +0.000 N 
ATOM     22  H   UNL     1      -2.583  13.128  19.705  0.00  0.00    +0.000 HD
BRANCH  21  23
ATOM     23  C   UNL     1      -3.653  13.289  21.453  0.00  0.00    +0.000 A 
ATOM     24  C   UNL     1      -3.283  12.544  22.577  0.00  0.00    +0.000 A 
ATOM     25  C   UNL     1      -3.559  13.015  23.863  0.00  0.00    +0.000 A 
ATOM     26  C   UNL     1      -4.189  14.248  24.033  0.00  0.00    +0.000 A 
ATOM     27  C   UNL     1      -4.542  15.005  22.917  0.00  0.00    +0.000 A 
ATOM     28  C   UNL     1      -4.275  14.524  21.635  0.00  0.00    +0.000 A 
ENDBRANCH  21  23
ENDBRANCH   1  20
TORSDOF 3
ENDMDL
MODEL 9
REMARK VINA RESULT:      -7.4      6.089      9.427
REMARK  Name = 
REMARK  3 active torsions:
REMARK  status: ('A' for Active; 'I' for Inactive)
REMARK    1  A    between atoms: C_2  and  C_10
REMARK    2  A    between atoms: N_3  and  C_4
REMARK    3  A    between atoms: C_15  and  C_17
REMARK                            x       y       z     vdW  Elec       q    Type
REMARK                         _______ _______ _______ _____ _____    ______ ____
ROOT
ATOM      1  C   UNL     1       1.511   9.633  21.521  0.00  0.00    +0.000 C 
ATOM      2  C   UNL     1       0.688   9.256  22.756  0.00  0.00    +0.000 C 
ATOM      3  C   UNL     1      -0.792   9.618  22.665  0.00  0.00    +0.000 C 
ATOM      4  C   UNL     1      -1.047  10.995  22.061  0.00  0.00    +0.000 C 
ATOM      5  N   UNL     1      -0.277  11.222  20.836  0.00  0.00    +0.000 N 
ATOM      6  C   UNL     1      -0.727  11.756  19.615  0.00  0.00    +0.000 C 
ATOM      7  O   UNL     1       0.059  12.024  18.702  0.00  0.00    +0.000 OA
ATOM      8  C   UNL     1       1.171  11.028  20.992  0.00  0.00    +0.000 C 
ENDROOT
BRANCH   6   9
ATOM      9  C   UNL     1      -2.175  11.835  19.276  0.00  0.00    +0.000 A 
ATOM     10  C   UNL     1      -2.571  11.026  18.191  0.00  0.00    +0.000 A 
ATOM     11  C   UNL     1      -3.910  10.907  17.846  0.00  0.00    +0.000 A 
ATOM     12  C   UNL     1      -4.870  11.477  18.669  0.00  0.00    +0.000 A 
ATOM     13  C   UNL     1      -4.496  12.306  19.736  0.00  0.00    +0.000 A 
ATOM     14  C   UNL     1      -5.481  12.857  20.560  0.00  0.00    +0.000 A 
ATOM     15  C   UNL     1      -5.191  13.954  21.364  0.00  0.00    +0.000 A 
ATOM     16  C   UNL     1      -3.890  14.438  21.423  0.00  0.00    +0.000 A 
ATOM     17  C   UNL     1      -2.861  13.747  20.776  0.00  0.00    +0.000 A 
ATOM     18  C   UNL     1      -3.137  12.631  19.945  0.00  0.00    +0.000 A 
ENDBRANCH   6   9
BRANCH   1  20
ATOM     19  O   UNL     1       1.143   8.896  19.275  0.00  0.00    +0.000 OA
ATOM     20  C   UNL     1       1.458   8.571  20.420  0.00  0.00    +0.000 C 
ATOM     21  N   UNL     1       1.833   7.308  20.825  0.00  0.00    +0.000 N 
ATOM     22  H   UNL     1       2.060   7.203  21.806  0.00  0.00    +0.000 HD
BRANCH  21  23
ATOM     23  C   UNL     1       1.848   6.111  20.076  0.00  0.00    +0.000 A 
ATOM     24  C   UNL     1       2.363   6.020  18.780  0.00  0.00    +0.000 A 
ATOM     25  C   UNL     1       2.292   4.818  18.071  0.00  0.00    +0.000 A 
ATOM     26  C   UNL     1       1.723   3.691  18.666  0.00  0.00    +0.000 A 
ATOM     27  C   UNL     1       1.226   3.770  19.966  0.00  0.00    +0.000 A 
ATOM     28  C   UNL     1       1.289   4.976  20.664  0.00  0.00    +0.000 A 
ENDBRANCH  21  23
ENDBRANCH   1  20
TORSDOF 3
ENDMDL
