MODEL 1
REMARK VINA RESULT:      -9.0      0.000      0.000
REMARK  Name = 
REMARK  7 active torsions:
REMARK  status: ('A' for Active; 'I' for Inactive)
REMARK    1  A    between atoms: C_2  and  C_3
REMARK    2  A    between atoms: C_3  and  C_4
REMARK    3  A    between atoms: C_4  and  C_5
REMARK    4  A    between atoms: C_5  and  N_6
REMARK    5  A    between atoms: N_17  and  C_18
REMARK    6  A    between atoms: C_21  and  S_22
REMARK    7  A    between atoms: S_22  and  N_25
REMARK                            x       y       z     vdW  Elec       q    Type
REMARK                         _______ _______ _______ _____ _____    ______ ____
ROOT
ATOM      1  O   UNL     1      -0.769   8.033  21.488  0.00  0.00    +0.000 OA
ATOM      2  C   UNL     1       0.273   8.588  21.834  0.00  0.00    +0.000 C 
ATOM      3  N   UNL     1       1.552   8.202  21.455  0.00  0.00    +0.000 N 
ATOM      4  H   UNL     1       2.327   8.609  21.963  0.00  0.00    +0.000 HD
ENDROOT
BRANCH   3   5
ATOM      5  C   UNL     1       1.856   7.118  20.593  0.00  0.00    +0.000 A 
ATOM      6  C   UNL     1       1.703   5.782  20.972  0.00  0.00    +0.000 A 
ATOM      7  C   UNL     1       2.093   4.740  20.125  0.00  0.00    +0.000 A 
ATOM      8  C   UNL     1       2.616   5.030  18.865  0.00  0.00    +0.000 A 
ATOM      9  C   UNL     1       2.749   6.360  18.455  0.00  0.00    +0.000 A 
ATOM     10  C   UNL     1       2.351   7.400  19.312  0.00  0.00    +0.000 A 
BRANCH   8  11
ATOM     11  S   UNL     1       3.265   3.699  17.861  0.00  0.00    +0.000 S 
ATOM     12  O   UNL     1       3.708   2.660  18.768  0.00  0.00    +0.000 OA
ATOM     13  O   UNL     1       2.283   3.419  16.834  0.00  0.00    +0.000 OA
BRANCH  11  14
ATOM     14  N   UNL     1       4.647   4.372  17.104  0.00  0.00    +0.000 NA
ATOM     15  C   UNL     1       5.876   4.409  17.937  0.00  0.00    +0.000 C 
ATOM     16  C   UNL     1       6.971   5.233  17.266  0.00  0.00    +0.000 C 
ATOM     17  C   UNL     1       7.244   4.737  15.854  0.00  0.00    +0.000 C 
ATOM     18  C   UNL     1       5.961   4.796  15.039  0.00  0.00    +0.000 C 
ATOM     19  C   UNL     1       4.852   3.974  15.691  0.00  0.00    +0.000 C 
ENDBRANCH  11  14
ENDBRANCH   8  11
ENDBRANCH   3   5
BRANCH   2  20
ATOM     20  C   UNL     1       0.241   9.822  22.722  0.00  0.00    +0.000 C 
BRANCH  20  21
ATOM     21  C   UNL     1      -0.816  10.821  22.238  0.00  0.00    +0.000 C 
BRANCH  21  22
ATOM     22  C   UNL     1      -0.345  11.607  21.017  0.00  0.00    +0.000 C 
BRANCH  22  23
ATOM     23  N   UNL     1      -1.193  11.368  19.864  0.00  0.00    +0.000 N 
ATOM     24  C   UNL     1      -2.441  11.907  19.702  0.00  0.00    +0.000 C 
ATOM     25  O   UNL     1      -3.059  12.648  20.442  0.00  0.00    +0.000 OA
ATOM     26  C   UNL     1      -2.937  11.425  18.413  0.00  0.00    +0.000 A 
ATOM     27  C   UNL     1      -4.119  11.694  17.748  0.00  0.00    +0.000 A 
ATOM     28  C   UNL     1      -4.295  11.102  16.492  0.00  0.00    +0.000 A 
ATOM     29  C   UNL     1      -3.301  10.267  15.940  0.00  0.00    +0.000 A 
ATOM     30  C   UNL     1      -2.117  10.003  16.636  0.00  0.00    +0.000 A 
ATOM     31  C   UNL     1      -1.967  10.599  17.874  0.00  0.00    +0.000 A 
ATOM     32  C   UNL     1      -0.859  10.541  18.826  0.00  0.00    +0.000 C 
ATOM     33  O   UNL     1       0.142   9.869  18.670  0.00  0.00    +0.000 OA
ENDBRANCH  22  23
ENDBRANCH  21  22
ENDBRANCH  20  21
ENDBRANCH   2  20
TORSDOF 7
ENDMDL
MODEL 2
REMARK VINA RESULT:      -8.6      1.101      2.327
REMARK  Name = 
REMARK  7 active torsions:
REMARK  status: ('A' for Active; 'I' for Inactive)
REMARK    1  A    between atoms: C_2  and  C_3
REMARK    2  A    between atoms: C_3  and  C_4
REMARK    3  A    between atoms: C_4  and  C_5
REMARK    4  A    between atoms: C_5  and  N_6
REMARK    5  A    between atoms: N_17  and  C_18
REMARK    6  A    between atoms: C_21  and  S_22
REMARK    7  A    between atoms: S_22  and  N_25
REMARK                            x       y       z     vdW  Elec       q    Type
REMARK                         _______ _______ _______ _____ _____    ______ ____
ROOT
ATOM      1  O   UNL     1       1.799   9.098  22.411  0.00  0.00    +0.000 OA
ATOM      2  C   UNL     1       0.724   8.826  21.877  0.00  0.00    +0.000 C 
ATOM      3  N   UNL     1       0.523   7.815  20.947  0.00  0.00    +0.000 N 
ATOM      4  H   UNL     1      -0.352   7.824  20.437  0.00  0.00    +0.000 HD
ENDROOT
BRANCH   3   5
ATOM      5  C   UNL     1       1.521   6.922  20.482  0.00  0.00    +0.000 A 
ATOM      6  C   UNL     1       2.436   7.263  19.482  0.00  0.00    +0.000 A 
ATOM      7  C   UNL     1       3.351   6.328  18.990  0.00  0.00    +0.000 A 
ATOM      8  C   UNL     1       3.381   5.039  19.523  0.00  0.00    +0.000 A 
ATOM      9  C   UNL     1       2.494   4.688  20.546  0.00  0.00    +0.000 A 
ATOM     10  C   UNL     1       1.579   5.636  21.036  0.00  0.00    +0.000 A 
BRANCH   8  11
ATOM     11  S   UNL     1       4.439   3.807  18.773  0.00  0.00    +0.000 S 
ATOM     12  O   UNL     1       4.846   2.899  19.825  0.00  0.00    +0.000 OA
ATOM     13  O   UNL     1       3.757   3.318  17.592  0.00  0.00    +0.000 OA
BRANCH  11  14
ATOM     14  N   UNL     1       5.819   4.685  18.263  0.00  0.00    +0.000 NA
ATOM     15  C   UNL     1       5.683   5.386  16.960  0.00  0.00    +0.000 C 
ATOM     16  C   UNL     1       7.026   5.933  16.486  0.00  0.00    +0.000 C 
ATOM     17  C   UNL     1       7.668   6.811  17.552  0.00  0.00    +0.000 C 
ATOM     18  C   UNL     1       7.843   6.008  18.832  0.00  0.00    +0.000 C 
ATOM     19  C   UNL     1       6.510   5.454  19.326  0.00  0.00    +0.000 C 
ENDBRANCH  11  14
ENDBRANCH   8  11
ENDBRANCH   3   5
BRANCH   2  20
ATOM     20  C   UNL     1      -0.539   9.594  22.234  0.00  0.00    +0.000 C 
BRANCH  20  21
ATOM     21  C   UNL     1      -0.284  11.106  22.230  0.00  0.00    +0.000 C 
BRANCH  21  22
ATOM     22  C   UNL     1       0.214  11.599  20.874  0.00  0.00    +0.000 C 
BRANCH  22  23
ATOM     23  N   UNL     1      -0.763  11.369  19.826  0.00  0.00    +0.000 N 
ATOM     24  C   UNL     1      -0.566  10.535  18.759  0.00  0.00    +0.000 C 
ATOM     25  O   UNL     1       0.406   9.857  18.485  0.00  0.00    +0.000 OA
ATOM     26  C   UNL     1      -1.790  10.585  17.960  0.00  0.00    +0.000 A 
ATOM     27  C   UNL     1      -2.139   9.908  16.807  0.00  0.00    +0.000 A 
ATOM     28  C   UNL     1      -3.417  10.144  16.287  0.00  0.00    +0.000 A 
ATOM     29  C   UNL     1      -4.302  11.040  16.923  0.00  0.00    +0.000 A 
ATOM     30  C   UNL     1      -3.923  11.720  18.085  0.00  0.00    +0.000 A 
ATOM     31  C   UNL     1      -2.656  11.469  18.578  0.00  0.00    +0.000 A 
ATOM     32  C   UNL     1      -1.979  11.995  19.762  0.00  0.00    +0.000 C 
ATOM     33  O   UNL     1      -2.455  12.827  20.510  0.00  0.00    +0.000 OA
ENDBRANCH  22  23
ENDBRANCH  21  22
ENDBRANCH  20  21
ENDBRANCH   2  20
TORSDOF 7
ENDMDL
MODEL 3
REMARK VINA RESULT:      -8.5      2.481      8.861
REMARK  Name = 
REMARK  7 active torsions:
REMARK  status: ('A' for Active; 'I' for Inactive)
REMARK    1  A    between atoms: C_2  and  C_3
REMARK    2  A    between atoms: C_3  and  C_4
REMARK    3  A    between atoms: C_4  and  C_5
REMARK    4  A    between atoms: C_5  and  N_6
REMARK    5  A    between atoms: N_17  and  C_18
REMARK    6  A    between atoms: C_21  and  S_22
REMARK    7  A    between atoms: S_22  and  N_25
REMARK                            x       y       z     vdW  Elec       q    Type
REMARK                         _______ _______ _______ _____ _____    ______ ____
ROOT
ATOM      1  O   UNL     1       5.803   7.028  17.681  0.00  0.00    +0.000 OA
ATOM      2  C   UNL     1       4.973   6.649  16.856  0.00  0.00    +0.000 C 
ATOM      3  N   UNL     1       3.597   6.783  16.982  0.00  0.00    +0.000 N 
ATOM      4  H   UNL     1       3.020   6.255  16.339  0.00  0.00    +0.000 HD
ENDROOT
BRANCH   3   5
ATOM      5  C   UNL     1       2.933   7.397  18.074  0.00  0.00    +0.000 A 
ATOM      6  C   UNL     1       2.732   6.752  19.298  0.00  0.00    +0.000 A 
ATOM      7  C   UNL     1       1.999   7.359  20.323  0.00  0.00    +0.000 A 
ATOM      8  C   UNL     1       1.482   8.642  20.141  0.00  0.00    +0.000 A 
ATOM      9  C   UNL     1       1.698   9.315  18.935  0.00  0.00    +0.000 A 
ATOM     10  C   UNL     1       2.439   8.699  17.912  0.00  0.00    +0.000 A 
BRANCH   8  11
ATOM     11  S   UNL     1       0.408   9.337  21.391  0.00  0.00    +0.000 S 
ATOM     12  O   UNL     1      -0.674   8.396  21.592  0.00  0.00    +0.000 OA
ATOM     13  O   UNL     1       1.248   9.751  22.496  0.00  0.00    +0.000 OA
BRANCH  11  14
ATOM     14  N   UNL     1      -0.239  10.746  20.660  0.00  0.00    +0.000 NA
ATOM     15  C   UNL     1      -1.267  10.507  19.615  0.00  0.00    +0.000 C 
ATOM     16  C   UNL     1      -1.602  11.795  18.868  0.00  0.00    +0.000 C 
ATOM     17  C   UNL     1      -2.004  12.901  19.833  0.00  0.00    +0.000 C 
ATOM     18  C   UNL     1      -0.876  13.140  20.826  0.00  0.00    +0.000 C 
ATOM     19  C   UNL     1      -0.528  11.865  21.588  0.00  0.00    +0.000 C 
ENDBRANCH  11  14
ENDBRANCH   8  11
ENDBRANCH   3   5
BRANCH   2  20
ATOM     20  C   UNL     1       5.410   6.000  15.552  0.00  0.00    +0.000 C 
BRANCH  20  21
ATOM     21  C   UNL     1       4.874   4.567  15.443  0.00  0.00    +0.000 C 
BRANCH  21  22
ATOM     22  C   UNL     1       5.372   3.682  16.583  0.00  0.00    +0.000 C 
BRANCH  22  23
ATOM     23  N   UNL     1       4.368   3.525  17.619  0.00  0.00    +0.000 N 
ATOM     24  C   UNL     1       4.631   3.591  18.961  0.00  0.00    +0.000 C 
ATOM     25  O   UNL     1       5.691   3.780  19.527  0.00  0.00    +0.000 OA
ATOM     26  C   UNL     1       3.354   3.393  19.645  0.00  0.00    +0.000 A 
ATOM     27  C   UNL     1       3.045   3.405  20.992  0.00  0.00    +0.000 A 
ATOM     28  C   UNL     1       1.703   3.218  21.343  0.00  0.00    +0.000 A 
ATOM     29  C   UNL     1       0.717   3.024  20.353  0.00  0.00    +0.000 A 
ATOM     30  C   UNL     1       1.056   3.007  18.996  0.00  0.00    +0.000 A 
ATOM     31  C   UNL     1       2.387   3.195  18.676  0.00  0.00    +0.000 A 
ATOM     32  C   UNL     1       3.050   3.250  17.374  0.00  0.00    +0.000 C 
ATOM     33  O   UNL     1       2.486   3.078  16.312  0.00  0.00    +0.000 OA
ENDBRANCH  22  23
ENDBRANCH  21  22
ENDBRANCH  20  21
ENDBRANCH   2  20
TORSDOF 7
ENDMDL
MODEL 4
REMARK VINA RESULT:      -8.2      0.290      1.786
REMARK  Name = 
REMARK  7 active torsions:
REMARK  status: ('A' for Active; 'I' for Inactive)
REMARK    1  A    between atoms: C_2  and  C_3
REMARK    2  A    between atoms: C_3  and  C_4
REMARK    3  A    between atoms: C_4  and  C_5
REMARK    4  A    between atoms: C_5  and  N_6
REMARK    5  A    between atoms: N_17  and  C_18
REMARK    6  A    between atoms: C_21  and  S_22
REMARK    7  A    between atoms: S_22  and  N_25
REMARK                            x       y       z     vdW  Elec       q    Type
REMARK                         _______ _______ _______ _____ _____    ______ ____
ROOT
ATOM      1  O   UNL     1      -0.844   7.955  21.465  0.00  0.00    +0.000 OA
ATOM      2  C   UNL     1       0.103   8.612  21.898  0.00  0.00    +0.000 C 
ATOM      3  N   UNL     1       1.439   8.387  21.597  0.00  0.00    +0.000 N 
ATOM      4  H   UNL     1       2.127   8.861  22.169  0.00  0.00    +0.000 HD
ENDROOT
BRANCH   3   5
ATOM      5  C   UNL     1       1.922   7.378  20.726  0.00  0.00    +0.000 A 
ATOM      6  C   UNL     1       2.305   7.636  19.406  0.00  0.00    +0.000 A 
ATOM      7  C   UNL     1       2.696   6.602  18.551  0.00  0.00    +0.000 A 
ATOM      8  C   UNL     1       2.738   5.290  19.024  0.00  0.00    +0.000 A 
ATOM      9  C   UNL     1       2.389   5.015  20.349  0.00  0.00    +0.000 A 
ATOM     10  C   UNL     1       1.999   6.062  21.202  0.00  0.00    +0.000 A 
BRANCH   8  11
ATOM     11  S   UNL     1       3.078   3.959  17.877  0.00  0.00    +0.000 S 
ATOM     12  O   UNL     1       3.489   2.815  18.664  0.00  0.00    +0.000 OA
ATOM     13  O   UNL     1       1.948   3.872  16.974  0.00  0.00    +0.000 OA
BRANCH  11  14
ATOM     14  N   UNL     1       4.432   4.505  16.981  0.00  0.00    +0.000 NA
ATOM     15  C   UNL     1       5.689   4.663  17.757  0.00  0.00    +0.000 C 
ATOM     16  C   UNL     1       6.760   5.372  16.933  0.00  0.00    +0.000 C 
ATOM     17  C   UNL     1       6.985   4.667  15.603  0.00  0.00    +0.000 C 
ATOM     18  C   UNL     1       5.675   4.607  14.833  0.00  0.00    +0.000 C 
ATOM     19  C   UNL     1       4.590   3.897  15.638  0.00  0.00    +0.000 C 
ENDBRANCH  11  14
ENDBRANCH   8  11
ENDBRANCH   3   5
BRANCH   2  20
ATOM     20  C   UNL     1      -0.130   9.800  22.818  0.00  0.00    +0.000 C 
BRANCH  20  21
ATOM     21  C   UNL     1      -1.075  10.820  22.172  0.00  0.00    +0.000 C 
BRANCH  21  22
ATOM     22  C   UNL     1      -0.446  11.492  20.954  0.00  0.00    +0.000 C 
BRANCH  22  23
ATOM     23  N   UNL     1      -1.249  11.301  19.761  0.00  0.00    +0.000 N 
ATOM     24  C   UNL     1      -0.886  10.504  18.708  0.00  0.00    +0.000 C 
ATOM     25  O   UNL     1       0.118   9.834  18.564  0.00  0.00    +0.000 OA
ATOM     26  C   UNL     1      -1.972  10.585  17.732  0.00  0.00    +0.000 A 
ATOM     27  C   UNL     1      -2.136   9.949  16.516  0.00  0.00    +0.000 A 
ATOM     28  C   UNL     1      -3.318  10.206  15.813  0.00  0.00    +0.000 A 
ATOM     29  C   UNL     1      -4.294  11.081  16.335  0.00  0.00    +0.000 A 
ATOM     30  C   UNL     1      -4.101  11.720  17.564  0.00  0.00    +0.000 A 
ATOM     31  C   UNL     1      -2.926  11.449  18.238  0.00  0.00    +0.000 A 
ATOM     32  C   UNL     1      -2.442  11.932  19.531  0.00  0.00    +0.000 C 
ATOM     33  O   UNL     1      -3.030  12.738  20.224  0.00  0.00    +0.000 OA
ENDBRANCH  22  23
ENDBRANCH  21  22
ENDBRANCH  20  21
ENDBRANCH   2  20
TORSDOF 7
ENDMDL
MODEL 5
REMARK VINA RESULT:      -8.2      2.614      8.754
REMARK  Name = 
REMARK  7 active torsions:
REMARK  status: ('A' for Active; 'I' for Inactive)
REMARK    1  A    between atoms: C_2  and  C_3
REMARK    2  A    between atoms: C_3  and  C_4
REMARK    3  A    between atoms: C_4  and  C_5
REMARK    4  A    between atoms: C_5  and  N_6
REMARK    5  A    between atoms: N_17  and  C_18
REMARK    6  A    between atoms: C_21  and  S_22
REMARK    7  A    between atoms: S_22  and  N_25
REMARK                            x       y       z     vdW  Elec       q    Type
REMARK                         _______ _______ _______ _____ _____    ______ ____
ROOT
ATOM      1  O   UNL     1       5.511   7.714  17.460  0.00  0.00    +0.000 OA
ATOM      2  C   UNL     1       4.839   6.810  16.965  0.00  0.00    +0.000 C 
ATOM      3  N   UNL     1       3.510   6.543  17.264  0.00  0.00    +0.000 N 
ATOM      4  H   UNL     1       3.133   5.658  16.947  0.00  0.00    +0.000 HD
ENDROOT
BRANCH   3   5
ATOM      5  C   UNL     1       2.711   7.285  18.171  0.00  0.00    +0.000 A 
ATOM      6  C   UNL     1       2.135   8.516  17.841  0.00  0.00    +0.000 A 
ATOM      7  C   UNL     1       1.424   9.258  18.788  0.00  0.00    +0.000 A 
ATOM      8  C   UNL     1       1.254   8.756  20.078  0.00  0.00    +0.000 A 
ATOM      9  C   UNL     1       1.797   7.514  20.419  0.00  0.00    +0.000 A 
ATOM     10  C   UNL     1       2.508   6.773  19.459  0.00  0.00    +0.000 A 
BRANCH   8  11
ATOM     11  S   UNL     1       0.490   9.788  21.324  0.00  0.00    +0.000 S 
ATOM     12  O   UNL     1      -0.740   9.135  21.719  0.00  0.00    +0.000 OA
ATOM     13  O   UNL     1       1.510  10.106  22.303  0.00  0.00    +0.000 OA
BRANCH  11  14
ATOM     14  N   UNL     1       0.086  11.231  20.492  0.00  0.00    +0.000 NA
ATOM     15  C   UNL     1       1.236  11.997  19.950  0.00  0.00    +0.000 C 
ATOM     16  C   UNL     1       0.795  13.368  19.442  0.00  0.00    +0.000 C 
ATOM     17  C   UNL     1      -0.342  13.241  18.438  0.00  0.00    +0.000 C 
ATOM     18  C   UNL     1      -1.510  12.512  19.084  0.00  0.00    +0.000 C 
ATOM     19  C   UNL     1      -1.092  11.136  19.595  0.00  0.00    +0.000 C 
ENDBRANCH  11  14
ENDBRANCH   8  11
ENDBRANCH   3   5
BRANCH   2  20
ATOM     20  C   UNL     1       5.430   5.886  15.913  0.00  0.00    +0.000 C 
BRANCH  20  21
ATOM     21  C   UNL     1       6.058   4.645  16.559  0.00  0.00    +0.000 C 
BRANCH  21  22
ATOM     22  C   UNL     1       5.141   3.428  16.470  0.00  0.00    +0.000 C 
BRANCH  22  23
ATOM     23  N   UNL     1       4.221   3.364  17.590  0.00  0.00    +0.000 N 
ATOM     24  C   UNL     1       2.865   3.221  17.465  0.00  0.00    +0.000 C 
ATOM     25  O   UNL     1       2.194   3.125  16.456  0.00  0.00    +0.000 OA
ATOM     26  C   UNL     1       2.323   3.192  18.824  0.00  0.00    +0.000 A 
ATOM     27  C   UNL     1       1.026   3.026  19.270  0.00  0.00    +0.000 A 
ATOM     28  C   UNL     1       0.823   3.007  20.654  0.00  0.00    +0.000 A 
ATOM     29  C   UNL     1       1.906   3.152  21.547  0.00  0.00    +0.000 A 
ATOM     30  C   UNL     1       3.209   3.327  21.070  0.00  0.00    +0.000 A 
ATOM     31  C   UNL     1       3.383   3.343  19.699  0.00  0.00    +0.000 A 
ATOM     32  C   UNL     1       4.599   3.484  18.900  0.00  0.00    +0.000 C 
ATOM     33  O   UNL     1       5.706   3.670  19.366  0.00  0.00    +0.000 OA
ENDBRANCH  22  23
ENDBRANCH  21  22
ENDBRANCH  20  21
ENDBRANCH   2  20
TORSDOF 7
ENDMDL
MODEL 6
REMARK VINA RESULT:      -8.2      0.584      1.617
REMARK  Name = 
REMARK  7 active torsions:
REMARK  status: ('A' for Active; 'I' for Inactive)
REMARK    1  A    between atoms: C_2  and  C_3
REMARK    2  A    between atoms: C_3  and  C_4
REMARK    3  A    between atoms: C_4  and  C_5
REMARK    4  A    between atoms: C_5  and  N_6
REMARK    5  A    between atoms: N_17  and  C_18
REMARK    6  A    between atoms: C_21  and  S_22
REMARK    7  A    between atoms: S_22  and  N_25
REMARK                            x       y       z     vdW  Elec       q    Type
REMARK                         _______ _______ _______ _____ _____    ______ ____
ROOT
ATOM      1  O   UNL     1      -0.692   8.737  20.832  0.00  0.00    +0.000 OA
ATOM      2  C   UNL     1       0.312   9.033  21.478  0.00  0.00    +0.000 C 
ATOM      3  N   UNL     1       1.533   8.376  21.409  0.00  0.00    +0.000 N 
ATOM      4  H   UNL     1       2.212   8.585  22.131  0.00  0.00    +0.000 HD
ENDROOT
BRANCH   3   5
ATOM      5  C   UNL     1       1.820   7.272  20.567  0.00  0.00    +0.000 A 
ATOM      6  C   UNL     1       1.641   5.945  20.969  0.00  0.00    +0.000 A 
ATOM      7  C   UNL     1       2.014   4.882  20.142  0.00  0.00    +0.000 A 
ATOM      8  C   UNL     1       2.547   5.140  18.878  0.00  0.00    +0.000 A 
ATOM      9  C   UNL     1       2.706   6.460  18.446  0.00  0.00    +0.000 A 
ATOM     10  C   UNL     1       2.325   7.523  19.283  0.00  0.00    +0.000 A 
BRANCH   8  11
ATOM     11  S   UNL     1       3.175   3.780  17.900  0.00  0.00    +0.000 S 
ATOM     12  O   UNL     1       3.495   2.709  18.819  0.00  0.00    +0.000 OA
ATOM     13  O   UNL     1       2.244   3.571  16.810  0.00  0.00    +0.000 OA
BRANCH  11  14
ATOM     14  N   UNL     1       4.641   4.373  17.240  0.00  0.00    +0.000 NA
ATOM     15  C   UNL     1       5.808   4.354  18.158  0.00  0.00    +0.000 C 
ATOM     16  C   UNL     1       6.990   5.113  17.562  0.00  0.00    +0.000 C 
ATOM     17  C   UNL     1       7.336   4.589  16.176  0.00  0.00    +0.000 C 
ATOM     18  C   UNL     1       6.119   4.706  15.271  0.00  0.00    +0.000 C 
ATOM     19  C   UNL     1       4.924   3.951  15.847  0.00  0.00    +0.000 C 
ENDBRANCH  11  14
ENDBRANCH   8  11
ENDBRANCH   3   5
BRANCH   2  20
ATOM     20  C   UNL     1       0.306  10.221  22.427  0.00  0.00    +0.000 C 
BRANCH  20  21
ATOM     21  C   UNL     1      -0.981  11.041  22.275  0.00  0.00    +0.000 C 
BRANCH  21  22
ATOM     22  C   UNL     1      -0.823  12.171  21.261  0.00  0.00    +0.000 C 
BRANCH  22  23
ATOM     23  N   UNL     1      -1.637  11.951  20.080  0.00  0.00    +0.000 N 
ATOM     24  C   UNL     1      -1.155  11.483  18.888  0.00  0.00    +0.000 C 
ATOM     25  O   UNL     1      -0.017  11.174  18.589  0.00  0.00    +0.000 OA
ATOM     26  C   UNL     1      -2.298  11.399  17.980  0.00  0.00    +0.000 A 
ATOM     27  C   UNL     1      -2.378  10.954  16.674  0.00  0.00    +0.000 A 
ATOM     28  C   UNL     1      -3.641  10.962  16.071  0.00  0.00    +0.000 A 
ATOM     29  C   UNL     1      -4.777  11.410  16.778  0.00  0.00    +0.000 A 
ATOM     30  C   UNL     1      -4.669  11.865  18.096  0.00  0.00    +0.000 A 
ATOM     31  C   UNL     1      -3.412  11.846  18.669  0.00  0.00    +0.000 A 
ATOM     32  C   UNL     1      -2.976  12.230  20.011  0.00  0.00    +0.000 C 
ATOM     33  O   UNL     1      -3.708  12.699  20.860  0.00  0.00    +0.000 OA
ENDBRANCH  22  23
ENDBRANCH  21  22
ENDBRANCH  20  21
ENDBRANCH   2  20
TORSDOF 7
ENDMDL
MODEL 7
REMARK VINA RESULT:      -8.1      6.413      9.017
REMARK  Name = 
REMARK  7 active torsions:
REMARK  status: ('A' for Active; 'I' for Inactive)
REMARK    1  A    between atoms: C_2  and  C_3
REMARK    2  A    between atoms: C_3  and  C_4
REMARK    3  A    between atoms: C_4  and  C_5
REMARK    4  A    between atoms: C_5  and  N_6
REMARK    5  A    between atoms: N_17  and  C_18
REMARK    6  A    between atoms: C_21  and  S_22
REMARK    7  A    between atoms: S_22  and  N_25
REMARK                            x       y       z     vdW  Elec       q    Type
REMARK                         _______ _______ _______ _____ _____    ______ ____
ROOT
ATOM      1  O   UNL     1       8.342   7.309  18.743  0.00  0.00    +0.000 OA
ATOM      2  C   UNL     1       7.946   8.154  17.940  0.00  0.00    +0.000 C 
ATOM      3  N   UNL     1       6.822   8.030  17.135  0.00  0.00    +0.000 N 
ATOM      4  H   UNL     1       6.718   8.698  16.381  0.00  0.00    +0.000 HD
ENDROOT
BRANCH   3   5
ATOM      5  C   UNL     1       5.941   6.919  17.126  0.00  0.00    +0.000 A 
ATOM      6  C   UNL     1       4.607   7.006  17.533  0.00  0.00    +0.000 A 
ATOM      7  C   UNL     1       3.793   5.871  17.590  0.00  0.00    +0.000 A 
ATOM      8  C   UNL     1       4.303   4.631  17.207  0.00  0.00    +0.000 A 
ATOM      9  C   UNL     1       5.626   4.527  16.768  0.00  0.00    +0.000 A 
ATOM     10  C   UNL     1       6.437   5.675  16.710  0.00  0.00    +0.000 A 
BRANCH   8  11
ATOM     11  S   UNL     1       3.306   3.164  17.443  0.00  0.00    +0.000 S 
ATOM     12  O   UNL     1       2.189   3.258  16.526  0.00  0.00    +0.000 OA
ATOM     13  O   UNL     1       4.202   2.026  17.410  0.00  0.00    +0.000 OA
BRANCH  11  14
ATOM     14  N   UNL     1       2.700   3.315  19.039  0.00  0.00    +0.000 NA
ATOM     15  C   UNL     1       1.230   3.496  19.149  0.00  0.00    +0.000 C 
ATOM     16  C   UNL     1       0.825   3.856  20.576  0.00  0.00    +0.000 C 
ATOM     17  C   UNL     1       1.358   2.835  21.571  0.00  0.00    +0.000 C 
ATOM     18  C   UNL     1       2.873   2.757  21.453  0.00  0.00    +0.000 C 
ATOM     19  C   UNL     1       3.301   2.394  20.034  0.00  0.00    +0.000 C 
ENDBRANCH  11  14
ENDBRANCH   8  11
ENDBRANCH   3   5
BRANCH   2  20
ATOM     20  C   UNL     1       8.673   9.479  17.782  0.00  0.00    +0.000 C 
BRANCH  20  21
ATOM     21  C   UNL     1       8.881  10.159  19.140  0.00  0.00    +0.000 C 
BRANCH  21  22
ATOM     22  C   UNL     1      10.136  11.029  19.158  0.00  0.00    +0.000 C 
BRANCH  22  23
ATOM     23  N   UNL     1       9.812  12.441  19.091  0.00  0.00    +0.000 N 
ATOM     24  C   UNL     1       9.159  13.130  20.077  0.00  0.00    +0.000 C 
ATOM     25  O   UNL     1       8.741  12.726  21.146  0.00  0.00    +0.000 OA
ATOM     26  C   UNL     1       9.047  14.513  19.616  0.00  0.00    +0.000 A 
ATOM     27  C   UNL     1       8.514  15.627  20.237  0.00  0.00    +0.000 A 
ATOM     28  C   UNL     1       8.586  16.841  19.545  0.00  0.00    +0.000 A 
ATOM     29  C   UNL     1       9.180  16.911  18.267  0.00  0.00    +0.000 A 
ATOM     30  C   UNL     1       9.704  15.768  17.655  0.00  0.00    +0.000 A 
ATOM     31  C   UNL     1       9.621  14.581  18.359  0.00  0.00    +0.000 A 
ATOM     32  C   UNL     1      10.085  13.239  18.012  0.00  0.00    +0.000 C 
ATOM     33  O   UNL     1      10.606  12.948  16.954  0.00  0.00    +0.000 OA
ENDBRANCH  22  23
ENDBRANCH  21  22
ENDBRANCH  20  21
ENDBRANCH   2  20
TORSDOF 7
ENDMDL
MODEL 8
REMARK VINA RESULT:      -8.0      3.152      8.434
REMARK  Name = 
REMARK  7 active torsions:
REMARK  status: ('A' for Active; 'I' for Inactive)
REMARK    1  A    between atoms: C_2  and  C_3
REMARK    2  A    between atoms: C_3  and  C_4
REMARK    3  A    between atoms: C_4  and  C_5
REMARK    4  A    between atoms: C_5  and  N_6
REMARK    5  A    between atoms: N_17  and  C_18
REMARK    6  A    between atoms: C_21  and  S_22
REMARK    7  A    between atoms: S_22  and  N_25
REMARK                            x       y       z     vdW  Elec       q    Type
REMARK                         _______ _______ _______ _____ _____    ______ ____
ROOT
ATOM      1  O   UNL     1       0.374   4.888  20.442  0.00  0.00    +0.000 OA
ATOM      2  C   UNL     1       1.552   4.999  20.779  0.00  0.00    +0.000 C 
ATOM      3  N   UNL     1       2.260   6.191  20.838  0.00  0.00    +0.000 N 
ATOM      4  H   UNL     1       3.266   6.127  20.932  0.00  0.00    +0.000 HD
ENDROOT
BRANCH   3   5
ATOM      5  C   UNL     1       1.730   7.472  20.539  0.00  0.00    +0.000 A 
ATOM      6  C   UNL     1       0.997   8.223  21.463  0.00  0.00    +0.000 A 
ATOM      7  C   UNL     1       0.418   9.444  21.106  0.00  0.00    +0.000 A 
ATOM      8  C   UNL     1       0.597   9.946  19.817  0.00  0.00    +0.000 A 
ATOM      9  C   UNL     1       1.353   9.225  18.887  0.00  0.00    +0.000 A 
ATOM     10  C   UNL     1       1.934   7.999  19.257  0.00  0.00    +0.000 A 
BRANCH   8  11
ATOM     11  S   UNL     1      -0.284  11.422  19.323  0.00  0.00    +0.000 S 
ATOM     12  O   UNL     1      -0.647  11.255  17.932  0.00  0.00    +0.000 OA
ATOM     13  O   UNL     1      -1.295  11.675  20.330  0.00  0.00    +0.000 OA
BRANCH  11  14
ATOM     14  N   UNL     1       0.887  12.670  19.423  0.00  0.00    +0.000 NA
ATOM     15  C   UNL     1       1.386  12.967  20.790  0.00  0.00    +0.000 C 
ATOM     16  C   UNL     1       2.234  14.236  20.802  0.00  0.00    +0.000 C 
ATOM     17  C   UNL     1       3.358  14.155  19.779  0.00  0.00    +0.000 C 
ATOM     18  C   UNL     1       2.769  13.923  18.396  0.00  0.00    +0.000 C 
ATOM     19  C   UNL     1       1.920  12.656  18.360  0.00  0.00    +0.000 C 
ENDBRANCH  11  14
ENDBRANCH   8  11
ENDBRANCH   3   5
BRANCH   2  20
ATOM     20  C   UNL     1       2.357   3.784  21.209  0.00  0.00    +0.000 C 
BRANCH  20  21
ATOM     21  C   UNL     1       1.772   2.497  20.615  0.00  0.00    +0.000 C 
BRANCH  21  22
ATOM     22  C   UNL     1       2.370   2.174  19.247  0.00  0.00    +0.000 C 
BRANCH  22  23
ATOM     23  N   UNL     1       3.288   3.208  18.805  0.00  0.00    +0.000 N 
ATOM     24  C   UNL     1       2.964   4.195  17.913  0.00  0.00    +0.000 C 
ATOM     25  O   UNL     1       1.909   4.397  17.343  0.00  0.00    +0.000 OA
ATOM     26  C   UNL     1       4.160   5.021  17.755  0.00  0.00    +0.000 A 
ATOM     27  C   UNL     1       4.369   6.165  17.008  0.00  0.00    +0.000 A 
ATOM     28  C   UNL     1       5.632   6.761  17.090  0.00  0.00    +0.000 A 
ATOM     29  C   UNL     1       6.643   6.206  17.903  0.00  0.00    +0.000 A 
ATOM     30  C   UNL     1       6.409   5.042  18.643  0.00  0.00    +0.000 A 
ATOM     31  C   UNL     1       5.154   4.473  18.545  0.00  0.00    +0.000 A 
ATOM     32  C   UNL     1       4.597   3.288  19.196  0.00  0.00    +0.000 C 
ATOM     33  O   UNL     1       5.225   2.554  19.933  0.00  0.00    +0.000 OA
ENDBRANCH  22  23
ENDBRANCH  21  22
ENDBRANCH  20  21
ENDBRANCH   2  20
TORSDOF 7
ENDMDL
MODEL 9
REMARK VINA RESULT:      -8.0      2.803      8.883
REMARK  Name = 
REMARK  7 active torsions:
REMARK  status: ('A' for Active; 'I' for Inactive)
REMARK    1  A    between atoms: C_2  and  C_3
REMARK    2  A    between atoms: C_3  and  C_4
REMARK    3  A    between atoms: C_4  and  C_5
REMARK    4  A    between atoms: C_5  and  N_6
REMARK    5  A    between atoms: N_17  and  C_18
REMARK    6  A    between atoms: C_21  and  S_22
REMARK    7  A    between atoms: S_22  and  N_25
REMARK                            x       y       z     vdW  Elec       q    Type
REMARK                         _______ _______ _______ _____ _____    ______ ____
ROOT
ATOM      1  O   UNL     1       5.719   7.708  16.991  0.00  0.00    +0.000 OA
ATOM      2  C   UNL     1       5.010   6.741  16.717  0.00  0.00    +0.000 C 
ATOM      3  N   UNL     1       3.722   6.530  17.190  0.00  0.00    +0.000 N 
ATOM      4  H   UNL     1       3.325   5.608  17.055  0.00  0.00    +0.000 HD
ENDROOT
BRANCH   3   5
ATOM      5  C   UNL     1       3.013   7.408  18.049  0.00  0.00    +0.000 A 
ATOM      6  C   UNL     1       2.670   7.070  19.362  0.00  0.00    +0.000 A 
ATOM      7  C   UNL     1       1.898   7.928  20.151  0.00  0.00    +0.000 A 
ATOM      8  C   UNL     1       1.485   9.158  19.639  0.00  0.00    +0.000 A 
ATOM      9  C   UNL     1       1.843   9.527  18.339  0.00  0.00    +0.000 A 
ATOM     10  C   UNL     1       2.623   8.660  17.554  0.00  0.00    +0.000 A 
BRANCH   8  11
ATOM     11  S   UNL     1       0.361  10.169  20.595  0.00  0.00    +0.000 S 
ATOM     12  O   UNL     1      -0.976   9.674  20.341  0.00  0.00    +0.000 OA
ATOM     13  O   UNL     1       0.885  10.236  21.944  0.00  0.00    +0.000 OA
BRANCH  11  14
ATOM     14  N   UNL     1       0.494  11.729  19.897  0.00  0.00    +0.000 NA
ATOM     15  C   UNL     1      -0.772  12.303  19.374  0.00  0.00    +0.000 C 
ATOM     16  C   UNL     1      -0.508  13.573  18.569  0.00  0.00    +0.000 C 
ATOM     17  C   UNL     1       0.293  14.581  19.380  0.00  0.00    +0.000 C 
ATOM     18  C   UNL     1       1.605  13.949  19.819  0.00  0.00    +0.000 C 
ATOM     19  C   UNL     1       1.365  12.678  20.630  0.00  0.00    +0.000 C 
ENDBRANCH  11  14
ENDBRANCH   8  11
ENDBRANCH   3   5
BRANCH   2  20
ATOM     20  C   UNL     1       5.499   5.662  15.764  0.00  0.00    +0.000 C 
BRANCH  20  21
ATOM     21  C   UNL     1       6.082   4.471  16.534  0.00  0.00    +0.000 C 
BRANCH  21  22
ATOM     22  C   UNL     1       5.156   3.258  16.497  0.00  0.00    +0.000 C 
BRANCH  22  23
ATOM     23  N   UNL     1       4.194   3.283  17.583  0.00  0.00    +0.000 N 
ATOM     24  C   UNL     1       4.526   3.418  18.904  0.00  0.00    +0.000 C 
ATOM     25  O   UNL     1       5.626   3.536  19.410  0.00  0.00    +0.000 OA
ATOM     26  C   UNL     1       3.270   3.407  19.653  0.00  0.00    +0.000 A 
ATOM     27  C   UNL     1       3.030   3.550  21.006  0.00  0.00    +0.000 A 
ATOM     28  C   UNL     1       1.694   3.531  21.425  0.00  0.00    +0.000 A 
ATOM     29  C   UNL     1       0.647   3.371  20.493  0.00  0.00    +0.000 A 
ATOM     30  C   UNL     1       0.916   3.220  19.129  0.00  0.00    +0.000 A 
ATOM     31  C   UNL     1       2.243   3.242  18.742  0.00  0.00    +0.000 A 
ATOM     32  C   UNL     1       2.844   3.132  17.414  0.00  0.00    +0.000 C 
ATOM     33  O   UNL     1       2.214   2.943  16.391  0.00  0.00    +0.000 OA
ENDBRANCH  22  23
ENDBRANCH  21  22
ENDBRANCH  20  21
ENDBRANCH   2  20
TORSDOF 7
ENDMDL
