MODEL 1
REMARK VINA RESULT:      -8.1      0.000      0.000
REMARK  Name = 
REMARK  8 active torsions:
REMARK  status: ('A' for Active; 'I' for Inactive)
REMARK    1  A    between atoms: C_1  and  N_2
REMARK    2  A    between atoms: C_6  and  C_7
REMARK    3  A    between atoms: C_7  and  C_8
REMARK    4  A    between atoms: C_12  and  N_13
REMARK    5  A    between atoms: C_18  and  C_19
REMARK    6  A    between atoms: C_19  and  C_20
REMARK    7  A    between atoms: C_22  and  O_23
REMARK    8  A    between atoms: C_26  and  C_27
REMARK                            x       y       z     vdW  Elec       q    Type
REMARK                         _______ _______ _______ _____ _____    ______ ____
ROOT
ATOM      1  N   UNL     1      -0.395  11.148  18.212  0.00  0.00    +0.000 N 
ATOM      2  C   UNL     1       0.369  10.350  19.203  0.00  0.00    +0.000 C 
ATOM      3  C   UNL     1       0.049  11.052  20.491  0.00  0.00    +0.000 A 
ATOM      4  C   UNL     1      -0.245  12.380  20.177  0.00  0.00    +0.000 A 
ATOM      5  C   UNL     1      -0.732  13.287  21.101  0.00  0.00    +0.000 A 
ATOM      6  C   UNL     1      -0.916  12.843  22.415  0.00  0.00    +0.000 A 
ATOM      7  C   UNL     1      -0.620  11.498  22.742  0.00  0.00    +0.000 A 
ATOM      8  C   UNL     1      -0.150  10.574  21.782  0.00  0.00    +0.000 A 
ATOM      9  C   UNL     1      -0.354  12.483  18.700  0.00  0.00    +0.000 C 
ATOM     10  O   UNL     1      -0.592  13.520  18.111  0.00  0.00    +0.000 OA
ENDROOT
BRANCH   1  15
ATOM     11  C   UNL     1      -3.962  11.500  17.722  0.00  0.00    +0.000 A 
ATOM     12  C   UNL     1      -4.007  10.850  16.480  0.00  0.00    +0.000 A 
ATOM     13  C   UNL     1      -3.038   9.911  16.140  0.00  0.00    +0.000 A 
ATOM     14  C   UNL     1      -1.953   9.702  16.980  0.00  0.00    +0.000 A 
ATOM     15  C   UNL     1      -1.739  10.593  18.040  0.00  0.00    +0.000 A 
ATOM     16  C   UNL     1      -2.821  11.339  18.522  0.00  0.00    +0.000 A 
BRANCH  11  17
ATOM     17  C   UNL     1      -5.144  12.325  18.180  0.00  0.00    +0.000 C 
BRANCH  17  23
ATOM     18  C   UNL     1      -6.098  13.516  20.927  0.00  0.00    +0.000 C 
ATOM     19  N   UNL     1      -6.443  12.234  20.376  0.00  0.00    +0.000 N 
ATOM     20  C   UNL     1      -7.277  11.324  20.955  0.00  0.00    +0.000 A 
ATOM     21  N   UNL     1      -7.364  10.262  20.191  0.00  0.00    +0.000 NA
ATOM     22  N   UNL     1      -6.575  10.487  19.080  0.00  0.00    +0.000 NA
ATOM     23  C   UNL     1      -6.027  11.673  19.194  0.00  0.00    +0.000 A 
ENDBRANCH  17  23
ENDBRANCH  11  17
ENDBRANCH   1  15
BRANCH   8  24
ATOM     24  C   UNL     1       0.004   9.128  22.174  0.00  0.00    +0.000 C 
ATOM     25  F   UNL     1      -0.857   8.278  21.554  0.00  0.00    +0.000 F 
ATOM     26  F   UNL     1       1.250   8.647  21.910  0.00  0.00    +0.000 F 
ATOM     27  F   UNL     1      -0.192   8.929  23.510  0.00  0.00    +0.000 F 
ENDBRANCH   8  24
BRANCH   6  28
ATOM     28  C   UNL     1      -1.455  13.781  23.468  0.00  0.00    +0.000 C 
BRANCH  28  29
ATOM     29  C   UNL     1      -2.978  13.696  23.506  0.00  0.00    +0.000 C 
ATOM     30  C   UNL     1      -3.595  13.887  24.909  0.00  0.00    +0.000 C 
ATOM     31  C   UNL     1      -4.487  12.654  24.676  0.00  0.00    +0.000 C 
ATOM     32  C   UNL     1      -3.619  12.289  23.459  0.00  0.00    +0.000 C 
BRANCH  31  33
ATOM     33  O   UNL     1      -5.880  12.910  24.422  0.00  0.00    +0.000 OA
ATOM     34  H   UNL     1      -6.113  13.679  24.966  0.00  0.00    +0.000 HD
ENDBRANCH  31  33
ENDBRANCH  28  29
ENDBRANCH   6  28
TORSDOF 7
ENDMDL
MODEL 2
REMARK VINA RESULT:      -8.0      7.884     11.308
REMARK  Name = 
REMARK  8 active torsions:
REMARK  status: ('A' for Active; 'I' for Inactive)
REMARK    1  A    between atoms: C_1  and  N_2
REMARK    2  A    between atoms: C_6  and  C_7
REMARK    3  A    between atoms: C_7  and  C_8
REMARK    4  A    between atoms: C_12  and  N_13
REMARK    5  A    between atoms: C_18  and  C_19
REMARK    6  A    between atoms: C_19  and  C_20
REMARK    7  A    between atoms: C_22  and  O_23
REMARK    8  A    between atoms: C_26  and  C_27
REMARK                            x       y       z     vdW  Elec       q    Type
REMARK                         _______ _______ _______ _____ _____    ______ ____
ROOT
ATOM      1  N   UNL     1       4.060   4.417  18.905  0.00  0.00    +0.000 N 
ATOM      2  C   UNL     1       5.385   5.059  19.091  0.00  0.00    +0.000 C 
ATOM      3  C   UNL     1       5.920   5.100  17.689  0.00  0.00    +0.000 A 
ATOM      4  C   UNL     1       5.322   4.051  16.988  0.00  0.00    +0.000 A 
ATOM      5  C   UNL     1       5.465   3.875  15.623  0.00  0.00    +0.000 A 
ATOM      6  C   UNL     1       6.265   4.789  14.928  0.00  0.00    +0.000 A 
ATOM      7  C   UNL     1       6.874   5.855  15.632  0.00  0.00    +0.000 A 
ATOM      8  C   UNL     1       6.698   6.040  17.022  0.00  0.00    +0.000 A 
ATOM      9  C   UNL     1       4.243   3.492  17.840  0.00  0.00    +0.000 C 
ATOM     10  O   UNL     1       3.541   2.555  17.513  0.00  0.00    +0.000 OA
ENDROOT
BRANCH   1  15
ATOM     11  C   UNL     1       2.135   7.309  19.915  0.00  0.00    +0.000 A 
ATOM     12  C   UNL     1       2.587   8.154  18.891  0.00  0.00    +0.000 A 
ATOM     13  C   UNL     1       3.037   7.623  17.686  0.00  0.00    +0.000 A 
ATOM     14  C   UNL     1       3.156   6.248  17.538  0.00  0.00    +0.000 A 
ATOM     15  C   UNL     1       3.032   5.433  18.672  0.00  0.00    +0.000 A 
ATOM     16  C   UNL     1       2.337   5.927  19.782  0.00  0.00    +0.000 A 
BRANCH  11  17
ATOM     17  C   UNL     1       1.422   7.897  21.113  0.00  0.00    +0.000 C 
BRANCH  17  23
ATOM     18  C   UNL     1      -0.152   9.654  23.189  0.00  0.00    +0.000 C 
ATOM     19  N   UNL     1      -0.066   9.864  21.770  0.00  0.00    +0.000 N 
ATOM     20  C   UNL     1      -0.643  10.895  21.089  0.00  0.00    +0.000 A 
ATOM     21  N   UNL     1      -0.374  10.779  19.810  0.00  0.00    +0.000 NA
ATOM     22  N   UNL     1       0.405   9.649  19.653  0.00  0.00    +0.000 NA
ATOM     23  C   UNL     1       0.590   9.106  20.833  0.00  0.00    +0.000 A 
ENDBRANCH  17  23
ENDBRANCH  11  17
ENDBRANCH   1  15
BRANCH   8  24
ATOM     24  C   UNL     1       7.260   7.277  17.670  0.00  0.00    +0.000 C 
ATOM     25  F   UNL     1       6.333   8.219  17.993  0.00  0.00    +0.000 F 
ATOM     26  F   UNL     1       7.923   7.003  18.827  0.00  0.00    +0.000 F 
ATOM     27  F   UNL     1       8.161   7.918  16.872  0.00  0.00    +0.000 F 
ENDBRANCH   8  24
BRANCH   6  28
ATOM     28  C   UNL     1       6.450   4.658  13.435  0.00  0.00    +0.000 C 
BRANCH  28  29
ATOM     29  C   UNL     1       6.262   3.204  13.016  0.00  0.00    +0.000 C 
ATOM     30  C   UNL     1       7.207   2.735  11.887  0.00  0.00    +0.000 C 
ATOM     31  C   UNL     1       6.009   2.101  11.158  0.00  0.00    +0.000 C 
ATOM     32  C   UNL     1       5.063   2.872  12.096  0.00  0.00    +0.000 C 
BRANCH  31  33
ATOM     33  O   UNL     1       5.924   0.665  11.194  0.00  0.00    +0.000 OA
ATOM     34  H   UNL     1       6.246   0.401  12.071  0.00  0.00    +0.000 HD
ENDBRANCH  31  33
ENDBRANCH  28  29
ENDBRANCH   6  28
TORSDOF 7
ENDMDL
MODEL 3
REMARK VINA RESULT:      -7.9      0.552      1.256
REMARK  Name = 
REMARK  8 active torsions:
REMARK  status: ('A' for Active; 'I' for Inactive)
REMARK    1  A    between atoms: C_1  and  N_2
REMARK    2  A    between atoms: C_6  and  C_7
REMARK    3  A    between atoms: C_7  and  C_8
REMARK    4  A    between atoms: C_12  and  N_13
REMARK    5  A    between atoms: C_18  and  C_19
REMARK    6  A    between atoms: C_19  and  C_20
REMARK    7  A    between atoms: C_22  and  O_23
REMARK    8  A    between atoms: C_26  and  C_27
REMARK                            x       y       z     vdW  Elec       q    Type
REMARK                         _______ _______ _______ _____ _____    ______ ____
ROOT
ATOM      1  N   UNL     1      -0.424  11.244  18.213  0.00  0.00    +0.000 N 
ATOM      2  C   UNL     1       0.358  10.442  19.187  0.00  0.00    +0.000 C 
ATOM      3  C   UNL     1       0.041  11.123  20.487  0.00  0.00    +0.000 A 
ATOM      4  C   UNL     1      -0.272  12.452  20.193  0.00  0.00    +0.000 A 
ATOM      5  C   UNL     1      -0.761  13.340  21.134  0.00  0.00    +0.000 A 
ATOM      6  C   UNL     1      -0.929  12.876  22.443  0.00  0.00    +0.000 A 
ATOM      7  C   UNL     1      -0.614  11.530  22.750  0.00  0.00    +0.000 A 
ATOM      8  C   UNL     1      -0.141  10.625  21.773  0.00  0.00    +0.000 A 
ATOM      9  C   UNL     1      -0.394  12.573  18.719  0.00  0.00    +0.000 C 
ATOM     10  O   UNL     1      -0.650  13.615  18.146  0.00  0.00    +0.000 OA
ENDROOT
BRANCH   1  15
ATOM     11  C   UNL     1      -3.952  11.534  17.467  0.00  0.00    +0.000 A 
ATOM     12  C   UNL     1      -3.933  10.709  16.332  0.00  0.00    +0.000 A 
ATOM     13  C   UNL     1      -2.957   9.726  16.192  0.00  0.00    +0.000 A 
ATOM     14  C   UNL     1      -1.926   9.639  17.116  0.00  0.00    +0.000 A 
ATOM     15  C   UNL     1      -1.762  10.675  18.046  0.00  0.00    +0.000 A 
ATOM     16  C   UNL     1      -2.861  11.488  18.347  0.00  0.00    +0.000 A 
BRANCH  11  17
ATOM     17  C   UNL     1      -5.148  12.422  17.728  0.00  0.00    +0.000 C 
BRANCH  17  23
ATOM     18  C   UNL     1      -6.833  10.124  19.053  0.00  0.00    +0.000 C 
ATOM     19  N   UNL     1      -6.400  11.345  19.675  0.00  0.00    +0.000 N 
ATOM     20  C   UNL     1      -6.633  11.697  20.971  0.00  0.00    +0.000 A 
ATOM     21  N   UNL     1      -6.110  12.877  21.206  0.00  0.00    +0.000 NA
ATOM     22  N   UNL     1      -5.513  13.303  20.036  0.00  0.00    +0.000 NA
ATOM     23  C   UNL     1      -5.687  12.379  19.121  0.00  0.00    +0.000 A 
ENDBRANCH  17  23
ENDBRANCH  11  17
ENDBRANCH   1  15
BRANCH   8  24
ATOM     24  C   UNL     1       0.034   9.177  22.145  0.00  0.00    +0.000 C 
ATOM     25  F   UNL     1      -0.151   8.904  23.464  0.00  0.00    +0.000 F 
ATOM     26  F   UNL     1      -0.827   8.360  21.477  0.00  0.00    +0.000 F 
ATOM     27  F   UNL     1       1.283   8.712  21.852  0.00  0.00    +0.000 F 
ENDBRANCH   8  24
BRANCH   6  28
ATOM     28  C   UNL     1      -1.470  13.794  23.513  0.00  0.00    +0.000 C 
BRANCH  28  29
ATOM     29  C   UNL     1      -2.994  13.723  23.533  0.00  0.00    +0.000 C 
ATOM     30  C   UNL     1      -3.625  13.901  24.931  0.00  0.00    +0.000 C 
ATOM     31  C   UNL     1      -4.526  12.680  24.671  0.00  0.00    +0.000 C 
ATOM     32  C   UNL     1      -3.648  12.323  23.459  0.00  0.00    +0.000 C 
BRANCH  31  33
ATOM     33  O   UNL     1      -5.914  12.953  24.405  0.00  0.00    +0.000 OA
ATOM     34  H   UNL     1      -5.923  13.684  23.766  0.00  0.00    +0.000 HD
ENDBRANCH  31  33
ENDBRANCH  28  29
ENDBRANCH   6  28
TORSDOF 7
ENDMDL
MODEL 4
REMARK VINA RESULT:      -7.9      7.907     11.370
REMARK  Name = 
REMARK  8 active torsions:
REMARK  status: ('A' for Active; 'I' for Inactive)
REMARK    1  A    between atoms: C_1  and  N_2
REMARK    2  A    between atoms: C_6  and  C_7
REMARK    3  A    between atoms: C_7  and  C_8
REMARK    4  A    between atoms: C_12  and  N_13
REMARK    5  A    between atoms: C_18  and  C_19
REMARK    6  A    between atoms: C_19  and  C_20
REMARK    7  A    between atoms: C_22  and  O_23
REMARK    8  A    between atoms: C_26  and  C_27
REMARK                            x       y       z     vdW  Elec       q    Type
REMARK                         _______ _______ _______ _____ _____    ______ ____
ROOT
ATOM      1  N   UNL     1       3.906   4.489  18.793  0.00  0.00    +0.000 N 
ATOM      2  C   UNL     1       5.251   5.075  19.013  0.00  0.00    +0.000 C 
ATOM      3  C   UNL     1       5.823   5.091  17.625  0.00  0.00    +0.000 A 
ATOM      4  C   UNL     1       5.200   4.068  16.909  0.00  0.00    +0.000 A 
ATOM      5  C   UNL     1       5.370   3.885  15.548  0.00  0.00    +0.000 A 
ATOM      6  C   UNL     1       6.225   4.763  14.874  0.00  0.00    +0.000 A 
ATOM      7  C   UNL     1       6.860   5.804  15.593  0.00  0.00    +0.000 A 
ATOM      8  C   UNL     1       6.656   5.997  16.978  0.00  0.00    +0.000 A 
ATOM      9  C   UNL     1       4.077   3.555  17.734  0.00  0.00    +0.000 C 
ATOM     10  O   UNL     1       3.345   2.648  17.389  0.00  0.00    +0.000 OA
ENDROOT
BRANCH   1  15
ATOM     11  C   UNL     1       1.941   7.348  19.818  0.00  0.00    +0.000 A 
ATOM     12  C   UNL     1       2.513   8.255  18.913  0.00  0.00    +0.000 A 
ATOM     13  C   UNL     1       3.078   7.802  17.724  0.00  0.00    +0.000 A 
ATOM     14  C   UNL     1       3.185   6.439  17.485  0.00  0.00    +0.000 A 
ATOM     15  C   UNL     1       2.928   5.547  18.534  0.00  0.00    +0.000 A 
ATOM     16  C   UNL     1       2.130   5.976  19.601  0.00  0.00    +0.000 A 
BRANCH  11  17
ATOM     17  C   UNL     1       1.118   7.865  20.977  0.00  0.00    +0.000 C 
BRANCH  17  23
ATOM     18  C   UNL     1      -0.796   9.601  19.189  0.00  0.00    +0.000 C 
ATOM     19  N   UNL     1       0.066  10.071  20.238  0.00  0.00    +0.000 N 
ATOM     20  C   UNL     1       0.175  11.366  20.650  0.00  0.00    +0.000 A 
ATOM     21  N   UNL     1       1.057  11.445  21.617  0.00  0.00    +0.000 NA
ATOM     22  N   UNL     1       1.532  10.169  21.848  0.00  0.00    +0.000 NA
ATOM     23  C   UNL     1       0.932   9.347  21.020  0.00  0.00    +0.000 A 
ENDBRANCH  17  23
ENDBRANCH  11  17
ENDBRANCH   1  15
BRANCH   8  24
ATOM     24  C   UNL     1       7.253   7.211  17.640  0.00  0.00    +0.000 C 
ATOM     25  F   UNL     1       7.944   6.951  18.782  0.00  0.00    +0.000 F 
ATOM     26  F   UNL     1       8.121   7.874  16.828  0.00  0.00    +0.000 F 
ATOM     27  F   UNL     1       6.306   8.128  17.993  0.00  0.00    +0.000 F 
ENDBRANCH   8  24
BRANCH   6  28
ATOM     28  C   UNL     1       6.442   4.623  13.386  0.00  0.00    +0.000 C 
BRANCH  28  29
ATOM     29  C   UNL     1       6.289   3.162  12.976  0.00  0.00    +0.000 C 
ATOM     30  C   UNL     1       7.275   2.696  11.882  0.00  0.00    +0.000 C 
ATOM     31  C   UNL     1       6.109   2.037  11.123  0.00  0.00    +0.000 C 
ATOM     32  C   UNL     1       5.124   2.802  12.024  0.00  0.00    +0.000 C 
BRANCH  31  33
ATOM     33  O   UNL     1       6.045   0.600  11.172  0.00  0.00    +0.000 OA
ATOM     34  H   UNL     1       5.113   0.381  11.334  0.00  0.00    +0.000 HD
ENDBRANCH  31  33
ENDBRANCH  28  29
ENDBRANCH   6  28
TORSDOF 7
ENDMDL
MODEL 5
REMARK VINA RESULT:      -7.7      4.912      8.512
REMARK  Name = 
REMARK  8 active torsions:
REMARK  status: ('A' for Active; 'I' for Inactive)
REMARK    1  A    between atoms: C_1  and  N_2
REMARK    2  A    between atoms: C_6  and  C_7
REMARK    3  A    between atoms: C_7  and  C_8
REMARK    4  A    between atoms: C_12  and  N_13
REMARK    5  A    between atoms: C_18  and  C_19
REMARK    6  A    between atoms: C_19  and  C_20
REMARK    7  A    between atoms: C_22  and  O_23
REMARK    8  A    between atoms: C_26  and  C_27
REMARK                            x       y       z     vdW  Elec       q    Type
REMARK                         _______ _______ _______ _____ _____    ______ ____
ROOT
ATOM      1  N   UNL     1       0.777   8.329  21.093  0.00  0.00    +0.000 N 
ATOM      2  C   UNL     1      -0.489   8.557  20.353  0.00  0.00    +0.000 C 
ATOM      3  C   UNL     1      -0.470  10.043  20.138  0.00  0.00    +0.000 A 
ATOM      4  C   UNL     1       0.289  10.600  21.169  0.00  0.00    +0.000 A 
ATOM      5  C   UNL     1       0.648  11.935  21.207  0.00  0.00    +0.000 A 
ATOM      6  C   UNL     1       0.206  12.759  20.166  0.00  0.00    +0.000 A 
ATOM      7  C   UNL     1      -0.563  12.202  19.116  0.00  0.00    +0.000 A 
ATOM      8  C   UNL     1      -0.899  10.830  19.075  0.00  0.00    +0.000 A 
ATOM      9  C   UNL     1       0.949   9.489  21.898  0.00  0.00    +0.000 C 
ATOM     10  O   UNL     1       1.674   9.650  22.862  0.00  0.00    +0.000 OA
ENDROOT
BRANCH   1  15
ATOM     11  C   UNL     1       2.785   6.086  19.087  0.00  0.00    +0.000 A 
ATOM     12  C   UNL     1       2.443   6.648  17.847  0.00  0.00    +0.000 A 
ATOM     13  C   UNL     1       2.041   7.978  17.763  0.00  0.00    +0.000 A 
ATOM     14  C   UNL     1       1.860   8.720  18.922  0.00  0.00    +0.000 A 
ATOM     15  C   UNL     1       1.869   8.057  20.157  0.00  0.00    +0.000 A 
ATOM     16  C   UNL     1       2.519   6.821  20.251  0.00  0.00    +0.000 A 
BRANCH  11  17
ATOM     17  C   UNL     1       3.452   4.729  19.136  0.00  0.00    +0.000 C 
BRANCH  17  23
ATOM     18  C   UNL     1       4.819   4.108  16.375  0.00  0.00    +0.000 C 
ATOM     19  N   UNL     1       5.476   4.470  17.601  0.00  0.00    +0.000 N 
ATOM     20  C   UNL     1       6.821   4.629  17.759  0.00  0.00    +0.000 A 
ATOM     21  N   UNL     1       7.080   4.950  19.005  0.00  0.00    +0.000 NA
ATOM     22  N   UNL     1       5.874   5.008  19.675  0.00  0.00    +0.000 NA
ATOM     23  C   UNL     1       4.914   4.723  18.828  0.00  0.00    +0.000 A 
ENDBRANCH  17  23
ENDBRANCH  11  17
ENDBRANCH   1  15
BRANCH   8  24
ATOM     24  C   UNL     1      -1.595  10.286  17.855  0.00  0.00    +0.000 C 
ATOM     25  F   UNL     1      -2.714   9.558  18.119  0.00  0.00    +0.000 F 
ATOM     26  F   UNL     1      -1.990  11.268  16.999  0.00  0.00    +0.000 F 
ATOM     27  F   UNL     1      -0.792   9.461  17.124  0.00  0.00    +0.000 F 
ENDBRANCH   8  24
BRANCH   6  28
ATOM     28  C   UNL     1       0.575  14.224  20.144  0.00  0.00    +0.000 C 
BRANCH  28  29
ATOM     29  C   UNL     1       1.324  14.550  18.856  0.00  0.00    +0.000 C 
ATOM     30  C   UNL     1       2.691  13.845  18.714  0.00  0.00    +0.000 C 
ATOM     31  C   UNL     1       3.328  15.183  18.295  0.00  0.00    +0.000 C 
ATOM     32  C   UNL     1       2.060  15.909  18.779  0.00  0.00    +0.000 C 
BRANCH  31  33
ATOM     33  O   UNL     1       3.660  15.325  16.902  0.00  0.00    +0.000 OA
ATOM     34  H   UNL     1       4.625  15.423  16.867  0.00  0.00    +0.000 HD
ENDBRANCH  31  33
ENDBRANCH  28  29
ENDBRANCH   6  28
TORSDOF 7
ENDMDL
MODEL 6
REMARK VINA RESULT:      -7.7      8.137     11.631
REMARK  Name = 
REMARK  8 active torsions:
REMARK  status: ('A' for Active; 'I' for Inactive)
REMARK    1  A    between atoms: C_1  and  N_2
REMARK    2  A    between atoms: C_6  and  C_7
REMARK    3  A    between atoms: C_7  and  C_8
REMARK    4  A    between atoms: C_12  and  N_13
REMARK    5  A    between atoms: C_18  and  C_19
REMARK    6  A    between atoms: C_19  and  C_20
REMARK    7  A    between atoms: C_22  and  O_23
REMARK    8  A    between atoms: C_26  and  C_27
REMARK                            x       y       z     vdW  Elec       q    Type
REMARK                         _______ _______ _______ _____ _____    ______ ____
ROOT
ATOM      1  N   UNL     1       4.534   3.655  19.230  0.00  0.00    +0.000 N 
ATOM      2  C   UNL     1       5.770   4.477  19.208  0.00  0.00    +0.000 C 
ATOM      3  C   UNL     1       5.995   4.675  17.737  0.00  0.00    +0.000 A 
ATOM      4  C   UNL     1       5.415   3.589  17.080  0.00  0.00    +0.000 A 
ATOM      5  C   UNL     1       5.298   3.512  15.704  0.00  0.00    +0.000 A 
ATOM      6  C   UNL     1       5.806   4.573  14.946  0.00  0.00    +0.000 A 
ATOM      7  C   UNL     1       6.396   5.678  15.605  0.00  0.00    +0.000 A 
ATOM      8  C   UNL     1       6.485   5.757  17.013  0.00  0.00    +0.000 A 
ATOM      9  C   UNL     1       4.620   2.828  18.076  0.00  0.00    +0.000 C 
ATOM     10  O   UNL     1       3.999   1.816  17.813  0.00  0.00    +0.000 OA
ENDROOT
BRANCH   1  15
ATOM     11  C   UNL     1       2.724   6.663  18.357  0.00  0.00    +0.000 A 
ATOM     12  C   UNL     1       1.684   6.018  17.672  0.00  0.00    +0.000 A 
ATOM     13  C   UNL     1       1.349   4.701  17.977  0.00  0.00    +0.000 A 
ATOM     14  C   UNL     1       2.125   3.981  18.875  0.00  0.00    +0.000 A 
ATOM     15  C   UNL     1       3.353   4.517  19.288  0.00  0.00    +0.000 A 
ATOM     16  C   UNL     1       3.547   5.900  19.199  0.00  0.00    +0.000 A 
BRANCH  11  17
ATOM     17  C   UNL     1       2.915   8.155  18.196  0.00  0.00    +0.000 C 
BRANCH  17  23
ATOM     18  C   UNL     1       1.462   8.310  20.979  0.00  0.00    +0.000 C 
ATOM     19  N   UNL     1       1.138   9.055  19.794  0.00  0.00    +0.000 N 
ATOM     20  C   UNL     1       0.146   9.985  19.693  0.00  0.00    +0.000 A 
ATOM     21  N   UNL     1       0.117  10.463  18.472  0.00  0.00    +0.000 NA
ATOM     22  N   UNL     1       1.121   9.836  17.759  0.00  0.00    +0.000 NA
ATOM     23  C   UNL     1       1.733   8.995  18.558  0.00  0.00    +0.000 A 
ENDBRANCH  17  23
ENDBRANCH  11  17
ENDBRANCH   1  15
BRANCH   8  24
ATOM     24  C   UNL     1       6.995   7.027  17.642  0.00  0.00    +0.000 C 
ATOM     25  F   UNL     1       7.924   7.691  16.904  0.00  0.00    +0.000 F 
ATOM     26  F   UNL     1       6.001   7.927  17.877  0.00  0.00    +0.000 F 
ATOM     27  F   UNL     1       7.586   6.806  18.851  0.00  0.00    +0.000 F 
ENDBRANCH   8  24
BRANCH   6  28
ATOM     28  C   UNL     1       5.698   4.554  13.440  0.00  0.00    +0.000 C 
BRANCH  28  29
ATOM     29  C   UNL     1       5.949   3.142  12.920  0.00  0.00    +0.000 C 
ATOM     30  C   UNL     1       7.149   3.019  11.955  0.00  0.00    +0.000 C 
ATOM     31  C   UNL     1       6.279   2.188  10.994  0.00  0.00    +0.000 C 
ATOM     32  C   UNL     1       5.034   2.621  11.788  0.00  0.00    +0.000 C 
BRANCH  31  33
ATOM     33  O   UNL     1       6.552   0.776  10.941  0.00  0.00    +0.000 OA
ATOM     34  H   UNL     1       5.767   0.368  10.542  0.00  0.00    +0.000 HD
ENDBRANCH  31  33
ENDBRANCH  28  29
ENDBRANCH   6  28
TORSDOF 7
ENDMDL
MODEL 7
REMARK VINA RESULT:      -7.7      0.925      1.165
REMARK  Name = 
REMARK  8 active torsions:
REMARK  status: ('A' for Active; 'I' for Inactive)
REMARK    1  A    between atoms: C_1  and  N_2
REMARK    2  A    between atoms: C_6  and  C_7
REMARK    3  A    between atoms: C_7  and  C_8
REMARK    4  A    between atoms: C_12  and  N_13
REMARK    5  A    between atoms: C_18  and  C_19
REMARK    6  A    between atoms: C_19  and  C_20
REMARK    7  A    between atoms: C_22  and  O_23
REMARK    8  A    between atoms: C_26  and  C_27
REMARK                            x       y       z     vdW  Elec       q    Type
REMARK                         _______ _______ _______ _____ _____    ______ ____
ROOT
ATOM      1  N   UNL     1      -0.352  11.521  18.553  0.00  0.00    +0.000 N 
ATOM      2  C   UNL     1       0.424  10.810  19.600  0.00  0.00    +0.000 C 
ATOM      3  C   UNL     1      -0.169  11.362  20.865  0.00  0.00    +0.000 A 
ATOM      4  C   UNL     1      -0.663  12.633  20.570  0.00  0.00    +0.000 A 
ATOM      5  C   UNL     1      -1.414  13.379  21.462  0.00  0.00    +0.000 A 
ATOM      6  C   UNL     1      -1.666  12.827  22.723  0.00  0.00    +0.000 A 
ATOM      7  C   UNL     1      -1.169  11.538  23.029  0.00  0.00    +0.000 A 
ATOM      8  C   UNL     1      -0.427  10.775  22.100  0.00  0.00    +0.000 A 
ATOM      9  C   UNL     1      -0.614  12.809  19.097  0.00  0.00    +0.000 C 
ATOM     10  O   UNL     1      -0.969  13.822  18.525  0.00  0.00    +0.000 OA
ENDROOT
BRANCH   1  15
ATOM     11  C   UNL     1      -3.743  11.260  17.321  0.00  0.00    +0.000 A 
ATOM     12  C   UNL     1      -3.432  10.493  16.188  0.00  0.00    +0.000 A 
ATOM     13  C   UNL     1      -2.296   9.689  16.172  0.00  0.00    +0.000 A 
ATOM     14  C   UNL     1      -1.401   9.735  17.232  0.00  0.00    +0.000 A 
ATOM     15  C   UNL     1      -1.541  10.748  18.190  0.00  0.00    +0.000 A 
ATOM     16  C   UNL     1      -2.791  11.358  18.346  0.00  0.00    +0.000 A 
BRANCH  11  17
ATOM     17  C   UNL     1      -5.095  11.931  17.423  0.00  0.00    +0.000 C 
BRANCH  17  23
ATOM     18  C   UNL     1      -5.670  13.728  19.936  0.00  0.00    +0.000 C 
ATOM     19  N   UNL     1      -6.149  12.393  19.702  0.00  0.00    +0.000 N 
ATOM     20  C   UNL     1      -6.967  11.690  20.537  0.00  0.00    +0.000 A 
ATOM     21  N   UNL     1      -7.200  10.505  20.025  0.00  0.00    +0.000 NA
ATOM     22  N   UNL     1      -6.524  10.435  18.822  0.00  0.00    +0.000 NA
ATOM     23  C   UNL     1      -5.898  11.572  18.631  0.00  0.00    +0.000 A 
ENDBRANCH  17  23
ENDBRANCH  11  17
ENDBRANCH   1  15
BRANCH   8  24
ATOM     24  C   UNL     1      -0.057   9.358  22.449  0.00  0.00    +0.000 C 
ATOM     25  F   UNL     1       1.239   9.031  22.195  0.00  0.00    +0.000 F 
ATOM     26  F   UNL     1      -0.255   9.077  23.766  0.00  0.00    +0.000 F 
ATOM     27  F   UNL     1      -0.800   8.443  21.761  0.00  0.00    +0.000 F 
ENDBRANCH   8  24
BRANCH   6  28
ATOM     28  C   UNL     1      -2.489  13.586  23.736  0.00  0.00    +0.000 C 
BRANCH  28  29
ATOM     29  C   UNL     1      -3.857  13.917  23.148  0.00  0.00    +0.000 C 
ATOM     30  C   UNL     1      -4.531  15.166  23.757  0.00  0.00    +0.000 C 
ATOM     31  C   UNL     1      -5.845  14.378  23.900  0.00  0.00    +0.000 C 
ATOM     32  C   UNL     1      -5.066  13.079  23.628  0.00  0.00    +0.000 C 
BRANCH  31  33
ATOM     33  O   UNL     1      -6.894  14.707  22.970  0.00  0.00    +0.000 OA
ATOM     34  H   UNL     1      -7.015  15.669  23.036  0.00  0.00    +0.000 HD
ENDBRANCH  31  33
ENDBRANCH  28  29
ENDBRANCH   6  28
TORSDOF 7
ENDMDL
MODEL 8
REMARK VINA RESULT:      -7.7      5.021      8.837
REMARK  Name = 
REMARK  8 active torsions:
REMARK  status: ('A' for Active; 'I' for Inactive)
REMARK    1  A    between atoms: C_1  and  N_2
REMARK    2  A    between atoms: C_6  and  C_7
REMARK    3  A    between atoms: C_7  and  C_8
REMARK    4  A    between atoms: C_12  and  N_13
REMARK    5  A    between atoms: C_18  and  C_19
REMARK    6  A    between atoms: C_19  and  C_20
REMARK    7  A    between atoms: C_22  and  O_23
REMARK    8  A    between atoms: C_26  and  C_27
REMARK                            x       y       z     vdW  Elec       q    Type
REMARK                         _______ _______ _______ _____ _____    ______ ____
ROOT
ATOM      1  N   UNL     1       2.570   8.366  19.293  0.00  0.00    +0.000 N 
ATOM      2  C   UNL     1       2.146   9.043  20.544  0.00  0.00    +0.000 C 
ATOM      3  C   UNL     1       0.816   9.622  20.158  0.00  0.00    +0.000 A 
ATOM      4  C   UNL     1       0.840   9.830  18.778  0.00  0.00    +0.000 A 
ATOM      5  C   UNL     1      -0.272  10.214  18.051  0.00  0.00    +0.000 A 
ATOM      6  C   UNL     1      -1.469  10.417  18.748  0.00  0.00    +0.000 A 
ATOM      7  C   UNL     1      -1.502  10.207  20.148  0.00  0.00    +0.000 A 
ATOM      8  C   UNL     1      -0.365   9.789  20.875  0.00  0.00    +0.000 A 
ATOM      9  C   UNL     1       2.061   9.178  18.242  0.00  0.00    +0.000 C 
ATOM     10  O   UNL     1       2.374   9.192  17.067  0.00  0.00    +0.000 OA
ENDROOT
BRANCH   1  15
ATOM     11  C   UNL     1       3.115   4.813  18.884  0.00  0.00    +0.000 A 
ATOM     12  C   UNL     1       2.785   4.459  20.200  0.00  0.00    +0.000 A 
ATOM     13  C   UNL     1       1.932   5.261  20.954  0.00  0.00    +0.000 A 
ATOM     14  C   UNL     1       1.501   6.479  20.446  0.00  0.00    +0.000 A 
ATOM     15  C   UNL     1       2.105   6.978  19.285  0.00  0.00    +0.000 A 
ATOM     16  C   UNL     1       2.739   6.081  18.417  0.00  0.00    +0.000 A 
BRANCH  11  17
ATOM     17  C   UNL     1       3.834   3.820  17.998  0.00  0.00    +0.000 C 
BRANCH  17  23
ATOM     18  C   UNL     1       5.332   4.248  15.269  0.00  0.00    +0.000 C 
ATOM     19  N   UNL     1       5.908   4.287  16.585  0.00  0.00    +0.000 N 
ATOM     20  C   UNL     1       7.217   4.548  16.867  0.00  0.00    +0.000 A 
ATOM     21  N   UNL     1       7.404   4.495  18.164  0.00  0.00    +0.000 NA
ATOM     22  N   UNL     1       6.186   4.201  18.745  0.00  0.00    +0.000 NA
ATOM     23  C   UNL     1       5.291   4.081  17.794  0.00  0.00    +0.000 A 
ENDBRANCH  17  23
ENDBRANCH  11  17
ENDBRANCH   1  15
BRANCH   8  24
ATOM     24  C   UNL     1      -0.516   9.449  22.334  0.00  0.00    +0.000 C 
ATOM     25  F   UNL     1      -0.983   8.195  22.578  0.00  0.00    +0.000 F 
ATOM     26  F   UNL     1       0.659   9.543  23.015  0.00  0.00    +0.000 F 
ATOM     27  F   UNL     1      -1.381  10.287  22.975  0.00  0.00    +0.000 F 
ENDBRANCH   8  24
BRANCH   6  28
ATOM     28  C   UNL     1      -2.721  10.824  18.010  0.00  0.00    +0.000 C 
BRANCH  28  29
ATOM     29  C   UNL     1      -2.482  10.751  16.505  0.00  0.00    +0.000 C 
ATOM     30  C   UNL     1      -3.595  11.391  15.647  0.00  0.00    +0.000 C 
ATOM     31  C   UNL     1      -3.602  10.147  14.741  0.00  0.00    +0.000 C 
ATOM     32  C   UNL     1      -2.766   9.404  15.798  0.00  0.00    +0.000 C 
BRANCH  31  33
ATOM     33  O   UNL     1      -3.008  10.300  13.439  0.00  0.00    +0.000 OA
ATOM     34  H   UNL     1      -3.134   9.450  12.987  0.00  0.00    +0.000 HD
ENDBRANCH  31  33
ENDBRANCH  28  29
ENDBRANCH   6  28
TORSDOF 7
ENDMDL
MODEL 9
REMARK VINA RESULT:      -7.6      3.114      5.957
REMARK  Name = 
REMARK  8 active torsions:
REMARK  status: ('A' for Active; 'I' for Inactive)
REMARK    1  A    between atoms: C_1  and  N_2
REMARK    2  A    between atoms: C_6  and  C_7
REMARK    3  A    between atoms: C_7  and  C_8
REMARK    4  A    between atoms: C_12  and  N_13
REMARK    5  A    between atoms: C_18  and  C_19
REMARK    6  A    between atoms: C_19  and  C_20
REMARK    7  A    between atoms: C_22  and  O_23
REMARK    8  A    between atoms: C_26  and  C_27
REMARK                            x       y       z     vdW  Elec       q    Type
REMARK                         _______ _______ _______ _____ _____    ______ ____
ROOT
ATOM      1  N   UNL     1      -0.373  14.160  20.616  0.00  0.00    +0.000 N 
ATOM      2  C   UNL     1      -0.929  13.642  19.341  0.00  0.00    +0.000 C 
ATOM      3  C   UNL     1      -0.601  12.178  19.423  0.00  0.00    +0.000 A 
ATOM      4  C   UNL     1       0.527  12.052  20.234  0.00  0.00    +0.000 A 
ATOM      5  C   UNL     1       1.024  10.831  20.654  0.00  0.00    +0.000 A 
ATOM      6  C   UNL     1       0.365   9.675  20.223  0.00  0.00    +0.000 A 
ATOM      7  C   UNL     1      -0.781   9.795  19.400  0.00  0.00    +0.000 A 
ATOM      8  C   UNL     1      -1.295  11.049  19.000  0.00  0.00    +0.000 A 
ATOM      9  C   UNL     1       0.784  13.372  20.863  0.00  0.00    +0.000 C 
ATOM     10  O   UNL     1       1.710  13.590  21.621  0.00  0.00    +0.000 OA
ENDROOT
BRANCH   1  15
ATOM     11  C   UNL     1      -3.687  13.362  21.829  0.00  0.00    +0.000 A 
ATOM     12  C   UNL     1      -3.273  12.429  22.791  0.00  0.00    +0.000 A 
ATOM     13  C   UNL     1      -1.996  12.503  23.341  0.00  0.00    +0.000 A 
ATOM     14  C   UNL     1      -1.085  13.428  22.851  0.00  0.00    +0.000 A 
ATOM     15  C   UNL     1      -1.390  14.115  21.668  0.00  0.00    +0.000 A 
ATOM     16  C   UNL     1      -2.732  14.234  21.287  0.00  0.00    +0.000 A 
BRANCH  11  17
ATOM     17  C   UNL     1      -5.143  13.424  21.424  0.00  0.00    +0.000 C 
BRANCH  17  23
ATOM     18  C   UNL     1      -6.022  15.387  23.715  0.00  0.00    +0.000 C 
ATOM     19  N   UNL     1      -6.503  14.051  23.491  0.00  0.00    +0.000 N 
ATOM     20  C   UNL     1      -7.455  13.420  24.236  0.00  0.00    +0.000 A 
ATOM     21  N   UNL     1      -7.648  12.211  23.765  0.00  0.00    +0.000 NA
ATOM     22  N   UNL     1      -6.807  12.051  22.681  0.00  0.00    +0.000 NA
ATOM     23  C   UNL     1      -6.124  13.160  22.519  0.00  0.00    +0.000 A 
ENDBRANCH  17  23
ENDBRANCH  11  17
ENDBRANCH   1  15
BRANCH   8  24
ATOM     24  C   UNL     1      -2.597  11.097  18.246  0.00  0.00    +0.000 C 
ATOM     25  F   UNL     1      -3.613  11.712  18.909  0.00  0.00    +0.000 F 
ATOM     26  F   UNL     1      -2.486  11.750  17.057  0.00  0.00    +0.000 F 
ATOM     27  F   UNL     1      -3.067   9.853  17.942  0.00  0.00    +0.000 F 
ENDBRANCH   8  24
BRANCH   6  28
ATOM     28  C   UNL     1       0.851   8.313  20.657  0.00  0.00    +0.000 C 
BRANCH  28  29
ATOM     29  C   UNL     1       2.128   7.956  19.904  0.00  0.00    +0.000 C 
ATOM     30  C   UNL     1       2.061   8.190  18.379  0.00  0.00    +0.000 C 
ATOM     31  C   UNL     1       2.671   6.796  18.146  0.00  0.00    +0.000 C 
ATOM     32  C   UNL     1       2.400   6.459  19.623  0.00  0.00    +0.000 C 
BRANCH  31  33
ATOM     33  O   UNL     1       4.044   6.761  17.717  0.00  0.00    +0.000 OA
ATOM     34  H   UNL     1       4.262   5.823  17.596  0.00  0.00    +0.000 HD
ENDBRANCH  31  33
ENDBRANCH  28  29
ENDBRANCH   6  28
TORSDOF 7
ENDMDL
