MODEL 1
REMARK VINA RESULT:      -9.4      0.000      0.000
REMARK  Name = 
REMARK  6 active torsions:
REMARK  status: ('A' for Active; 'I' for Inactive)
REMARK    1  A    between atoms: C_2  and  C_3
REMARK    2  A    between atoms: C_3  and  C_4
REMARK    3  A    between atoms: C_4  and  C_5
REMARK    4  A    between atoms: N_14  and  C_15
REMARK    5  A    between atoms: C_15  and  C_16
REMARK    6  A    between atoms: N_27  and  C_28
REMARK                            x       y       z     vdW  Elec       q    Type
REMARK                         _______ _______ _______ _____ _____    ______ ____
ROOT
ATOM      1  C   UNL     1       3.107   7.151  18.069  0.00  0.00    +0.000 A 
ATOM      2  N   UNL     1       2.369   6.471  18.895  0.00  0.00    +0.000 NA
ATOM      3  C   UNL     1       2.838   5.214  19.311  0.00  0.00    +0.000 A 
ATOM      4  C   UNL     1       2.013   4.479  20.169  0.00  0.00    +0.000 A 
ATOM      5  C   UNL     1       2.447   3.263  20.687  0.00  0.00    +0.000 A 
ATOM      6 CL   UNL     1       1.423   2.358  21.730  0.00  0.00    +0.000 Cl
ATOM      7  C   UNL     1       3.710   2.779  20.369  0.00  0.00    +0.000 A 
ATOM      8  C   UNL     1       4.541   3.506  19.513  0.00  0.00    +0.000 A 
ATOM      9  C   UNL     1       4.112   4.720  18.959  0.00  0.00    +0.000 A 
ATOM     10  N   UNL     1       4.890   5.448  18.009  0.00  0.00    +0.000 N 
ATOM     11  C   UNL     1       4.348   6.576  17.406  0.00  0.00    +0.000 A 
ATOM     12  O   UNL     1       4.789   7.131  16.406  0.00  0.00    +0.000 OA
ENDROOT
BRANCH   1  13
ATOM     13  C   UNL     1       2.754   8.584  17.720  0.00  0.00    +0.000 C 
BRANCH  13  14
ATOM     14  C   UNL     1       1.460   9.008  18.415  0.00  0.00    +0.000 C 
BRANCH  14  16
ATOM     15  O   UNL     1       2.123  11.259  17.964  0.00  0.00    +0.000 OA
ATOM     16  C   UNL     1       1.426  10.517  18.660  0.00  0.00    +0.000 C 
ATOM     17  N   UNL     1       0.582  10.995  19.639  0.00  0.00    +0.000 N 
ATOM     18  C   UNL     1       0.469  12.447  19.824  0.00  0.00    +0.000 C 
ATOM     19  C   UNL     1       0.561  12.843  21.305  0.00  0.00    +0.000 C 
ATOM     20  N   UNL     1      -0.390  12.053  22.103  0.00  0.00    +0.000 N 
ATOM     21  C   UNL     1      -0.247  10.597  21.970  0.00  0.00    +0.000 C 
ATOM     22  C   UNL     1      -0.330  10.199  20.479  0.00  0.00    +0.000 C 
BRANCH  20  23
ATOM     23  C   UNL     1      -1.368  12.643  22.869  0.00  0.00    +0.000 A 
ATOM     24  C   UNL     1      -2.602  12.013  23.101  0.00  0.00    +0.000 A 
ATOM     25  C   UNL     1      -3.616  12.624  23.843  0.00  0.00    +0.000 A 
ATOM     26  C   UNL     1      -3.416  13.886  24.387  0.00  0.00    +0.000 A 
ATOM     27  C   UNL     1      -2.194  14.525  24.203  0.00  0.00    +0.000 A 
ATOM     28  C   UNL     1      -1.184  13.904  23.460  0.00  0.00    +0.000 A 
ENDBRANCH  20  23
ENDBRANCH  14  16
ENDBRANCH  13  14
ENDBRANCH   1  13
BRANCH  10  29
ATOM     29  C   UNL     1       6.236   5.037  17.613  0.00  0.00    +0.000 C 
BRANCH  29  30
ATOM     30  C   UNL     1       6.304   4.632  16.153  0.00  0.00    +0.000 A 
ATOM     31  C   UNL     1       7.319   5.127  15.320  0.00  0.00    +0.000 A 
ATOM     32  C   UNL     1       7.304   4.863  13.948  0.00  0.00    +0.000 A 
ATOM     33  C   UNL     1       6.295   4.077  13.397  0.00  0.00    +0.000 A 
ATOM     34  C   UNL     1       5.325   3.518  14.224  0.00  0.00    +0.000 A 
ATOM     35  C   UNL     1       5.333   3.785  15.594  0.00  0.00    +0.000 A 
ENDBRANCH  29  30
ENDBRANCH  10  29
TORSDOF 6
ENDMDL
MODEL 2
REMARK VINA RESULT:      -9.0      1.127      1.589
REMARK  Name = 
REMARK  6 active torsions:
REMARK  status: ('A' for Active; 'I' for Inactive)
REMARK    1  A    between atoms: C_2  and  C_3
REMARK    2  A    between atoms: C_3  and  C_4
REMARK    3  A    between atoms: C_4  and  C_5
REMARK    4  A    between atoms: N_14  and  C_15
REMARK    5  A    between atoms: C_15  and  C_16
REMARK    6  A    between atoms: N_27  and  C_28
REMARK                            x       y       z     vdW  Elec       q    Type
REMARK                         _______ _______ _______ _____ _____    ______ ____
ROOT
ATOM      1  C   UNL     1       2.801   7.227  18.390  0.00  0.00    +0.000 A 
ATOM      2  N   UNL     1       2.108   6.482  19.200  0.00  0.00    +0.000 NA
ATOM      3  C   UNL     1       2.638   5.232  19.558  0.00  0.00    +0.000 A 
ATOM      4  C   UNL     1       1.862   4.427  20.398  0.00  0.00    +0.000 A 
ATOM      5  C   UNL     1       2.358   3.212  20.861  0.00  0.00    +0.000 A 
ATOM      6 CL   UNL     1       1.393   2.223  21.882  0.00  0.00    +0.000 Cl
ATOM      7  C   UNL     1       3.635   2.798  20.503  0.00  0.00    +0.000 A 
ATOM      8  C   UNL     1       4.419   3.594  19.664  0.00  0.00    +0.000 A 
ATOM      9  C   UNL     1       3.927   4.809  19.167  0.00  0.00    +0.000 A 
ATOM     10  N   UNL     1       4.655   5.608  18.234  0.00  0.00    +0.000 N 
ATOM     11  C   UNL     1       4.053   6.733  17.686  0.00  0.00    +0.000 A 
ATOM     12  O   UNL     1       4.452   7.347  16.702  0.00  0.00    +0.000 OA
ENDROOT
BRANCH   1  13
ATOM     13  C   UNL     1       2.379   8.655  18.106  0.00  0.00    +0.000 C 
BRANCH  13  14
ATOM     14  C   UNL     1       1.561   9.221  19.267  0.00  0.00    +0.000 C 
BRANCH  14  16
ATOM     15  O   UNL     1       0.183  10.158  17.554  0.00  0.00    +0.000 OA
ATOM     16  C   UNL     1       0.337   9.988  18.765  0.00  0.00    +0.000 C 
ATOM     17  N   UNL     1      -0.572  10.437  19.698  0.00  0.00    +0.000 N 
ATOM     18  C   UNL     1      -1.797  11.094  19.229  0.00  0.00    +0.000 C 
ATOM     19  C   UNL     1      -2.083  12.390  20.001  0.00  0.00    +0.000 C 
ATOM     20  N   UNL     1      -2.047  12.138  21.450  0.00  0.00    +0.000 N 
ATOM     21  C   UNL     1      -0.801  11.533  21.940  0.00  0.00    +0.000 C 
ATOM     22  C   UNL     1      -0.509  10.233  21.157  0.00  0.00    +0.000 C 
BRANCH  20  23
ATOM     23  C   UNL     1      -3.123  12.401  22.265  0.00  0.00    +0.000 A 
ATOM     24  C   UNL     1      -4.361  12.810  21.742  0.00  0.00    +0.000 A 
ATOM     25  C   UNL     1      -5.446  13.120  22.565  0.00  0.00    +0.000 A 
ATOM     26  C   UNL     1      -5.323  13.017  23.945  0.00  0.00    +0.000 A 
ATOM     27  C   UNL     1      -4.121  12.585  24.496  0.00  0.00    +0.000 A 
ATOM     28  C   UNL     1      -3.041  12.276  23.662  0.00  0.00    +0.000 A 
ENDBRANCH  20  23
ENDBRANCH  14  16
ENDBRANCH  13  14
ENDBRANCH   1  13
BRANCH  10  29
ATOM     29  C   UNL     1       6.010   5.273  17.801  0.00  0.00    +0.000 C 
BRANCH  29  30
ATOM     30  C   UNL     1       6.065   4.892  16.334  0.00  0.00    +0.000 A 
ATOM     31  C   UNL     1       5.097   4.041  15.779  0.00  0.00    +0.000 A 
ATOM     32  C   UNL     1       5.223   3.582  14.465  0.00  0.00    +0.000 A 
ATOM     33  C   UNL     1       6.299   3.991  13.681  0.00  0.00    +0.000 A 
ATOM     34  C   UNL     1       7.225   4.896  14.194  0.00  0.00    +0.000 A 
ATOM     35  C   UNL     1       7.105   5.350  15.509  0.00  0.00    +0.000 A 
ENDBRANCH  29  30
ENDBRANCH  10  29
TORSDOF 6
ENDMDL
MODEL 3
REMARK VINA RESULT:      -9.0      2.800      3.126
REMARK  Name = 
REMARK  6 active torsions:
REMARK  status: ('A' for Active; 'I' for Inactive)
REMARK    1  A    between atoms: C_2  and  C_3
REMARK    2  A    between atoms: C_3  and  C_4
REMARK    3  A    between atoms: C_4  and  C_5
REMARK    4  A    between atoms: N_14  and  C_15
REMARK    5  A    between atoms: C_15  and  C_16
REMARK    6  A    between atoms: N_27  and  C_28
REMARK                            x       y       z     vdW  Elec       q    Type
REMARK                         _______ _______ _______ _____ _____    ______ ____
ROOT
ATOM      1  C   UNL     1       2.969   7.376  18.109  0.00  0.00    +0.000 A 
ATOM      2  N   UNL     1       2.217   6.685  18.913  0.00  0.00    +0.000 NA
ATOM      3  C   UNL     1       2.683   5.427  19.328  0.00  0.00    +0.000 A 
ATOM      4  C   UNL     1       1.844   4.680  20.162  0.00  0.00    +0.000 A 
ATOM      5  C   UNL     1       2.273   3.462  20.679  0.00  0.00    +0.000 A 
ATOM      6 CL   UNL     1       1.232   2.543  21.692  0.00  0.00    +0.000 Cl
ATOM      7  C   UNL     1       3.545   2.987  20.384  0.00  0.00    +0.000 A 
ATOM      8  C   UNL     1       4.391   3.725  19.552  0.00  0.00    +0.000 A 
ATOM      9  C   UNL     1       3.967   4.942  19.000  0.00  0.00    +0.000 A 
ATOM     10  N   UNL     1       4.761   5.681  18.072  0.00  0.00    +0.000 N 
ATOM     11  C   UNL     1       4.226   6.812  17.468  0.00  0.00    +0.000 A 
ATOM     12  O   UNL     1       4.686   7.378  16.482  0.00  0.00    +0.000 OA
ENDROOT
BRANCH   1  13
ATOM     13  C   UNL     1       2.617   8.810  17.765  0.00  0.00    +0.000 C 
BRANCH  13  14
ATOM     14  C   UNL     1       1.100   9.001  17.725  0.00  0.00    +0.000 C 
BRANCH  14  16
ATOM     15  O   UNL     1       1.502  10.879  19.147  0.00  0.00    +0.000 OA
ATOM     16  C   UNL     1       0.679  10.277  18.454  0.00  0.00    +0.000 C 
ATOM     17  N   UNL     1      -0.612  10.726  18.279  0.00  0.00    +0.000 N 
ATOM     18  C   UNL     1      -1.006  11.997  18.897  0.00  0.00    +0.000 C 
ATOM     19  C   UNL     1      -2.353  11.886  19.626  0.00  0.00    +0.000 C 
ATOM     20  N   UNL     1      -3.368  11.306  18.733  0.00  0.00    +0.000 N 
ATOM     21  C   UNL     1      -3.009  10.004  18.154  0.00  0.00    +0.000 C 
ATOM     22  C   UNL     1      -1.649  10.113  17.429  0.00  0.00    +0.000 C 
BRANCH  20  23
ATOM     23  C   UNL     1      -4.536  11.964  18.428  0.00  0.00    +0.000 A 
ATOM     24  C   UNL     1      -5.073  11.951  17.130  0.00  0.00    +0.000 A 
ATOM     25  C   UNL     1      -6.235  12.652  16.802  0.00  0.00    +0.000 A 
ATOM     26  C   UNL     1      -6.905  13.381  17.777  0.00  0.00    +0.000 A 
ATOM     27  C   UNL     1      -6.420  13.390  19.081  0.00  0.00    +0.000 A 
ATOM     28  C   UNL     1      -5.254  12.683  19.398  0.00  0.00    +0.000 A 
ENDBRANCH  20  23
ENDBRANCH  14  16
ENDBRANCH  13  14
ENDBRANCH   1  13
BRANCH  10  29
ATOM     29  C   UNL     1       6.117   5.281  17.702  0.00  0.00    +0.000 C 
BRANCH  29  30
ATOM     30  C   UNL     1       6.195   4.776  16.274  0.00  0.00    +0.000 A 
ATOM     31  C   UNL     1       7.256   5.154  15.437  0.00  0.00    +0.000 A 
ATOM     32  C   UNL     1       7.256   4.800  14.086  0.00  0.00    +0.000 A 
ATOM     33  C   UNL     1       6.215   4.038  13.561  0.00  0.00    +0.000 A 
ATOM     34  C   UNL     1       5.195   3.592  14.397  0.00  0.00    +0.000 A 
ATOM     35  C   UNL     1       5.188   3.950  15.747  0.00  0.00    +0.000 A 
ENDBRANCH  29  30
ENDBRANCH  10  29
TORSDOF 6
ENDMDL
MODEL 4
REMARK VINA RESULT:      -8.9      1.108      1.429
REMARK  Name = 
REMARK  6 active torsions:
REMARK  status: ('A' for Active; 'I' for Inactive)
REMARK    1  A    between atoms: C_2  and  C_3
REMARK    2  A    between atoms: C_3  and  C_4
REMARK    3  A    between atoms: C_4  and  C_5
REMARK    4  A    between atoms: N_14  and  C_15
REMARK    5  A    between atoms: C_15  and  C_16
REMARK    6  A    between atoms: N_27  and  C_28
REMARK                            x       y       z     vdW  Elec       q    Type
REMARK                         _______ _______ _______ _____ _____    ______ ____
ROOT
ATOM      1  C   UNL     1       2.853   7.152  18.362  0.00  0.00    +0.000 A 
ATOM      2  N   UNL     1       2.160   6.404  19.170  0.00  0.00    +0.000 NA
ATOM      3  C   UNL     1       2.708   5.168  19.550  0.00  0.00    +0.000 A 
ATOM      4  C   UNL     1       1.933   4.358  20.387  0.00  0.00    +0.000 A 
ATOM      5  C   UNL     1       2.444   3.158  20.871  0.00  0.00    +0.000 A 
ATOM      6 CL   UNL     1       1.482   2.162  21.889  0.00  0.00    +0.000 Cl
ATOM      7  C   UNL     1       3.734   2.763  20.538  0.00  0.00    +0.000 A 
ATOM      8  C   UNL     1       4.516   3.564  19.702  0.00  0.00    +0.000 A 
ATOM      9  C   UNL     1       4.010   4.764  19.183  0.00  0.00    +0.000 A 
ATOM     10  N   UNL     1       4.738   5.565  18.253  0.00  0.00    +0.000 N 
ATOM     11  C   UNL     1       4.125   6.674  17.683  0.00  0.00    +0.000 A 
ATOM     12  O   UNL     1       4.527   7.283  16.698  0.00  0.00    +0.000 OA
ENDROOT
BRANCH   1  13
ATOM     13  C   UNL     1       2.410   8.569  18.055  0.00  0.00    +0.000 C 
BRANCH  13  14
ATOM     14  C   UNL     1       1.574   9.137  19.203  0.00  0.00    +0.000 C 
BRANCH  14  16
ATOM     15  O   UNL     1       0.217  10.060  17.466  0.00  0.00    +0.000 OA
ATOM     16  C   UNL     1       0.366   9.916  18.681  0.00  0.00    +0.000 C 
ATOM     17  N   UNL     1      -0.537  10.402  19.602  0.00  0.00    +0.000 N 
ATOM     18  C   UNL     1      -1.748  11.072  19.115  0.00  0.00    +0.000 C 
ATOM     19  C   UNL     1      -2.011  12.391  19.856  0.00  0.00    +0.000 C 
ATOM     20  N   UNL     1      -1.982  12.171  21.311  0.00  0.00    +0.000 N 
ATOM     21  C   UNL     1      -0.748  11.555  21.817  0.00  0.00    +0.000 C 
ATOM     22  C   UNL     1      -0.479  10.232  21.065  0.00  0.00    +0.000 C 
BRANCH  20  23
ATOM     23  C   UNL     1      -3.054  12.473  22.117  0.00  0.00    +0.000 A 
ATOM     24  C   UNL     1      -2.940  12.494  23.517  0.00  0.00    +0.000 A 
ATOM     25  C   UNL     1      -4.034  12.759  24.344  0.00  0.00    +0.000 A 
ATOM     26  C   UNL     1      -5.279  13.025  23.787  0.00  0.00    +0.000 A 
ATOM     27  C   UNL     1      -5.420  13.044  22.403  0.00  0.00    +0.000 A 
ATOM     28  C   UNL     1      -4.317  12.778  21.584  0.00  0.00    +0.000 A 
ENDBRANCH  20  23
ENDBRANCH  14  16
ENDBRANCH  13  14
ENDBRANCH   1  13
BRANCH  10  29
ATOM     29  C   UNL     1       6.106   5.251  17.845  0.00  0.00    +0.000 C 
BRANCH  29  30
ATOM     30  C   UNL     1       6.179   4.777  16.406  0.00  0.00    +0.000 A 
ATOM     31  C   UNL     1       7.190   5.239  15.550  0.00  0.00    +0.000 A 
ATOM     32  C   UNL     1       7.178   4.909  14.192  0.00  0.00    +0.000 A 
ATOM     33  C   UNL     1       6.175   4.089  13.680  0.00  0.00    +0.000 A 
ATOM     34  C   UNL     1       5.210   3.561  14.533  0.00  0.00    +0.000 A 
ATOM     35  C   UNL     1       5.215   3.895  15.888  0.00  0.00    +0.000 A 
ENDBRANCH  29  30
ENDBRANCH  10  29
TORSDOF 6
ENDMDL
MODEL 5
REMARK VINA RESULT:      -8.8      1.940      2.701
REMARK  Name = 
REMARK  6 active torsions:
REMARK  status: ('A' for Active; 'I' for Inactive)
REMARK    1  A    between atoms: C_2  and  C_3
REMARK    2  A    between atoms: C_3  and  C_4
REMARK    3  A    between atoms: C_4  and  C_5
REMARK    4  A    between atoms: N_14  and  C_15
REMARK    5  A    between atoms: C_15  and  C_16
REMARK    6  A    between atoms: N_27  and  C_28
REMARK                            x       y       z     vdW  Elec       q    Type
REMARK                         _______ _______ _______ _____ _____    ______ ____
ROOT
ATOM      1  C   UNL     1       2.041   7.796  19.245  0.00  0.00    +0.000 A 
ATOM      2  N   UNL     1       1.614   6.936  20.122  0.00  0.00    +0.000 NA
ATOM      3  C   UNL     1       2.071   5.613  20.019  0.00  0.00    +0.000 A 
ATOM      4  C   UNL     1       1.571   4.692  20.945  0.00  0.00    +0.000 A 
ATOM      5  C   UNL     1       2.042   3.382  20.957  0.00  0.00    +0.000 A 
ATOM      6 CL   UNL     1       1.414   2.253  22.090  0.00  0.00    +0.000 Cl
ATOM      7  C   UNL     1       3.023   2.985  20.057  0.00  0.00    +0.000 A 
ATOM      8  C   UNL     1       3.529   3.897  19.127  0.00  0.00    +0.000 A 
ATOM      9  C   UNL     1       3.050   5.213  19.083  0.00  0.00    +0.000 A 
ATOM     10  N   UNL     1       3.469   6.150  18.091  0.00  0.00    +0.000 N 
ATOM     11  C   UNL     1       2.859   7.396  18.029  0.00  0.00    +0.000 A 
ATOM     12  O   UNL     1       2.933   8.180  17.089  0.00  0.00    +0.000 OA
ENDROOT
BRANCH   1  13
ATOM     13  C   UNL     1       1.734   9.273  19.401  0.00  0.00    +0.000 C 
BRANCH  13  14
ATOM     14  C   UNL     1       0.536   9.483  20.329  0.00  0.00    +0.000 C 
BRANCH  14  16
ATOM     15  O   UNL     1      -0.666  10.498  18.531  0.00  0.00    +0.000 OA
ATOM     16  C   UNL     1      -0.452  10.493  19.745  0.00  0.00    +0.000 C 
ATOM     17  N   UNL     1      -1.095  11.346  20.615  0.00  0.00    +0.000 N 
ATOM     18  C   UNL     1      -2.113  12.259  20.083  0.00  0.00    +0.000 C 
ATOM     19  C   UNL     1      -1.930  13.690  20.611  0.00  0.00    +0.000 C 
ATOM     20  N   UNL     1      -1.829  13.683  22.078  0.00  0.00    +0.000 N 
ATOM     21  C   UNL     1      -0.773  12.816  22.620  0.00  0.00    +0.000 C 
ATOM     22  C   UNL     1      -0.952  11.378  22.082  0.00  0.00    +0.000 C 
BRANCH  20  23
ATOM     23  C   UNL     1      -2.696  14.394  22.874  0.00  0.00    +0.000 A 
ATOM     24  C   UNL     1      -3.924  14.870  22.385  0.00  0.00    +0.000 A 
ATOM     25  C   UNL     1      -4.791  15.629  23.174  0.00  0.00    +0.000 A 
ATOM     26  C   UNL     1      -4.455  15.923  24.490  0.00  0.00    +0.000 A 
ATOM     27  C   UNL     1      -3.261  15.441  25.017  0.00  0.00    +0.000 A 
ATOM     28  C   UNL     1      -2.400  14.680  24.217  0.00  0.00    +0.000 A 
ENDBRANCH  20  23
ENDBRANCH  14  16
ENDBRANCH  13  14
ENDBRANCH   1  13
BRANCH  10  29
ATOM     29  C   UNL     1       4.505   5.843  17.106  0.00  0.00    +0.000 C 
BRANCH  29  30
ATOM     30  C   UNL     1       5.884   6.263  17.576  0.00  0.00    +0.000 A 
ATOM     31  C   UNL     1       6.583   5.496  18.520  0.00  0.00    +0.000 A 
ATOM     32  C   UNL     1       7.792   5.953  19.053  0.00  0.00    +0.000 A 
ATOM     33  C   UNL     1       8.331   7.164  18.627  0.00  0.00    +0.000 A 
ATOM     34  C   UNL     1       7.686   7.898  17.634  0.00  0.00    +0.000 A 
ATOM     35  C   UNL     1       6.475   7.447  17.105  0.00  0.00    +0.000 A 
ENDBRANCH  29  30
ENDBRANCH  10  29
TORSDOF 6
ENDMDL
MODEL 6
REMARK VINA RESULT:      -8.7      2.616      4.076
REMARK  Name = 
REMARK  6 active torsions:
REMARK  status: ('A' for Active; 'I' for Inactive)
REMARK    1  A    between atoms: C_2  and  C_3
REMARK    2  A    between atoms: C_3  and  C_4
REMARK    3  A    between atoms: C_4  and  C_5
REMARK    4  A    between atoms: N_14  and  C_15
REMARK    5  A    between atoms: C_15  and  C_16
REMARK    6  A    between atoms: N_27  and  C_28
REMARK                            x       y       z     vdW  Elec       q    Type
REMARK                         _______ _______ _______ _____ _____    ______ ____
ROOT
ATOM      1  C   UNL     1       2.048   7.603  19.817  0.00  0.00    +0.000 A 
ATOM      2  N   UNL     1       1.639   6.688  20.646  0.00  0.00    +0.000 NA
ATOM      3  C   UNL     1       2.020   5.359  20.396  0.00  0.00    +0.000 A 
ATOM      4  C   UNL     1       1.540   4.383  21.274  0.00  0.00    +0.000 A 
ATOM      5  C   UNL     1       1.942   3.058  21.138  0.00  0.00    +0.000 A 
ATOM      6 CL   UNL     1       1.337   1.861  22.213  0.00  0.00    +0.000 Cl
ATOM      7  C   UNL     1       2.837   2.699  20.138  0.00  0.00    +0.000 A 
ATOM      8  C   UNL     1       3.323   3.667  19.255  0.00  0.00    +0.000 A 
ATOM      9  C   UNL     1       2.910   5.002  19.359  0.00  0.00    +0.000 A 
ATOM     10  N   UNL     1       3.307   6.004  18.423  0.00  0.00    +0.000 N 
ATOM     11  C   UNL     1       2.758   7.276  18.514  0.00  0.00    +0.000 A 
ATOM     12  O   UNL     1       2.806   8.137  17.642  0.00  0.00    +0.000 OA
ENDROOT
BRANCH   1  13
ATOM     13  C   UNL     1       1.829   9.072  20.122  0.00  0.00    +0.000 C 
BRANCH  13  14
ATOM     14  C   UNL     1       0.379   9.329  20.536  0.00  0.00    +0.000 C 
BRANCH  14  16
ATOM     15  O   UNL     1       0.029  10.573  22.546  0.00  0.00    +0.000 OA
ATOM     16  C   UNL     1       0.249  10.627  21.334  0.00  0.00    +0.000 C 
ATOM     17  N   UNL     1       0.418  11.818  20.663  0.00  0.00    +0.000 N 
ATOM     18  C   UNL     1       0.388  13.069  21.430  0.00  0.00    +0.000 C 
ATOM     19  C   UNL     1      -0.499  14.129  20.761  0.00  0.00    +0.000 C 
ATOM     20  N   UNL     1      -0.120  14.292  19.349  0.00  0.00    +0.000 N 
ATOM     21  C   UNL     1      -0.143  13.055  18.557  0.00  0.00    +0.000 C 
ATOM     22  C   UNL     1       0.743  11.985  19.235  0.00  0.00    +0.000 C 
BRANCH  20  23
ATOM     23  C   UNL     1       0.276  15.504  18.833  0.00  0.00    +0.000 A 
ATOM     24  C   UNL     1      -0.652  16.514  18.530  0.00  0.00    +0.000 A 
ATOM     25  C   UNL     1      -0.263  17.732  17.967  0.00  0.00    +0.000 A 
ATOM     26  C   UNL     1       1.078  17.978  17.702  0.00  0.00    +0.000 A 
ATOM     27  C   UNL     1       2.028  17.012  18.019  0.00  0.00    +0.000 A 
ATOM     28  C   UNL     1       1.627  15.796  18.584  0.00  0.00    +0.000 A 
ENDBRANCH  20  23
ENDBRANCH  14  16
ENDBRANCH  13  14
ENDBRANCH   1  13
BRANCH  10  29
ATOM     29  C   UNL     1       4.254   5.739  17.342  0.00  0.00    +0.000 C 
BRANCH  29  30
ATOM     30  C   UNL     1       5.676   6.106  17.724  0.00  0.00    +0.000 A 
ATOM     31  C   UNL     1       6.361   5.384  18.712  0.00  0.00    +0.000 A 
ATOM     32  C   UNL     1       7.616   5.805  19.159  0.00  0.00    +0.000 A 
ATOM     33  C   UNL     1       8.215   6.932  18.603  0.00  0.00    +0.000 A 
ATOM     34  C   UNL     1       7.580   7.614  17.569  0.00  0.00    +0.000 A 
ATOM     35  C   UNL     1       6.322   7.200  17.125  0.00  0.00    +0.000 A 
ENDBRANCH  29  30
ENDBRANCH  10  29
TORSDOF 6
ENDMDL
MODEL 7
REMARK VINA RESULT:      -8.6      0.653      1.183
REMARK  Name = 
REMARK  6 active torsions:
REMARK  status: ('A' for Active; 'I' for Inactive)
REMARK    1  A    between atoms: C_2  and  C_3
REMARK    2  A    between atoms: C_3  and  C_4
REMARK    3  A    between atoms: C_4  and  C_5
REMARK    4  A    between atoms: N_14  and  C_15
REMARK    5  A    between atoms: C_15  and  C_16
REMARK    6  A    between atoms: N_27  and  C_28
REMARK                            x       y       z     vdW  Elec       q    Type
REMARK                         _______ _______ _______ _____ _____    ______ ____
ROOT
ATOM      1  C   UNL     1       3.158   7.165  18.036  0.00  0.00    +0.000 A 
ATOM      2  N   UNL     1       2.434   6.498  18.885  0.00  0.00    +0.000 NA
ATOM      3  C   UNL     1       2.886   5.227  19.275  0.00  0.00    +0.000 A 
ATOM      4  C   UNL     1       2.075   4.506  20.158  0.00  0.00    +0.000 A 
ATOM      5  C   UNL     1       2.498   3.276  20.652  0.00  0.00    +0.000 A 
ATOM      6 CL   UNL     1       1.491   2.389  21.727  0.00  0.00    +0.000 Cl
ATOM      7  C   UNL     1       3.735   2.762  20.284  0.00  0.00    +0.000 A 
ATOM      8  C   UNL     1       4.552   3.474  19.402  0.00  0.00    +0.000 A 
ATOM      9  C   UNL     1       4.134   4.703  18.873  0.00  0.00    +0.000 A 
ATOM     10  N   UNL     1       4.893   5.418  17.898  0.00  0.00    +0.000 N 
ATOM     11  C   UNL     1       4.358   6.564  17.324  0.00  0.00    +0.000 A 
ATOM     12  O   UNL     1       4.775   7.115  16.311  0.00  0.00    +0.000 OA
ENDROOT
BRANCH   1  13
ATOM     13  C   UNL     1       2.829   8.609  17.711  0.00  0.00    +0.000 C 
BRANCH  13  14
ATOM     14  C   UNL     1       1.595   9.072  18.486  0.00  0.00    +0.000 C 
BRANCH  14  16
ATOM     15  O   UNL     1       2.338  11.278  17.943  0.00  0.00    +0.000 OA
ATOM     16  C   UNL     1       1.546  10.596  18.598  0.00  0.00    +0.000 C 
ATOM     17  N   UNL     1       0.583  11.155  19.411  0.00  0.00    +0.000 N 
ATOM     18  C   UNL     1       0.462  12.616  19.459  0.00  0.00    +0.000 C 
ATOM     19  C   UNL     1       0.359  13.135  20.900  0.00  0.00    +0.000 C 
ATOM     20  N   UNL     1      -0.700  12.415  21.625  0.00  0.00    +0.000 N 
ATOM     21  C   UNL     1      -0.556  10.952  21.634  0.00  0.00    +0.000 C 
ATOM     22  C   UNL     1      -0.443  10.431  20.183  0.00  0.00    +0.000 C 
BRANCH  20  23
ATOM     23  C   UNL     1      -1.765  13.066  22.201  0.00  0.00    +0.000 A 
ATOM     24  C   UNL     1      -1.740  13.476  23.545  0.00  0.00    +0.000 A 
ATOM     25  C   UNL     1      -2.833  14.100  24.148  0.00  0.00    +0.000 A 
ATOM     26  C   UNL     1      -3.987  14.345  23.414  0.00  0.00    +0.000 A 
ATOM     27  C   UNL     1      -4.035  13.982  22.072  0.00  0.00    +0.000 A 
ATOM     28  C   UNL     1      -2.932  13.358  21.477  0.00  0.00    +0.000 A 
ENDBRANCH  20  23
ENDBRANCH  14  16
ENDBRANCH  13  14
ENDBRANCH   1  13
BRANCH  10  29
ATOM     29  C   UNL     1       6.213   4.976  17.450  0.00  0.00    +0.000 C 
BRANCH  29  30
ATOM     30  C   UNL     1       6.251   4.713  15.957  0.00  0.00    +0.000 A 
ATOM     31  C   UNL     1       5.280   3.905  15.347  0.00  0.00    +0.000 A 
ATOM     32  C   UNL     1       5.393   3.553  13.999  0.00  0.00    +0.000 A 
ATOM     33  C   UNL     1       6.457   4.029  13.238  0.00  0.00    +0.000 A 
ATOM     34  C   UNL     1       7.386   4.894  13.811  0.00  0.00    +0.000 A 
ATOM     35  C   UNL     1       7.280   5.241  15.159  0.00  0.00    +0.000 A 
ENDBRANCH  29  30
ENDBRANCH  10  29
TORSDOF 6
ENDMDL
MODEL 8
REMARK VINA RESULT:      -8.6      2.671      3.905
REMARK  Name = 
REMARK  6 active torsions:
REMARK  status: ('A' for Active; 'I' for Inactive)
REMARK    1  A    between atoms: C_2  and  C_3
REMARK    2  A    between atoms: C_3  and  C_4
REMARK    3  A    between atoms: C_4  and  C_5
REMARK    4  A    between atoms: N_14  and  C_15
REMARK    5  A    between atoms: C_15  and  C_16
REMARK    6  A    between atoms: N_27  and  C_28
REMARK                            x       y       z     vdW  Elec       q    Type
REMARK                         _______ _______ _______ _____ _____    ______ ____
ROOT
ATOM      1  C   UNL     1       2.180   7.597  18.856  0.00  0.00    +0.000 A 
ATOM      2  N   UNL     1       1.683   6.808  19.762  0.00  0.00    +0.000 NA
ATOM      3  C   UNL     1       2.167   5.491  19.820  0.00  0.00    +0.000 A 
ATOM      4  C   UNL     1       1.594   4.643  20.775  0.00  0.00    +0.000 A 
ATOM      5  C   UNL     1       2.079   3.351  20.947  0.00  0.00    +0.000 A 
ATOM      6 CL   UNL     1       1.363   2.311  22.113  0.00  0.00    +0.000 Cl
ATOM      7  C   UNL     1       3.147   2.898  20.181  0.00  0.00    +0.000 A 
ATOM      8  C   UNL     1       3.726   3.736  19.224  0.00  0.00    +0.000 A 
ATOM      9  C   UNL     1       3.235   5.033  19.019  0.00  0.00    +0.000 A 
ATOM     10  N   UNL     1       3.733   5.888  17.991  0.00  0.00    +0.000 N 
ATOM     11  C   UNL     1       3.114   7.110  17.761  0.00  0.00    +0.000 A 
ATOM     12  O   UNL     1       3.266   7.810  16.766  0.00  0.00    +0.000 OA
ENDROOT
BRANCH   1  13
ATOM     13  C   UNL     1       1.839   9.074  18.851  0.00  0.00    +0.000 C 
BRANCH  13  14
ATOM     14  C   UNL     1       0.920   9.423  20.022  0.00  0.00    +0.000 C 
BRANCH  14  16
ATOM     15  O   UNL     1      -1.268  10.017  19.266  0.00  0.00    +0.000 OA
ATOM     16  C   UNL     1      -0.156  10.427  19.608  0.00  0.00    +0.000 C 
ATOM     17  N   UNL     1       0.154  11.769  19.665  0.00  0.00    +0.000 N 
ATOM     18  C   UNL     1      -0.895  12.748  19.359  0.00  0.00    +0.000 C 
ATOM     19  C   UNL     1      -0.397  13.838  18.398  0.00  0.00    +0.000 C 
ATOM     20  N   UNL     1       0.855  14.426  18.901  0.00  0.00    +0.000 N 
ATOM     21  C   UNL     1       1.932  13.460  19.155  0.00  0.00    +0.000 C 
ATOM     22  C   UNL     1       1.428  12.358  20.114  0.00  0.00    +0.000 C 
BRANCH  20  23
ATOM     23  C   UNL     1       0.978  15.771  19.160  0.00  0.00    +0.000 A 
ATOM     24  C   UNL     1       2.111  16.297  19.802  0.00  0.00    +0.000 A 
ATOM     25  C   UNL     1       2.225  17.655  20.106  0.00  0.00    +0.000 A 
ATOM     26  C   UNL     1       1.205  18.533  19.762  0.00  0.00    +0.000 A 
ATOM     27  C   UNL     1       0.082  18.052  19.097  0.00  0.00    +0.000 A 
ATOM     28  C   UNL     1      -0.021  16.689  18.795  0.00  0.00    +0.000 A 
ENDBRANCH  20  23
ENDBRANCH  14  16
ENDBRANCH  13  14
ENDBRANCH   1  13
BRANCH  10  29
ATOM     29  C   UNL     1       4.861   5.519  17.137  0.00  0.00    +0.000 C 
BRANCH  29  30
ATOM     30  C   UNL     1       6.167   6.116  17.625  0.00  0.00    +0.000 A 
ATOM     31  C   UNL     1       6.909   5.488  18.637  0.00  0.00    +0.000 A 
ATOM     32  C   UNL     1       8.038   6.106  19.180  0.00  0.00    +0.000 A 
ATOM     33  C   UNL     1       8.459   7.343  18.697  0.00  0.00    +0.000 A 
ATOM     34  C   UNL     1       7.777   7.942  17.641  0.00  0.00    +0.000 A 
ATOM     35  C   UNL     1       6.644   7.329  17.102  0.00  0.00    +0.000 A 
ENDBRANCH  29  30
ENDBRANCH  10  29
TORSDOF 6
ENDMDL
MODEL 9
REMARK VINA RESULT:      -8.5      3.321      4.033
REMARK  Name = 
REMARK  6 active torsions:
REMARK  status: ('A' for Active; 'I' for Inactive)
REMARK    1  A    between atoms: C_2  and  C_3
REMARK    2  A    between atoms: C_3  and  C_4
REMARK    3  A    between atoms: C_4  and  C_5
REMARK    4  A    between atoms: N_14  and  C_15
REMARK    5  A    between atoms: C_15  and  C_16
REMARK    6  A    between atoms: N_27  and  C_28
REMARK                            x       y       z     vdW  Elec       q    Type
REMARK                         _______ _______ _______ _____ _____    ______ ____
ROOT
ATOM      1  C   UNL     1       2.381   7.807  18.361  0.00  0.00    +0.000 A 
ATOM      2  N   UNL     1       1.783   7.089  19.265  0.00  0.00    +0.000 NA
ATOM      3  C   UNL     1       2.248   5.780  19.476  0.00  0.00    +0.000 A 
ATOM      4  C   UNL     1       1.569   5.008  20.424  0.00  0.00    +0.000 A 
ATOM      5  C   UNL     1       2.023   3.733  20.746  0.00  0.00    +0.000 A 
ATOM      6 CL   UNL     1       1.176   2.784  21.902  0.00  0.00    +0.000 Cl
ATOM      7  C   UNL     1       3.165   3.224  20.139  0.00  0.00    +0.000 A 
ATOM      8  C   UNL     1       3.850   3.988  19.190  0.00  0.00    +0.000 A 
ATOM      9  C   UNL     1       3.394   5.264  18.834  0.00  0.00    +0.000 A 
ATOM     10  N   UNL     1       4.008   6.039  17.804  0.00  0.00    +0.000 N 
ATOM     11  C   UNL     1       3.426   7.239  17.416  0.00  0.00    +0.000 A 
ATOM     12  O   UNL     1       3.690   7.861  16.393  0.00  0.00    +0.000 OA
ENDROOT
BRANCH   1  13
ATOM     13  C   UNL     1       2.053   9.279  18.207  0.00  0.00    +0.000 C 
BRANCH  13  14
ATOM     14  C   UNL     1       0.558   9.478  17.953  0.00  0.00    +0.000 C 
BRANCH  14  16
ATOM     15  O   UNL     1       0.794  11.381  19.380  0.00  0.00    +0.000 OA
ATOM     16  C   UNL     1       0.033  10.726  18.665  0.00  0.00    +0.000 C 
ATOM     17  N   UNL     1      -1.278  11.091  18.448  0.00  0.00    +0.000 N 
ATOM     18  C   UNL     1      -1.772  12.335  19.048  0.00  0.00    +0.000 C 
ATOM     19  C   UNL     1      -3.131  12.139  19.735  0.00  0.00    +0.000 C 
ATOM     20  N   UNL     1      -4.078  11.493  18.812  0.00  0.00    +0.000 N 
ATOM     21  C   UNL     1      -3.618  10.216  18.250  0.00  0.00    +0.000 C 
ATOM     22  C   UNL     1      -2.245  10.412  17.567  0.00  0.00    +0.000 C 
BRANCH  20  23
ATOM     23  C   UNL     1      -5.276  12.075  18.469  0.00  0.00    +0.000 A 
ATOM     24  C   UNL     1      -5.571  12.425  17.141  0.00  0.00    +0.000 A 
ATOM     25  C   UNL     1      -6.768  13.054  16.790  0.00  0.00    +0.000 A 
ATOM     26  C   UNL     1      -7.714  13.341  17.765  0.00  0.00    +0.000 A 
ATOM     27  C   UNL     1      -7.468  12.981  19.086  0.00  0.00    +0.000 A 
ATOM     28  C   UNL     1      -6.266  12.349  19.427  0.00  0.00    +0.000 A 
ENDBRANCH  20  23
ENDBRANCH  14  16
ENDBRANCH  13  14
ENDBRANCH   1  13
BRANCH  10  29
ATOM     29  C   UNL     1       5.220   5.607  17.111  0.00  0.00    +0.000 C 
BRANCH  29  30
ATOM     30  C   UNL     1       6.466   6.266  17.671  0.00  0.00    +0.000 A 
ATOM     31  C   UNL     1       7.175   5.675  18.727  0.00  0.00    +0.000 A 
ATOM     32  C   UNL     1       8.240   6.347  19.332  0.00  0.00    +0.000 A 
ATOM     33  C   UNL     1       8.630   7.601  18.870  0.00  0.00    +0.000 A 
ATOM     34  C   UNL     1       7.984   8.165  17.773  0.00  0.00    +0.000 A 
ATOM     35  C   UNL     1       6.915   7.500  17.171  0.00  0.00    +0.000 A 
ENDBRANCH  29  30
ENDBRANCH  10  29
TORSDOF 6
ENDMDL
