MODEL 1
REMARK VINA RESULT:      -6.7      0.000      0.000
REMARK  Name = 
REMARK  3 active torsions:
REMARK  status: ('A' for Active; 'I' for Inactive)
REMARK    1  A    between atoms: C_2  and  C_22
REMARK    2  A    between atoms: N_3  and  C_4
REMARK    3  A    between atoms: C_8  and  C_9
REMARK                            x       y       z     vdW  Elec       q    Type
REMARK                         _______ _______ _______ _____ _____    ______ ____
ROOT
ATOM      1  C   UNL     1      -0.787  13.748  21.281  0.00  0.00    +0.000 A 
ATOM      2  S   UNL     1      -0.705  14.394  22.850  0.00  0.00    +0.000 S 
ATOM      3  C   UNL     1      -2.309  13.926  23.177  0.00  0.00    +0.000 A 
ATOM      4  C   UNL     1      -2.871  13.187  22.148  0.00  0.00    +0.000 A 
ATOM      5  C   UNL     1      -1.983  13.106  21.018  0.00  0.00    +0.000 A 
ATOM      6  C   UNL     1      -4.218  12.534  22.302  0.00  0.00    +0.000 C 
ATOM      7  C   UNL     1      -5.036  13.150  23.448  0.00  0.00    +0.000 C 
ATOM      8  C   UNL     1      -4.194  13.357  24.711  0.00  0.00    +0.000 C 
ATOM      9  C   UNL     1      -2.998  14.286  24.458  0.00  0.00    +0.000 C 
ENDROOT
BRANCH   5  10
ATOM     10  C   UNL     1      -2.269  12.342  19.758  0.00  0.00    +0.000 A 
ATOM     11  N   UNL     1      -1.470  11.458  19.189  0.00  0.00    +0.000 NA
ATOM     12  C   UNL     1      -2.134  11.014  18.074  0.00  0.00    +0.000 A 
ATOM     13  C   UNL     1      -1.764  10.061  17.122  0.00  0.00    +0.000 A 
ATOM     14  C   UNL     1      -2.632   9.793  16.058  0.00  0.00    +0.000 A 
ATOM     15  C   UNL     1      -3.844  10.483  15.931  0.00  0.00    +0.000 A 
ATOM     16  C   UNL     1      -4.230  11.446  16.871  0.00  0.00    +0.000 A 
ATOM     17  C   UNL     1      -3.346  11.675  17.926  0.00  0.00    +0.000 A 
ATOM     18  N   UNL     1      -3.406  12.501  19.010  0.00  0.00    +0.000 N 
ATOM     19  H   UNL     1      -4.158  13.126  19.235  0.00  0.00    +0.000 HD
ENDBRANCH   5  10
BRANCH   1  22
ATOM     20  O   UNL     1      -0.428  15.869  19.533  0.00  0.00    +0.000 OA
ATOM     21  C   UNL     1       0.438  15.017  19.684  0.00  0.00    +0.000 C 
ATOM     22  N   UNL     1       0.368  13.913  20.525  0.00  0.00    +0.000 N 
ATOM     23  H   UNL     1       1.225  13.776  21.051  0.00  0.00    +0.000 HD
BRANCH  21  24
ATOM     24  C   UNL     1       1.690  15.124  18.895  0.00  0.00    +0.000 A 
ATOM     25  C   UNL     1       2.557  14.033  18.842  0.00  0.00    +0.000 A 
ATOM     26  C   UNL     1       3.759  14.199  18.182  0.00  0.00    +0.000 A 
ATOM     27  N   UNL     1       4.142  15.358  17.603  0.00  0.00    +0.000 NA
ATOM     28  C   UNL     1       3.291  16.402  17.688  0.00  0.00    +0.000 A 
ATOM     29  C   UNL     1       2.057  16.336  18.308  0.00  0.00    +0.000 A 
ENDBRANCH  21  24
ENDBRANCH   1  22
TORSDOF 3
ENDMDL
MODEL 2
REMARK VINA RESULT:      -6.6      3.258      5.666
REMARK  Name = 
REMARK  3 active torsions:
REMARK  status: ('A' for Active; 'I' for Inactive)
REMARK    1  A    between atoms: C_2  and  C_22
REMARK    2  A    between atoms: N_3  and  C_4
REMARK    3  A    between atoms: C_8  and  C_9
REMARK                            x       y       z     vdW  Elec       q    Type
REMARK                         _______ _______ _______ _____ _____    ______ ____
ROOT
ATOM      1  C   UNL     1       1.432  12.592  18.504  0.00  0.00    +0.000 A 
ATOM      2  S   UNL     1       2.841  13.511  18.735  0.00  0.00    +0.000 S 
ATOM      3  C   UNL     1       1.954  14.965  18.711  0.00  0.00    +0.000 A 
ATOM      4  C   UNL     1       0.586  14.754  18.641  0.00  0.00    +0.000 A 
ATOM      5  C   UNL     1       0.280  13.355  18.491  0.00  0.00    +0.000 A 
ATOM      6  C   UNL     1      -0.387  15.894  18.778  0.00  0.00    +0.000 C 
ATOM      7  C   UNL     1       0.274  17.257  18.524  0.00  0.00    +0.000 C 
ATOM      8  C   UNL     1       1.626  17.383  19.233  0.00  0.00    +0.000 C 
ATOM      9  C   UNL     1       2.618  16.306  18.774  0.00  0.00    +0.000 C 
ENDROOT
BRANCH   5  10
ATOM     10  C   UNL     1      -1.107  12.785  18.429  0.00  0.00    +0.000 A 
ATOM     11  N   UNL     1      -1.990  12.785  19.411  0.00  0.00    +0.000 NA
ATOM     12  C   UNL     1      -3.109  12.170  18.911  0.00  0.00    +0.000 A 
ATOM     13  C   UNL     1      -4.348  11.923  19.508  0.00  0.00    +0.000 A 
ATOM     14  C   UNL     1      -5.336  11.260  18.772  0.00  0.00    +0.000 A 
ATOM     15  C   UNL     1      -5.084  10.826  17.464  0.00  0.00    +0.000 A 
ATOM     16  C   UNL     1      -3.849  11.059  16.850  0.00  0.00    +0.000 A 
ATOM     17  C   UNL     1      -2.894  11.737  17.609  0.00  0.00    +0.000 A 
ATOM     18  N   UNL     1      -1.623  12.148  17.331  0.00  0.00    +0.000 N 
ATOM     19  H   UNL     1      -1.136  12.013  16.465  0.00  0.00    +0.000 HD
ENDBRANCH   5  10
BRANCH   1  22
ATOM     20  O   UNL     1       0.965  10.869  20.624  0.00  0.00    +0.000 OA
ATOM     21  C   UNL     1       1.371  10.454  19.547  0.00  0.00    +0.000 C 
ATOM     22  N   UNL     1       1.643  11.221  18.419  0.00  0.00    +0.000 N 
ATOM     23  H   UNL     1       1.275  10.801  17.572  0.00  0.00    +0.000 HD
BRANCH  21  24
ATOM     24  C   UNL     1       1.632   9.002  19.393  0.00  0.00    +0.000 A 
ATOM     25  C   UNL     1       1.504   8.166  20.501  0.00  0.00    +0.000 A 
ATOM     26  C   UNL     1       1.848   6.837  20.347  0.00  0.00    +0.000 A 
ATOM     27  N   UNL     1       2.314   6.313  19.192  0.00  0.00    +0.000 NA
ATOM     28  C   UNL     1       2.445   7.151  18.142  0.00  0.00    +0.000 A 
ATOM     29  C   UNL     1       2.111   8.491  18.185  0.00  0.00    +0.000 A 
ENDBRANCH  21  24
ENDBRANCH   1  22
TORSDOF 3
ENDMDL
MODEL 3
REMARK VINA RESULT:      -6.6      3.280      5.604
REMARK  Name = 
REMARK  3 active torsions:
REMARK  status: ('A' for Active; 'I' for Inactive)
REMARK    1  A    between atoms: C_2  and  C_22
REMARK    2  A    between atoms: N_3  and  C_4
REMARK    3  A    between atoms: C_8  and  C_9
REMARK                            x       y       z     vdW  Elec       q    Type
REMARK                         _______ _______ _______ _____ _____    ______ ____
ROOT
ATOM      1  C   UNL     1       1.253  12.547  18.566  0.00  0.00    +0.000 A 
ATOM      2  S   UNL     1       2.656  13.485  18.752  0.00  0.00    +0.000 S 
ATOM      3  C   UNL     1       1.749  14.926  18.765  0.00  0.00    +0.000 A 
ATOM      4  C   UNL     1       0.382  14.697  18.742  0.00  0.00    +0.000 A 
ATOM      5  C   UNL     1       0.090  13.295  18.596  0.00  0.00    +0.000 A 
ATOM      6  C   UNL     1      -0.600  15.823  18.918  0.00  0.00    +0.000 C 
ATOM      7  C   UNL     1       0.034  17.197  18.647  0.00  0.00    +0.000 C 
ATOM      8  C   UNL     1       1.408  17.338  19.309  0.00  0.00    +0.000 C 
ATOM      9  C   UNL     1       2.398  16.276  18.811  0.00  0.00    +0.000 C 
ENDROOT
BRANCH   5  10
ATOM     10  C   UNL     1      -1.290  12.707  18.580  0.00  0.00    +0.000 A 
ATOM     11  N   UNL     1      -1.747  11.826  17.709  0.00  0.00    +0.000 NA
ATOM     12  C   UNL     1      -3.044  11.571  18.077  0.00  0.00    +0.000 A 
ATOM     13  C   UNL     1      -3.987  10.702  17.521  0.00  0.00    +0.000 A 
ATOM     14  C   UNL     1      -5.263  10.632  18.090  0.00  0.00    +0.000 A 
ATOM     15  C   UNL     1      -5.604  11.436  19.185  0.00  0.00    +0.000 A 
ATOM     16  C   UNL     1      -4.676  12.317  19.753  0.00  0.00    +0.000 A 
ATOM     17  C   UNL     1      -3.409  12.347  19.169  0.00  0.00    +0.000 A 
ATOM     18  N   UNL     1      -2.277  13.048  19.468  0.00  0.00    +0.000 N 
ATOM     19  H   UNL     1      -2.171  13.707  20.217  0.00  0.00    +0.000 HD
ENDBRANCH   5  10
BRANCH   1  22
ATOM     20  O   UNL     1       1.000  10.827  20.725  0.00  0.00    +0.000 OA
ATOM     21  C   UNL     1       1.318  10.414  19.618  0.00  0.00    +0.000 C 
ATOM     22  N   UNL     1       1.478  11.179  18.468  0.00  0.00    +0.000 N 
ATOM     23  H   UNL     1       1.045  10.749  17.657  0.00  0.00    +0.000 HD
BRANCH  21  24
ATOM     24  C   UNL     1       1.589   8.965  19.447  0.00  0.00    +0.000 A 
ATOM     25  C   UNL     1       1.489   8.119  20.550  0.00  0.00    +0.000 A 
ATOM     26  C   UNL     1       1.842   6.795  20.378  0.00  0.00    +0.000 A 
ATOM     27  N   UNL     1       2.291   6.284  19.210  0.00  0.00    +0.000 NA
ATOM     28  C   UNL     1       2.396   7.132  18.165  0.00  0.00    +0.000 A 
ATOM     29  C   UNL     1       2.050   8.469  18.226  0.00  0.00    +0.000 A 
ENDBRANCH  21  24
ENDBRANCH   1  22
TORSDOF 3
ENDMDL
MODEL 4
REMARK VINA RESULT:      -6.6      1.240      1.462
REMARK  Name = 
REMARK  3 active torsions:
REMARK  status: ('A' for Active; 'I' for Inactive)
REMARK    1  A    between atoms: C_2  and  C_22
REMARK    2  A    between atoms: N_3  and  C_4
REMARK    3  A    between atoms: C_8  and  C_9
REMARK                            x       y       z     vdW  Elec       q    Type
REMARK                         _______ _______ _______ _____ _____    ______ ____
ROOT
ATOM      1  C   UNL     1      -1.029  14.735  21.406  0.00  0.00    +0.000 A 
ATOM      2  S   UNL     1      -0.976  15.518  22.912  0.00  0.00    +0.000 S 
ATOM      3  C   UNL     1      -2.248  14.555  23.509  0.00  0.00    +0.000 A 
ATOM      4  C   UNL     1      -2.638  13.570  22.615  0.00  0.00    +0.000 A 
ATOM      5  C   UNL     1      -1.938  13.694  21.364  0.00  0.00    +0.000 A 
ATOM      6  C   UNL     1      -3.627  12.507  23.009  0.00  0.00    +0.000 C 
ATOM      7  C   UNL     1      -4.452  12.906  24.242  0.00  0.00    +0.000 C 
ATOM      8  C   UNL     1      -3.581  13.516  25.346  0.00  0.00    +0.000 C 
ATOM      9  C   UNL     1      -2.843  14.774  24.867  0.00  0.00    +0.000 C 
ENDROOT
BRANCH   5  10
ATOM     10  C   UNL     1      -2.095  12.761  20.199  0.00  0.00    +0.000 A 
ATOM     11  N   UNL     1      -1.170  11.944  19.730  0.00  0.00    +0.000 NA
ATOM     12  C   UNL     1      -1.749  11.285  18.675  0.00  0.00    +0.000 A 
ATOM     13  C   UNL     1      -1.233  10.295  17.835  0.00  0.00    +0.000 A 
ATOM     14  C   UNL     1      -2.041   9.786  16.812  0.00  0.00    +0.000 A 
ATOM     15  C   UNL     1      -3.338  10.275  16.613  0.00  0.00    +0.000 A 
ATOM     16  C   UNL     1      -3.871  11.270  17.440  0.00  0.00    +0.000 A 
ATOM     17  C   UNL     1      -3.042  11.742  18.459  0.00  0.00    +0.000 A 
ATOM     18  N   UNL     1      -3.234  12.668  19.443  0.00  0.00    +0.000 N 
ATOM     19  H   UNL     1      -4.071  13.198  19.599  0.00  0.00    +0.000 HD
ENDBRANCH   5  10
BRANCH   1  22
ATOM     20  O   UNL     1      -1.674  16.706  19.567  0.00  0.00    +0.000 OA
ATOM     21  C   UNL     1      -0.556  16.210  19.600  0.00  0.00    +0.000 C 
ATOM     22  N   UNL     1      -0.121  15.218  20.470  0.00  0.00    +0.000 N 
ATOM     23  H   UNL     1       0.796  15.420  20.855  0.00  0.00    +0.000 HD
BRANCH  21  24
ATOM     24  C   UNL     1       0.457  16.669  18.618  0.00  0.00    +0.000 A 
ATOM     25  C   UNL     1       1.744  16.137  18.668  0.00  0.00    +0.000 A 
ATOM     26  C   UNL     1       2.689  16.655  17.804  0.00  0.00    +0.000 A 
ATOM     27  N   UNL     1       2.437  17.656  16.931  0.00  0.00    +0.000 NA
ATOM     28  C   UNL     1       1.187  18.165  16.919  0.00  0.00    +0.000 A 
ATOM     29  C   UNL     1       0.164  17.704  17.728  0.00  0.00    +0.000 A 
ENDBRANCH  21  24
ENDBRANCH   1  22
TORSDOF 3
ENDMDL
MODEL 5
REMARK VINA RESULT:      -6.6      2.725      6.770
REMARK  Name = 
REMARK  3 active torsions:
REMARK  status: ('A' for Active; 'I' for Inactive)
REMARK    1  A    between atoms: C_2  and  C_22
REMARK    2  A    between atoms: N_3  and  C_4
REMARK    3  A    between atoms: C_8  and  C_9
REMARK                            x       y       z     vdW  Elec       q    Type
REMARK                         _______ _______ _______ _____ _____    ______ ____
ROOT
ATOM      1  C   UNL     1      -0.413  14.292  19.262  0.00  0.00    +0.000 A 
ATOM      2  S   UNL     1      -0.403  15.948  18.882  0.00  0.00    +0.000 S 
ATOM      3  C   UNL     1       1.261  15.902  18.519  0.00  0.00    +0.000 A 
ATOM      4  C   UNL     1       1.785  14.621  18.576  0.00  0.00    +0.000 A 
ATOM      5  C   UNL     1       0.804  13.675  19.040  0.00  0.00    +0.000 A 
ATOM      6  C   UNL     1       3.193  14.333  18.127  0.00  0.00    +0.000 C 
ATOM      7  C   UNL     1       4.059  15.602  18.078  0.00  0.00    +0.000 C 
ATOM      8  C   UNL     1       3.325  16.776  17.422  0.00  0.00    +0.000 C 
ATOM      9  C   UNL     1       2.034  17.137  18.169  0.00  0.00    +0.000 C 
ENDROOT
BRANCH   5  10
ATOM     10  C   UNL     1       1.036  12.198  19.174  0.00  0.00    +0.000 A 
ATOM     11  N   UNL     1       0.855  11.481  20.267  0.00  0.00    +0.000 NA
ATOM     12  C   UNL     1       1.182  10.192  19.930  0.00  0.00    +0.000 A 
ATOM     13  C   UNL     1       1.150   9.022  20.694  0.00  0.00    +0.000 A 
ATOM     14  C   UNL     1       1.548   7.817  20.105  0.00  0.00    +0.000 A 
ATOM     15  C   UNL     1       1.995   7.781  18.778  0.00  0.00    +0.000 A 
ATOM     16  C   UNL     1       2.039   8.943  17.998  0.00  0.00    +0.000 A 
ATOM     17  C   UNL     1       1.620  10.122  18.614  0.00  0.00    +0.000 A 
ATOM     18  N   UNL     1       1.509  11.405  18.161  0.00  0.00    +0.000 N 
ATOM     19  H   UNL     1       1.730  11.726  17.238  0.00  0.00    +0.000 HD
ENDBRANCH   5  10
BRANCH   1  22
ATOM     20  O   UNL     1      -1.131  14.122  21.933  0.00  0.00    +0.000 OA
ATOM     21  C   UNL     1      -1.895  13.766  21.047  0.00  0.00    +0.000 C 
ATOM     22  N   UNL     1      -1.644  13.801  19.680  0.00  0.00    +0.000 N 
ATOM     23  H   UNL     1      -2.431  14.167  19.154  0.00  0.00    +0.000 HD
BRANCH  21  24
ATOM     24  C   UNL     1      -3.221  13.217  21.424  0.00  0.00    +0.000 A 
ATOM     25  C   UNL     1      -4.105  12.820  20.422  0.00  0.00    +0.000 A 
ATOM     26  C   UNL     1      -5.366  12.406  20.804  0.00  0.00    +0.000 A 
ATOM     27  N   UNL     1      -5.790  12.380  22.087  0.00  0.00    +0.000 NA
ATOM     28  C   UNL     1      -4.919  12.789  23.034  0.00  0.00    +0.000 A 
ATOM     29  C   UNL     1      -3.629  13.203  22.759  0.00  0.00    +0.000 A 
ENDBRANCH  21  24
ENDBRANCH   1  22
TORSDOF 3
ENDMDL
MODEL 6
REMARK VINA RESULT:      -6.5      0.559      1.070
REMARK  Name = 
REMARK  3 active torsions:
REMARK  status: ('A' for Active; 'I' for Inactive)
REMARK    1  A    between atoms: C_2  and  C_22
REMARK    2  A    between atoms: N_3  and  C_4
REMARK    3  A    between atoms: C_8  and  C_9
REMARK                            x       y       z     vdW  Elec       q    Type
REMARK                         _______ _______ _______ _____ _____    ______ ____
ROOT
ATOM      1  C   UNL     1      -1.361  13.781  21.216  0.00  0.00    +0.000 A 
ATOM      2  S   UNL     1      -1.465  14.462  22.769  0.00  0.00    +0.000 S 
ATOM      3  C   UNL     1      -3.094  13.989  22.919  0.00  0.00    +0.000 A 
ATOM      4  C   UNL     1      -3.529  13.223  21.848  0.00  0.00    +0.000 A 
ATOM      5  C   UNL     1      -2.515  13.124  20.831  0.00  0.00    +0.000 A 
ATOM      6  C   UNL     1      -4.881  12.562  21.860  0.00  0.00    +0.000 C 
ATOM      7  C   UNL     1      -5.830  13.196  22.889  0.00  0.00    +0.000 C 
ATOM      8  C   UNL     1      -5.141  13.438  24.236  0.00  0.00    +0.000 C 
ATOM      9  C   UNL     1      -3.929  14.370  24.103  0.00  0.00    +0.000 C 
ENDROOT
BRANCH   5  10
ATOM     10  C   UNL     1      -2.649  12.331  19.564  0.00  0.00    +0.000 A 
ATOM     11  N   UNL     1      -1.779  11.450  19.106  0.00  0.00    +0.000 NA
ATOM     12  C   UNL     1      -2.309  10.972  17.934  0.00  0.00    +0.000 A 
ATOM     13  C   UNL     1      -1.822  10.006  17.049  0.00  0.00    +0.000 A 
ATOM     14  C   UNL     1      -2.563   9.702  15.903  0.00  0.00    +0.000 A 
ATOM     15  C   UNL     1      -3.764  10.369  15.628  0.00  0.00    +0.000 A 
ATOM     16  C   UNL     1      -4.266  11.343  16.499  0.00  0.00    +0.000 A 
ATOM     17  C   UNL     1      -3.507  11.609  17.639  0.00  0.00    +0.000 A 
ATOM     18  N   UNL     1      -3.699  12.455  18.693  0.00  0.00    +0.000 N 
ATOM     19  H   UNL     1      -4.480  13.071  18.820  0.00  0.00    +0.000 HD
ENDBRANCH   5  10
BRANCH   1  22
ATOM     20  O   UNL     1      -0.846  15.804  19.393  0.00  0.00    +0.000 OA
ATOM     21  C   UNL     1       0.016  14.992  19.700  0.00  0.00    +0.000 C 
ATOM     22  N   UNL     1      -0.127  13.939  20.596  0.00  0.00    +0.000 N 
ATOM     23  H   UNL     1       0.663  13.863  21.229  0.00  0.00    +0.000 HD
BRANCH  21  24
ATOM     24  C   UNL     1       1.353  15.093  19.063  0.00  0.00    +0.000 A 
ATOM     25  C   UNL     1       1.756  16.310  18.517  0.00  0.00    +0.000 A 
ATOM     26  C   UNL     1       2.963  16.345  17.845  0.00  0.00    +0.000 A 
ATOM     27  N   UNL     1       3.759  15.265  17.678  0.00  0.00    +0.000 NA
ATOM     28  C   UNL     1       3.332  14.097  18.202  0.00  0.00    +0.000 A 
ATOM     29  C   UNL     1       2.151  13.959  18.907  0.00  0.00    +0.000 A 
ENDBRANCH  21  24
ENDBRANCH   1  22
TORSDOF 3
ENDMDL
MODEL 7
REMARK VINA RESULT:      -6.5      2.855      6.735
REMARK  Name = 
REMARK  3 active torsions:
REMARK  status: ('A' for Active; 'I' for Inactive)
REMARK    1  A    between atoms: C_2  and  C_22
REMARK    2  A    between atoms: N_3  and  C_4
REMARK    3  A    between atoms: C_8  and  C_9
REMARK                            x       y       z     vdW  Elec       q    Type
REMARK                         _______ _______ _______ _____ _____    ______ ____
ROOT
ATOM      1  C   UNL     1      -0.378  14.409  19.707  0.00  0.00    +0.000 A 
ATOM      2  S   UNL     1      -0.392  16.055  19.289  0.00  0.00    +0.000 S 
ATOM      3  C   UNL     1       1.187  15.958  18.659  0.00  0.00    +0.000 A 
ATOM      4  C   UNL     1       1.684  14.664  18.661  0.00  0.00    +0.000 A 
ATOM      5  C   UNL     1       0.772  13.756  19.304  0.00  0.00    +0.000 A 
ATOM      6  C   UNL     1       2.991  14.330  17.995  0.00  0.00    +0.000 C 
ATOM      7  C   UNL     1       3.866  15.573  17.772  0.00  0.00    +0.000 C 
ATOM      8  C   UNL     1       3.061  16.752  17.215  0.00  0.00    +0.000 C 
ATOM      9  C   UNL     1       1.919  17.164  18.154  0.00  0.00    +0.000 C 
ENDROOT
BRANCH   5  10
ATOM     10  C   UNL     1       0.989  12.276  19.435  0.00  0.00    +0.000 A 
ATOM     11  N   UNL     1       0.881  11.572  20.548  0.00  0.00    +0.000 NA
ATOM     12  C   UNL     1       1.160  10.275  20.200  0.00  0.00    +0.000 A 
ATOM     13  C   UNL     1       1.167   9.113  20.977  0.00  0.00    +0.000 A 
ATOM     14  C   UNL     1       1.498   7.896  20.372  0.00  0.00    +0.000 A 
ATOM     15  C   UNL     1       1.840   7.839  19.015  0.00  0.00    +0.000 A 
ATOM     16  C   UNL     1       1.843   8.992  18.222  0.00  0.00    +0.000 A 
ATOM     17  C   UNL     1       1.493  10.185  18.855  0.00  0.00    +0.000 A 
ATOM     18  N   UNL     1       1.368  11.465  18.398  0.00  0.00    +0.000 N 
ATOM     19  H   UNL     1       1.523  11.773  17.457  0.00  0.00    +0.000 HD
ENDBRANCH   5  10
BRANCH   1  22
ATOM     20  O   UNL     1      -0.702  14.444  22.459  0.00  0.00    +0.000 OA
ATOM     21  C   UNL     1      -1.585  14.029  21.721  0.00  0.00    +0.000 C 
ATOM     22  N   UNL     1      -1.534  13.961  20.334  0.00  0.00    +0.000 N 
ATOM     23  H   UNL     1      -2.390  14.292  19.901  0.00  0.00    +0.000 HD
BRANCH  21  24
ATOM     24  C   UNL     1      -2.841  13.520  22.327  0.00  0.00    +0.000 A 
ATOM     25  C   UNL     1      -2.829  13.078  23.648  0.00  0.00    +0.000 A 
ATOM     26  C   UNL     1      -3.989  12.520  24.150  0.00  0.00    +0.000 A 
ATOM     27  N   UNL     1      -5.121  12.367  23.426  0.00  0.00    +0.000 NA
ATOM     28  C   UNL     1      -5.095  12.786  22.144  0.00  0.00    +0.000 A 
ATOM     29  C   UNL     1      -3.993  13.375  21.552  0.00  0.00    +0.000 A 
ENDBRANCH  21  24
ENDBRANCH   1  22
TORSDOF 3
ENDMDL
MODEL 8
REMARK VINA RESULT:      -6.5      3.996      4.780
REMARK  Name = 
REMARK  3 active torsions:
REMARK  status: ('A' for Active; 'I' for Inactive)
REMARK    1  A    between atoms: C_2  and  C_22
REMARK    2  A    between atoms: N_3  and  C_4
REMARK    3  A    between atoms: C_8  and  C_9
REMARK                            x       y       z     vdW  Elec       q    Type
REMARK                         _______ _______ _______ _____ _____    ______ ____
ROOT
ATOM      1  C   UNL     1      -2.515  14.177  22.735  0.00  0.00    +0.000 A 
ATOM      2  S   UNL     1      -1.922  15.145  23.998  0.00  0.00    +0.000 S 
ATOM      3  C   UNL     1      -3.379  16.023  24.073  0.00  0.00    +0.000 A 
ATOM      4  C   UNL     1      -4.352  15.516  23.226  0.00  0.00    +0.000 A 
ATOM      5  C   UNL     1      -3.833  14.445  22.417  0.00  0.00    +0.000 A 
ATOM      6  C   UNL     1      -5.764  16.037  23.259  0.00  0.00    +0.000 C 
ATOM      7  C   UNL     1      -5.861  17.414  23.932  0.00  0.00    +0.000 C 
ATOM      8  C   UNL     1      -5.043  17.483  25.226  0.00  0.00    +0.000 C 
ATOM      9  C   UNL     1      -3.554  17.201  24.981  0.00  0.00    +0.000 C 
ENDROOT
BRANCH   5  10
ATOM     10  C   UNL     1      -4.638  13.652  21.428  0.00  0.00    +0.000 A 
ATOM     11  N   UNL     1      -5.252  12.508  21.668  0.00  0.00    +0.000 NA
ATOM     12  C   UNL     1      -5.860  12.153  20.491  0.00  0.00    +0.000 A 
ATOM     13  C   UNL     1      -6.661  11.050  20.184  0.00  0.00    +0.000 A 
ATOM     14  C   UNL     1      -7.159  10.914  18.884  0.00  0.00    +0.000 A 
ATOM     15  C   UNL     1      -6.844  11.854  17.894  0.00  0.00    +0.000 A 
ATOM     16  C   UNL     1      -6.039  12.963  18.180  0.00  0.00    +0.000 A 
ATOM     17  C   UNL     1      -5.573  13.073  19.491  0.00  0.00    +0.000 A 
ATOM     18  N   UNL     1      -4.806  14.012  20.117  0.00  0.00    +0.000 N 
ATOM     19  H   UNL     1      -4.425  14.838  19.695  0.00  0.00    +0.000 HD
ENDBRANCH   5  10
BRANCH   1  22
ATOM     20  O   UNL     1      -2.520  11.535  23.573  0.00  0.00    +0.000 OA
ATOM     21  C   UNL     1      -1.713  11.937  22.746  0.00  0.00    +0.000 C 
ATOM     22  N   UNL     1      -1.613  13.234  22.256  0.00  0.00    +0.000 N 
ATOM     23  H   UNL     1      -1.495  13.255  21.248  0.00  0.00    +0.000 HD
BRANCH  21  24
ATOM     24  C   UNL     1      -0.711  10.985  22.204  0.00  0.00    +0.000 A 
ATOM     25  C   UNL     1      -0.336  11.080  20.865  0.00  0.00    +0.000 A 
ATOM     26  C   UNL     1       0.523  10.120  20.368  0.00  0.00    +0.000 A 
ATOM     27  N   UNL     1       1.002   9.091  21.103  0.00  0.00    +0.000 NA
ATOM     28  C   UNL     1       0.606   9.014  22.391  0.00  0.00    +0.000 A 
ATOM     29  C   UNL     1      -0.235   9.934  22.990  0.00  0.00    +0.000 A 
ENDBRANCH  21  24
ENDBRANCH   1  22
TORSDOF 3
ENDMDL
MODEL 9
REMARK VINA RESULT:      -6.5      2.843      6.756
REMARK  Name = 
REMARK  3 active torsions:
REMARK  status: ('A' for Active; 'I' for Inactive)
REMARK    1  A    between atoms: C_2  and  C_22
REMARK    2  A    between atoms: N_3  and  C_4
REMARK    3  A    between atoms: C_8  and  C_9
REMARK                            x       y       z     vdW  Elec       q    Type
REMARK                         _______ _______ _______ _____ _____    ______ ____
ROOT
ATOM      1  C   UNL     1      -0.278  13.814  18.880  0.00  0.00    +0.000 A 
ATOM      2  S   UNL     1      -0.238  15.498  18.670  0.00  0.00    +0.000 S 
ATOM      3  C   UNL     1       1.459  15.522  18.807  0.00  0.00    +0.000 A 
ATOM      4  C   UNL     1       2.006  14.252  18.900  0.00  0.00    +0.000 A 
ATOM      5  C   UNL     1       0.979  13.246  18.971  0.00  0.00    +0.000 A 
ATOM      6  C   UNL     1       3.495  14.039  18.860  0.00  0.00    +0.000 C 
ATOM      7  C   UNL     1       4.276  15.322  19.180  0.00  0.00    +0.000 C 
ATOM      8  C   UNL     1       3.709  16.541  18.445  0.00  0.00    +0.000 C 
ATOM      9  C   UNL     1       2.241  16.801  18.810  0.00  0.00    +0.000 C 
ENDROOT
BRANCH   5  10
ATOM     10  C   UNL     1       1.233  11.768  19.033  0.00  0.00    +0.000 A 
ATOM     11  N   UNL     1       1.051  10.994  20.088  0.00  0.00    +0.000 NA
ATOM     12  C   UNL     1       1.402   9.729  19.692  0.00  0.00    +0.000 A 
ATOM     13  C   UNL     1       1.380   8.522  20.396  0.00  0.00    +0.000 A 
ATOM     14  C   UNL     1       1.804   7.354  19.753  0.00  0.00    +0.000 A 
ATOM     15  C   UNL     1       2.266   7.391  18.432  0.00  0.00    +0.000 A 
ATOM     16  C   UNL     1       2.301   8.590  17.711  0.00  0.00    +0.000 A 
ATOM     17  C   UNL     1       1.857   9.732  18.379  0.00  0.00    +0.000 A 
ATOM     18  N   UNL     1       1.729  11.033  17.989  0.00  0.00    +0.000 N 
ATOM     19  H   UNL     1       1.957  11.403  17.085  0.00  0.00    +0.000 HD
ENDBRANCH   5  10
BRANCH   1  22
ATOM     20  O   UNL     1      -1.814  13.556  21.173  0.00  0.00    +0.000 OA
ATOM     21  C   UNL     1      -2.231  13.184  20.084  0.00  0.00    +0.000 C 
ATOM     22  N   UNL     1      -1.553  13.259  18.873  0.00  0.00    +0.000 N 
ATOM     23  H   UNL     1      -2.145  13.600  18.123  0.00  0.00    +0.000 HD
BRANCH  21  24
ATOM     24  C   UNL     1      -3.579  12.568  20.009  0.00  0.00    +0.000 A 
ATOM     25  C   UNL     1      -3.964  11.913  18.840  0.00  0.00    +0.000 A 
ATOM     26  C   UNL     1      -5.259  11.437  18.767  0.00  0.00    +0.000 A 
ATOM     27  N   UNL     1      -6.169  11.586  19.755  0.00  0.00    +0.000 NA
ATOM     28  C   UNL     1      -5.773  12.242  20.866  0.00  0.00    +0.000 A 
ATOM     29  C   UNL     1      -4.496  12.740  21.047  0.00  0.00    +0.000 A 
ENDBRANCH  21  24
ENDBRANCH   1  22
TORSDOF 3
ENDMDL
