MODEL 1
REMARK VINA RESULT:      -9.5      0.000      0.000
REMARK  Name = 
REMARK  8 active torsions:
REMARK  status: ('A' for Active; 'I' for Inactive)
REMARK    1  A    between atoms: C_1  and  C_2
REMARK    2  A    between atoms: C_6  and  C_7
REMARK    3  A    between atoms: C_7  and  N_8
REMARK    4  A    between atoms: N_8  and  C_9
REMARK    5  A    between atoms: C_9  and  C_10
REMARK    6  A    between atoms: C_14  and  C_15
REMARK    7  A    between atoms: C_17  and  C_19
REMARK    8  A    between atoms: C_28  and  O_29
REMARK                            x       y       z     vdW  Elec       q    Type
REMARK                         _______ _______ _______ _____ _____    ______ ____
ROOT
ATOM      1  N   UNL     1       2.930   6.926  18.569  0.00  0.00    +0.000 N 
ATOM      2  C   UNL     1       2.255   8.156  18.450  0.00  0.00    +0.000 C 
ATOM      3  O   UNL     1       2.265   8.773  17.377  0.00  0.00    +0.000 OA
ENDROOT
BRANCH   2   4
ATOM      4  C   UNL     1       1.387   8.755  19.522  0.00  0.00    +0.000 A 
ATOM      5  C   UNL     1       1.549   8.222  20.813  0.00  0.00    +0.000 A 
ATOM      6  C   UNL     1       0.855   8.751  21.907  0.00  0.00    +0.000 A 
ATOM      7  C   UNL     1       0.032   9.870  21.759  0.00  0.00    +0.000 A 
ATOM      8  C   UNL     1      -0.611  10.443  22.875  0.00  0.00    +0.000 A 
ATOM      9  C   UNL     1      -1.388  11.593  22.745  0.00  0.00    +0.000 A 
ATOM     10  C   UNL     1      -1.544  12.181  21.500  0.00  0.00    +0.000 A 
ATOM     11  C   UNL     1      -0.955  11.597  20.376  0.00  0.00    +0.000 A 
ATOM     12  C   UNL     1      -0.160  10.426  20.469  0.00  0.00    +0.000 A 
ATOM     13  C   UNL     1       0.458   9.788  19.354  0.00  0.00    +0.000 A 
BRANCH  13  14
ATOM     14  O   UNL     1       0.089  10.131  18.078  0.00  0.00    +0.000 OA
ATOM     15  H   UNL     1      -0.340   9.371  17.662  0.00  0.00    +0.000 HD
ENDBRANCH  13  14
ENDBRANCH   2   4
BRANCH   1  16
ATOM     16  C   UNL     1       3.450   6.323  17.331  0.00  0.00    +0.000 C 
BRANCH  16  22
ATOM     17  C   UNL     1       7.933   8.268  17.723  0.00  0.00    +0.000 C 
ATOM     18  C   UNL     1       7.083   7.043  17.545  0.00  0.00    +0.000 A 
ATOM     19  C   UNL     1       7.674   5.785  17.553  0.00  0.00    +0.000 A 
ATOM     20  C   UNL     1       6.868   4.670  17.365  0.00  0.00    +0.000 A 
ATOM     21  C   UNL     1       5.496   4.835  17.198  0.00  0.00    +0.000 A 
ATOM     22  C   UNL     1       4.954   6.118  17.231  0.00  0.00    +0.000 A 
ATOM     23  N   UNL     1       5.745   7.223  17.373  0.00  0.00    +0.000 NA
ENDBRANCH  16  22
ENDBRANCH   1  16
BRANCH   1  24
ATOM     24  C   UNL     1       3.029   6.074  19.764  0.00  0.00    +0.000 C 
BRANCH  24  25
ATOM     25  C   UNL     1       2.465   4.666  19.651  0.00  0.00    +0.000 A 
ATOM     26  C   UNL     1       1.145   4.421  20.030  0.00  0.00    +0.000 A 
ATOM     27  C   UNL     1       0.651   3.121  19.955  0.00  0.00    +0.000 A 
ATOM     28  C   UNL     1       1.472   2.104  19.481  0.00  0.00    +0.000 A 
ATOM     29  C   UNL     1       2.771   2.420  19.106  0.00  0.00    +0.000 A 
ATOM     30  C   UNL     1       3.670   1.384  18.504  0.00  0.00    +0.000 C 
ATOM     31  N   UNL     1       3.273   3.673  19.205  0.00  0.00    +0.000 NA
ENDBRANCH  24  25
ENDBRANCH   1  24
TORSDOF 6
ENDMDL
MODEL 2
REMARK VINA RESULT:      -9.2      0.889      1.109
REMARK  Name = 
REMARK  8 active torsions:
REMARK  status: ('A' for Active; 'I' for Inactive)
REMARK    1  A    between atoms: C_1  and  C_2
REMARK    2  A    between atoms: C_6  and  C_7
REMARK    3  A    between atoms: C_7  and  N_8
REMARK    4  A    between atoms: N_8  and  C_9
REMARK    5  A    between atoms: C_9  and  C_10
REMARK    6  A    between atoms: C_14  and  C_15
REMARK    7  A    between atoms: C_17  and  C_19
REMARK    8  A    between atoms: C_28  and  O_29
REMARK                            x       y       z     vdW  Elec       q    Type
REMARK                         _______ _______ _______ _____ _____    ______ ____
ROOT
ATOM      1  N   UNL     1       2.903   7.378  18.382  0.00  0.00    +0.000 N 
ATOM      2  C   UNL     1       2.142   8.563  18.353  0.00  0.00    +0.000 C 
ATOM      3  O   UNL     1       2.086   9.245  17.322  0.00  0.00    +0.000 OA
ENDROOT
BRANCH   2   4
ATOM      4  C   UNL     1       1.257   9.031  19.475  0.00  0.00    +0.000 A 
ATOM      5  C   UNL     1       1.440   8.387  20.711  0.00  0.00    +0.000 A 
ATOM      6  C   UNL     1       0.732   8.789  21.850  0.00  0.00    +0.000 A 
ATOM      7  C   UNL     1      -0.129   9.889  21.805  0.00  0.00    +0.000 A 
ATOM      8  C   UNL     1      -0.787  10.335  22.968  0.00  0.00    +0.000 A 
ATOM      9  C   UNL     1      -1.602  11.466  22.945  0.00  0.00    +0.000 A 
ATOM     10  C   UNL     1      -1.781  12.161  21.760  0.00  0.00    +0.000 A 
ATOM     11  C   UNL     1      -1.176  11.703  20.587  0.00  0.00    +0.000 A 
ATOM     12  C   UNL     1      -0.343  10.555  20.572  0.00  0.00    +0.000 A 
ATOM     13  C   UNL     1       0.294  10.044  19.403  0.00  0.00    +0.000 A 
BRANCH  13  14
ATOM     14  O   UNL     1      -0.090  10.491  18.164  0.00  0.00    +0.000 OA
ATOM     15  H   UNL     1       0.668  10.916  17.738  0.00  0.00    +0.000 HD
ENDBRANCH  13  14
ENDBRANCH   2   4
BRANCH   1  16
ATOM     16  C   UNL     1       3.437   6.892  17.100  0.00  0.00    +0.000 C 
BRANCH  16  22
ATOM     17  C   UNL     1       8.135   8.011  17.942  0.00  0.00    +0.000 C 
ATOM     18  C   UNL     1       7.112   6.966  17.599  0.00  0.00    +0.000 A 
ATOM     19  C   UNL     1       7.487   5.630  17.526  0.00  0.00    +0.000 A 
ATOM     20  C   UNL     1       6.526   4.686  17.188  0.00  0.00    +0.000 A 
ATOM     21  C   UNL     1       5.216   5.095  16.953  0.00  0.00    +0.000 A 
ATOM     22  C   UNL     1       4.891   6.444  17.073  0.00  0.00    +0.000 A 
ATOM     23  N   UNL     1       5.839   7.383  17.364  0.00  0.00    +0.000 NA
ENDBRANCH  16  22
ENDBRANCH   1  16
BRANCH   1  24
ATOM     24  C   UNL     1       3.085   6.463  19.519  0.00  0.00    +0.000 C 
BRANCH  24  25
ATOM     25  C   UNL     1       2.335   5.141  19.463  0.00  0.00    +0.000 A 
ATOM     26  C   UNL     1       1.831   4.688  18.243  0.00  0.00    +0.000 A 
ATOM     27  C   UNL     1       1.115   3.494  18.211  0.00  0.00    +0.000 A 
ATOM     28  C   UNL     1       0.941   2.769  19.384  0.00  0.00    +0.000 A 
ATOM     29  C   UNL     1       1.481   3.271  20.561  0.00  0.00    +0.000 A 
ATOM     30  C   UNL     1       1.403   2.489  21.836  0.00  0.00    +0.000 C 
ATOM     31  N   UNL     1       2.151   4.445  20.612  0.00  0.00    +0.000 NA
ENDBRANCH  24  25
ENDBRANCH   1  24
TORSDOF 6
ENDMDL
MODEL 3
REMARK VINA RESULT:      -8.9      2.600      5.309
REMARK  Name = 
REMARK  8 active torsions:
REMARK  status: ('A' for Active; 'I' for Inactive)
REMARK    1  A    between atoms: C_1  and  C_2
REMARK    2  A    between atoms: C_6  and  C_7
REMARK    3  A    between atoms: C_7  and  N_8
REMARK    4  A    between atoms: N_8  and  C_9
REMARK    5  A    between atoms: C_9  and  C_10
REMARK    6  A    between atoms: C_14  and  C_15
REMARK    7  A    between atoms: C_17  and  C_19
REMARK    8  A    between atoms: C_28  and  O_29
REMARK                            x       y       z     vdW  Elec       q    Type
REMARK                         _______ _______ _______ _____ _____    ______ ____
ROOT
ATOM      1  N   UNL     1       4.552   5.477  16.680  0.00  0.00    +0.000 N 
ATOM      2  C   UNL     1       3.376   5.458  17.455  0.00  0.00    +0.000 C 
ATOM      3  O   UNL     1       2.785   4.392  17.668  0.00  0.00    +0.000 OA
ENDROOT
BRANCH   2   4
ATOM      4  C   UNL     1       2.815   6.653  18.176  0.00  0.00    +0.000 A 
ATOM      5  C   UNL     1       2.611   7.803  17.393  0.00  0.00    +0.000 A 
ATOM      6  C   UNL     1       2.021   8.952  17.934  0.00  0.00    +0.000 A 
ATOM      7  C   UNL     1       1.555   8.964  19.250  0.00  0.00    +0.000 A 
ATOM      8  C   UNL     1       0.898  10.098  19.770  0.00  0.00    +0.000 A 
ATOM      9  C   UNL     1       0.379  10.098  21.064  0.00  0.00    +0.000 A 
ATOM     10  C   UNL     1       0.518   8.973  21.862  0.00  0.00    +0.000 A 
ATOM     11  C   UNL     1       1.210   7.859  21.379  0.00  0.00    +0.000 A 
ATOM     12  C   UNL     1       1.753   7.824  20.069  0.00  0.00    +0.000 A 
ATOM     13  C   UNL     1       2.471   6.717  19.531  0.00  0.00    +0.000 A 
BRANCH  13  14
ATOM     14  O   UNL     1       2.909   5.716  20.361  0.00  0.00    +0.000 OA
ATOM     15  H   UNL     1       3.618   5.230  19.918  0.00  0.00    +0.000 HD
ENDBRANCH  13  14
ENDBRANCH   2   4
BRANCH   1  16
ATOM     16  C   UNL     1       5.145   4.178  16.329  0.00  0.00    +0.000 C 
BRANCH  16  22
ATOM     17  C   UNL     1       4.565   3.207  11.559  0.00  0.00    +0.000 C 
ATOM     18  C   UNL     1       5.455   3.701  12.663  0.00  0.00    +0.000 A 
ATOM     19  C   UNL     1       6.698   4.243  12.358  0.00  0.00    +0.000 A 
ATOM     20  C   UNL     1       7.510   4.673  13.400  0.00  0.00    +0.000 A 
ATOM     21  C   UNL     1       7.054   4.572  14.712  0.00  0.00    +0.000 A 
ATOM     22  C   UNL     1       5.786   4.050  14.955  0.00  0.00    +0.000 A 
ATOM     23  N   UNL     1       4.999   3.586  13.940  0.00  0.00    +0.000 NA
ENDBRANCH  16  22
ENDBRANCH   1  16
BRANCH   1  24
ATOM     24  C   UNL     1       5.366   6.649  16.323  0.00  0.00    +0.000 C 
BRANCH  24  25
ATOM     25  C   UNL     1       6.519   6.993  17.253  0.00  0.00    +0.000 A 
ATOM     26  C   UNL     1       7.015   6.021  18.122  0.00  0.00    +0.000 A 
ATOM     27  C   UNL     1       8.048   6.357  18.994  0.00  0.00    +0.000 A 
ATOM     28  C   UNL     1       8.577   7.642  18.962  0.00  0.00    +0.000 A 
ATOM     29  C   UNL     1       8.047   8.557  18.061  0.00  0.00    +0.000 A 
ATOM     30  C   UNL     1       8.639   9.925  17.919  0.00  0.00    +0.000 C 
ATOM     31  N   UNL     1       7.023   8.252  17.232  0.00  0.00    +0.000 NA
ENDBRANCH  24  25
ENDBRANCH   1  24
TORSDOF 6
ENDMDL
MODEL 4
REMARK VINA RESULT:      -8.8      1.159      1.783
REMARK  Name = 
REMARK  8 active torsions:
REMARK  status: ('A' for Active; 'I' for Inactive)
REMARK    1  A    between atoms: C_1  and  C_2
REMARK    2  A    between atoms: C_6  and  C_7
REMARK    3  A    between atoms: C_7  and  N_8
REMARK    4  A    between atoms: N_8  and  C_9
REMARK    5  A    between atoms: C_9  and  C_10
REMARK    6  A    between atoms: C_14  and  C_15
REMARK    7  A    between atoms: C_17  and  C_19
REMARK    8  A    between atoms: C_28  and  O_29
REMARK                            x       y       z     vdW  Elec       q    Type
REMARK                         _______ _______ _______ _____ _____    ______ ____
ROOT
ATOM      1  N   UNL     1       2.979   7.538  18.251  0.00  0.00    +0.000 N 
ATOM      2  C   UNL     1       2.180   8.696  18.308  0.00  0.00    +0.000 C 
ATOM      3  O   UNL     1       2.073   9.431  17.319  0.00  0.00    +0.000 OA
ENDROOT
BRANCH   2   4
ATOM      4  C   UNL     1       1.312   9.072  19.478  0.00  0.00    +0.000 A 
ATOM      5  C   UNL     1       1.532   8.348  20.663  0.00  0.00    +0.000 A 
ATOM      6  C   UNL     1       0.843   8.660  21.841  0.00  0.00    +0.000 A 
ATOM      7  C   UNL     1      -0.035   9.746  21.889  0.00  0.00    +0.000 A 
ATOM      8  C   UNL     1      -0.675  10.100  23.094  0.00  0.00    +0.000 A 
ATOM      9  C   UNL     1      -1.507  11.217  23.165  0.00  0.00    +0.000 A 
ATOM     10  C   UNL     1      -1.723  11.987  22.034  0.00  0.00    +0.000 A 
ATOM     11  C   UNL     1      -1.136  11.620  20.820  0.00  0.00    +0.000 A 
ATOM     12  C   UNL     1      -0.286  10.490  20.709  0.00  0.00    +0.000 A 
ATOM     13  C   UNL     1       0.333  10.071  19.495  0.00  0.00    +0.000 A 
BRANCH  13  14
ATOM     14  O   UNL     1      -0.085  10.595  18.298  0.00  0.00    +0.000 OA
ATOM     15  H   UNL     1       0.691  10.875  17.793  0.00  0.00    +0.000 HD
ENDBRANCH  13  14
ENDBRANCH   2   4
BRANCH   1  16
ATOM     16  C   UNL     1       3.492   7.141  16.930  0.00  0.00    +0.000 C 
BRANCH  16  22
ATOM     17  C   UNL     1       6.359   3.720  14.902  0.00  0.00    +0.000 C 
ATOM     18  C   UNL     1       6.236   4.910  15.811  0.00  0.00    +0.000 A 
ATOM     19  C   UNL     1       7.379   5.486  16.353  0.00  0.00    +0.000 A 
ATOM     20  C   UNL     1       7.236   6.573  17.207  0.00  0.00    +0.000 A 
ATOM     21  C   UNL     1       5.964   7.067  17.480  0.00  0.00    +0.000 A 
ATOM     22  C   UNL     1       4.856   6.469  16.883  0.00  0.00    +0.000 A 
ATOM     23  N   UNL     1       4.985   5.375  16.075  0.00  0.00    +0.000 NA
ENDBRANCH  16  22
ENDBRANCH   1  16
BRANCH   1  24
ATOM     24  C   UNL     1       3.223   6.568  19.330  0.00  0.00    +0.000 C 
BRANCH  24  25
ATOM     25  C   UNL     1       2.433   5.270  19.276  0.00  0.00    +0.000 A 
ATOM     26  C   UNL     1       1.932   4.820  18.055  0.00  0.00    +0.000 A 
ATOM     27  C   UNL     1       1.180   3.648  18.024  0.00  0.00    +0.000 A 
ATOM     28  C   UNL     1       0.968   2.940  19.202  0.00  0.00    +0.000 A 
ATOM     29  C   UNL     1       1.509   3.437  20.381  0.00  0.00    +0.000 A 
ATOM     30  C   UNL     1       1.391   2.670  21.662  0.00  0.00    +0.000 C 
ATOM     31  N   UNL     1       2.214   4.590  20.429  0.00  0.00    +0.000 NA
ENDBRANCH  24  25
ENDBRANCH   1  24
TORSDOF 6
ENDMDL
MODEL 5
REMARK VINA RESULT:      -8.7      0.805      1.281
REMARK  Name = 
REMARK  8 active torsions:
REMARK  status: ('A' for Active; 'I' for Inactive)
REMARK    1  A    between atoms: C_1  and  C_2
REMARK    2  A    between atoms: C_6  and  C_7
REMARK    3  A    between atoms: C_7  and  N_8
REMARK    4  A    between atoms: N_8  and  C_9
REMARK    5  A    between atoms: C_9  and  C_10
REMARK    6  A    between atoms: C_14  and  C_15
REMARK    7  A    between atoms: C_17  and  C_19
REMARK    8  A    between atoms: C_28  and  O_29
REMARK                            x       y       z     vdW  Elec       q    Type
REMARK                         _______ _______ _______ _____ _____    ______ ____
ROOT
ATOM      1  N   UNL     1       2.742   6.933  18.561  0.00  0.00    +0.000 N 
ATOM      2  C   UNL     1       2.114   8.190  18.449  0.00  0.00    +0.000 C 
ATOM      3  O   UNL     1       2.125   8.800  17.372  0.00  0.00    +0.000 OA
ENDROOT
BRANCH   2   4
ATOM      4  C   UNL     1       1.295   8.829  19.536  0.00  0.00    +0.000 A 
ATOM      5  C   UNL     1       1.463   8.296  20.826  0.00  0.00    +0.000 A 
ATOM      6  C   UNL     1       0.815   8.858  21.932  0.00  0.00    +0.000 A 
ATOM      7  C   UNL     1       0.035  10.009  21.795  0.00  0.00    +0.000 A 
ATOM      8  C   UNL     1      -0.560  10.613  22.920  0.00  0.00    +0.000 A 
ATOM      9  C   UNL     1      -1.291  11.794  22.800  0.00  0.00    +0.000 A 
ATOM     10  C   UNL     1      -1.451  12.381  21.555  0.00  0.00    +0.000 A 
ATOM     11  C   UNL     1      -0.911  11.768  20.422  0.00  0.00    +0.000 A 
ATOM     12  C   UNL     1      -0.162  10.566  20.506  0.00  0.00    +0.000 A 
ATOM     13  C   UNL     1       0.405   9.897  19.382  0.00  0.00    +0.000 A 
BRANCH  13  14
ATOM     14  O   UNL     1       0.023  10.249  18.112  0.00  0.00    +0.000 OA
ATOM     15  H   UNL     1      -0.556   9.560  17.758  0.00  0.00    +0.000 HD
ENDBRANCH  13  14
ENDBRANCH   2   4
BRANCH   1  16
ATOM     16  C   UNL     1       3.210   6.303  17.316  0.00  0.00    +0.000 C 
BRANCH  16  22
ATOM     17  C   UNL     1       6.880   4.401  14.680  0.00  0.00    +0.000 C 
ATOM     18  C   UNL     1       6.444   5.299  15.803  0.00  0.00    +0.000 A 
ATOM     19  C   UNL     1       7.381   6.093  16.455  0.00  0.00    +0.000 A 
ATOM     20  C   UNL     1       6.955   6.899  17.503  0.00  0.00    +0.000 A 
ATOM     21  C   UNL     1       5.609   6.908  17.858  0.00  0.00    +0.000 A 
ATOM     22  C   UNL     1       4.711   6.116  17.148  0.00  0.00    +0.000 A 
ATOM     23  N   UNL     1       5.127   5.289  16.144  0.00  0.00    +0.000 NA
ENDBRANCH  16  22
ENDBRANCH   1  16
BRANCH   1  24
ATOM     24  C   UNL     1       2.833   6.085  19.759  0.00  0.00    +0.000 C 
BRANCH  24  25
ATOM     25  C   UNL     1       2.352   4.649  19.621  0.00  0.00    +0.000 A 
ATOM     26  C   UNL     1       1.041   4.326  19.974  0.00  0.00    +0.000 A 
ATOM     27  C   UNL     1       0.623   3.001  19.875  0.00  0.00    +0.000 A 
ATOM     28  C   UNL     1       1.508   2.038  19.406  0.00  0.00    +0.000 A 
ATOM     29  C   UNL     1       2.794   2.431  19.058  0.00  0.00    +0.000 A 
ATOM     30  C   UNL     1       3.760   1.454  18.461  0.00  0.00    +0.000 C 
ATOM     31  N   UNL     1       3.222   3.708  19.178  0.00  0.00    +0.000 NA
ENDBRANCH  24  25
ENDBRANCH   1  24
TORSDOF 6
ENDMDL
MODEL 6
REMARK VINA RESULT:      -8.7      2.710      4.052
REMARK  Name = 
REMARK  8 active torsions:
REMARK  status: ('A' for Active; 'I' for Inactive)
REMARK    1  A    between atoms: C_1  and  C_2
REMARK    2  A    between atoms: C_6  and  C_7
REMARK    3  A    between atoms: C_7  and  N_8
REMARK    4  A    between atoms: N_8  and  C_9
REMARK    5  A    between atoms: C_9  and  C_10
REMARK    6  A    between atoms: C_14  and  C_15
REMARK    7  A    between atoms: C_17  and  C_19
REMARK    8  A    between atoms: C_28  and  O_29
REMARK                            x       y       z     vdW  Elec       q    Type
REMARK                         _______ _______ _______ _____ _____    ______ ____
ROOT
ATOM      1  N   UNL     1       4.903   4.345  16.911  0.00  0.00    +0.000 N 
ATOM      2  C   UNL     1       5.210   5.569  17.537  0.00  0.00    +0.000 C 
ATOM      3  O   UNL     1       6.384   5.955  17.612  0.00  0.00    +0.000 OA
ENDROOT
BRANCH   2   4
ATOM      4  C   UNL     1       4.184   6.547  18.040  0.00  0.00    +0.000 A 
ATOM      5  C   UNL     1       3.841   7.585  17.156  0.00  0.00    +0.000 A 
ATOM      6  C   UNL     1       2.841   8.510  17.480  0.00  0.00    +0.000 A 
ATOM      7  C   UNL     1       2.107   8.386  18.662  0.00  0.00    +0.000 A 
ATOM      8  C   UNL     1       1.055   9.277  18.953  0.00  0.00    +0.000 A 
ATOM      9  C   UNL     1       0.281   9.125  20.102  0.00  0.00    +0.000 A 
ATOM     10  C   UNL     1       0.553   8.092  20.984  0.00  0.00    +0.000 A 
ATOM     11  C   UNL     1       1.625   7.231  20.737  0.00  0.00    +0.000 A 
ATOM     12  C   UNL     1       2.435   7.355  19.579  0.00  0.00    +0.000 A 
ATOM     13  C   UNL     1       3.542   6.507  19.282  0.00  0.00    +0.000 A 
BRANCH  13  14
ATOM     14  O   UNL     1       4.050   5.680  20.252  0.00  0.00    +0.000 OA
ATOM     15  H   UNL     1       4.171   6.191  21.065  0.00  0.00    +0.000 HD
ENDBRANCH  13  14
ENDBRANCH   2   4
BRANCH   1  16
ATOM     16  C   UNL     1       5.988   3.673  16.180  0.00  0.00    +0.000 C 
BRANCH  16  22
ATOM     17  C   UNL     1       8.787   5.980  12.882  0.00  0.00    +0.000 C 
ATOM     18  C   UNL     1       7.622   5.073  13.158  0.00  0.00    +0.000 A 
ATOM     19  C   UNL     1       6.967   4.449  12.103  0.00  0.00    +0.000 A 
ATOM     20  C   UNL     1       5.880   3.632  12.385  0.00  0.00    +0.000 A 
ATOM     21  C   UNL     1       5.489   3.442  13.708  0.00  0.00    +0.000 A 
ATOM     22  C   UNL     1       6.203   4.069  14.726  0.00  0.00    +0.000 A 
ATOM     23  N   UNL     1       7.247   4.906  14.455  0.00  0.00    +0.000 NA
ENDBRANCH  16  22
ENDBRANCH   1  16
BRANCH   1  24
ATOM     24  C   UNL     1       3.573   3.737  16.747  0.00  0.00    +0.000 C 
BRANCH  24  25
ATOM     25  C   UNL     1       2.793   3.440  18.018  0.00  0.00    +0.000 A 
ATOM     26  C   UNL     1       1.433   3.744  18.077  0.00  0.00    +0.000 A 
ATOM     27  C   UNL     1       0.737   3.499  19.259  0.00  0.00    +0.000 A 
ATOM     28  C   UNL     1       1.405   2.936  20.341  0.00  0.00    +0.000 A 
ATOM     29  C   UNL     1       2.756   2.644  20.209  0.00  0.00    +0.000 A 
ATOM     30  C   UNL     1       3.503   1.954  21.308  0.00  0.00    +0.000 C 
ATOM     31  N   UNL     1       3.450   2.906  19.078  0.00  0.00    +0.000 NA
ENDBRANCH  24  25
ENDBRANCH   1  24
TORSDOF 6
ENDMDL
MODEL 7
REMARK VINA RESULT:      -8.6      0.636      1.161
REMARK  Name = 
REMARK  8 active torsions:
REMARK  status: ('A' for Active; 'I' for Inactive)
REMARK    1  A    between atoms: C_1  and  C_2
REMARK    2  A    between atoms: C_6  and  C_7
REMARK    3  A    between atoms: C_7  and  N_8
REMARK    4  A    between atoms: N_8  and  C_9
REMARK    5  A    between atoms: C_9  and  C_10
REMARK    6  A    between atoms: C_14  and  C_15
REMARK    7  A    between atoms: C_17  and  C_19
REMARK    8  A    between atoms: C_28  and  O_29
REMARK                            x       y       z     vdW  Elec       q    Type
REMARK                         _______ _______ _______ _____ _____    ______ ____
ROOT
ATOM      1  N   UNL     1       2.988   6.953  18.480  0.00  0.00    +0.000 N 
ATOM      2  C   UNL     1       2.263   8.156  18.370  0.00  0.00    +0.000 C 
ATOM      3  O   UNL     1       2.208   8.755  17.289  0.00  0.00    +0.000 OA
ENDROOT
BRANCH   2   4
ATOM      4  C   UNL     1       1.416   8.741  19.467  0.00  0.00    +0.000 A 
ATOM      5  C   UNL     1       1.562   8.151  20.735  0.00  0.00    +0.000 A 
ATOM      6  C   UNL     1       0.887   8.659  21.851  0.00  0.00    +0.000 A 
ATOM      7  C   UNL     1       0.102   9.810  21.750  0.00  0.00    +0.000 A 
ATOM      8  C   UNL     1      -0.521  10.360  22.888  0.00  0.00    +0.000 A 
ATOM      9  C   UNL     1      -1.258  11.540  22.806  0.00  0.00    +0.000 A 
ATOM     10  C   UNL     1      -1.396  12.182  21.586  0.00  0.00    +0.000 A 
ATOM     11  C   UNL     1      -0.828  11.623  20.438  0.00  0.00    +0.000 A 
ATOM     12  C   UNL     1      -0.073  10.423  20.483  0.00  0.00    +0.000 A 
ATOM     13  C   UNL     1       0.523   9.810  19.342  0.00  0.00    +0.000 A 
BRANCH  13  14
ATOM     14  O   UNL     1       0.165  10.216  18.082  0.00  0.00    +0.000 OA
ATOM     15  H   UNL     1      -0.737   9.916  17.902  0.00  0.00    +0.000 HD
ENDBRANCH  13  14
ENDBRANCH   2   4
BRANCH   1  16
ATOM     16  C   UNL     1       3.480   6.349  17.233  0.00  0.00    +0.000 C 
BRANCH  16  22
ATOM     17  C   UNL     1       7.891   8.412  17.804  0.00  0.00    +0.000 C 
ATOM     18  C   UNL     1       7.086   7.192  17.457  0.00  0.00    +0.000 A 
ATOM     19  C   UNL     1       7.728   5.977  17.247  0.00  0.00    +0.000 A 
ATOM     20  C   UNL     1       6.962   4.869  16.907  0.00  0.00    +0.000 A 
ATOM     21  C   UNL     1       5.579   4.996  16.807  0.00  0.00    +0.000 A 
ATOM     22  C   UNL     1       4.988   6.232  17.059  0.00  0.00    +0.000 A 
ATOM     23  N   UNL     1       5.737   7.335  17.353  0.00  0.00    +0.000 NA
ENDBRANCH  16  22
ENDBRANCH   1  16
BRANCH   1  24
ATOM     24  C   UNL     1       3.165   6.126  19.684  0.00  0.00    +0.000 C 
BRANCH  24  25
ATOM     25  C   UNL     1       3.073   4.619  19.500  0.00  0.00    +0.000 A 
ATOM     26  C   UNL     1       4.214   3.834  19.667  0.00  0.00    +0.000 A 
ATOM     27  C   UNL     1       4.124   2.459  19.462  0.00  0.00    +0.000 A 
ATOM     28  C   UNL     1       2.898   1.898  19.121  0.00  0.00    +0.000 A 
ATOM     29  C   UNL     1       1.799   2.735  18.986  0.00  0.00    +0.000 A 
ATOM     30  C   UNL     1       0.437   2.176  18.710  0.00  0.00    +0.000 C 
ATOM     31  N   UNL     1       1.880   4.076  19.151  0.00  0.00    +0.000 NA
ENDBRANCH  24  25
ENDBRANCH   1  24
TORSDOF 6
ENDMDL
MODEL 8
REMARK VINA RESULT:      -8.6      3.513      8.885
REMARK  Name = 
REMARK  8 active torsions:
REMARK  status: ('A' for Active; 'I' for Inactive)
REMARK    1  A    between atoms: C_1  and  C_2
REMARK    2  A    between atoms: C_6  and  C_7
REMARK    3  A    between atoms: C_7  and  N_8
REMARK    4  A    between atoms: N_8  and  C_9
REMARK    5  A    between atoms: C_9  and  C_10
REMARK    6  A    between atoms: C_14  and  C_15
REMARK    7  A    between atoms: C_17  and  C_19
REMARK    8  A    between atoms: C_28  and  O_29
REMARK                            x       y       z     vdW  Elec       q    Type
REMARK                         _______ _______ _______ _____ _____    ______ ____
ROOT
ATOM      1  N   UNL     1      -0.670  11.066  19.346  0.00  0.00    +0.000 N 
ATOM      2  C   UNL     1       0.693  10.794  19.578  0.00  0.00    +0.000 C 
ATOM      3  O   UNL     1       1.477  11.713  19.847  0.00  0.00    +0.000 OA
ENDROOT
BRANCH   2   4
ATOM      4  C   UNL     1       1.283   9.412  19.648  0.00  0.00    +0.000 A 
ATOM      5  C   UNL     1       1.106   8.730  20.865  0.00  0.00    +0.000 A 
ATOM      6  C   UNL     1       1.541   7.409  21.025  0.00  0.00    +0.000 A 
ATOM      7  C   UNL     1       2.101   6.706  19.955  0.00  0.00    +0.000 A 
ATOM      8  C   UNL     1       2.473   5.355  20.098  0.00  0.00    +0.000 A 
ATOM      9  C   UNL     1       2.979   4.630  19.020  0.00  0.00    +0.000 A 
ATOM     10  C   UNL     1       3.132   5.246  17.788  0.00  0.00    +0.000 A 
ATOM     11  C   UNL     1       2.815   6.598  17.642  0.00  0.00    +0.000 A 
ATOM     12  C   UNL     1       2.301   7.368  18.717  0.00  0.00    +0.000 A 
ATOM     13  C   UNL     1       1.966   8.750  18.623  0.00  0.00    +0.000 A 
BRANCH  13  14
ATOM     14  O   UNL     1       2.384   9.483  17.540  0.00  0.00    +0.000 OA
ATOM     15  H   UNL     1       3.231   9.131  17.233  0.00  0.00    +0.000 HD
ENDBRANCH  13  14
ENDBRANCH   2   4
BRANCH   1  16
ATOM     16  C   UNL     1      -1.142  12.427  19.643  0.00  0.00    +0.000 C 
BRANCH  16  22
ATOM     17  C   UNL     1      -5.499  13.043  21.806  0.00  0.00    +0.000 C 
ATOM     18  C   UNL     1      -4.024  12.801  21.950  0.00  0.00    +0.000 A 
ATOM     19  C   UNL     1      -3.488  12.527  23.203  0.00  0.00    +0.000 A 
ATOM     20  C   UNL     1      -2.118  12.327  23.311  0.00  0.00    +0.000 A 
ATOM     21  C   UNL     1      -1.323  12.384  22.169  0.00  0.00    +0.000 A 
ATOM     22  C   UNL     1      -1.920  12.631  20.935  0.00  0.00    +0.000 A 
ATOM     23  N   UNL     1      -3.260  12.869  20.826  0.00  0.00    +0.000 NA
ENDBRANCH  16  22
ENDBRANCH   1  16
BRANCH   1  24
ATOM     24  C   UNL     1      -1.727  10.100  19.007  0.00  0.00    +0.000 C 
BRANCH  24  25
ATOM     25  C   UNL     1      -2.561  10.403  17.771  0.00  0.00    +0.000 A 
ATOM     26  C   UNL     1      -2.151   9.917  16.529  0.00  0.00    +0.000 A 
ATOM     27  C   UNL     1      -2.904  10.229  15.400  0.00  0.00    +0.000 A 
ATOM     28  C   UNL     1      -4.056  10.995  15.537  0.00  0.00    +0.000 A 
ATOM     29  C   UNL     1      -4.415  11.434  16.805  0.00  0.00    +0.000 A 
ATOM     30  C   UNL     1      -5.693  12.183  17.025  0.00  0.00    +0.000 C 
ATOM     31  N   UNL     1      -3.675  11.163  17.905  0.00  0.00    +0.000 NA
ENDBRANCH  24  25
ENDBRANCH   1  24
TORSDOF 6
ENDMDL
MODEL 9
REMARK VINA RESULT:      -8.6      0.957      1.059
REMARK  Name = 
REMARK  8 active torsions:
REMARK  status: ('A' for Active; 'I' for Inactive)
REMARK    1  A    between atoms: C_1  and  C_2
REMARK    2  A    between atoms: C_6  and  C_7
REMARK    3  A    between atoms: C_7  and  N_8
REMARK    4  A    between atoms: N_8  and  C_9
REMARK    5  A    between atoms: C_9  and  C_10
REMARK    6  A    between atoms: C_14  and  C_15
REMARK    7  A    between atoms: C_17  and  C_19
REMARK    8  A    between atoms: C_28  and  O_29
REMARK                            x       y       z     vdW  Elec       q    Type
REMARK                         _______ _______ _______ _____ _____    ______ ____
ROOT
ATOM      1  N   UNL     1       2.529   6.876  18.750  0.00  0.00    +0.000 N 
ATOM      2  C   UNL     1       2.109   8.208  18.567  0.00  0.00    +0.000 C 
ATOM      3  O   UNL     1       2.356   8.802  17.510  0.00  0.00    +0.000 OA
ENDROOT
BRANCH   2   4
ATOM      4  C   UNL     1       1.248   8.968  19.539  0.00  0.00    +0.000 A 
ATOM      5  C   UNL     1       1.394   8.618  20.892  0.00  0.00    +0.000 A 
ATOM      6  C   UNL     1       0.706   9.309  21.897  0.00  0.00    +0.000 A 
ATOM      7  C   UNL     1      -0.095  10.410  21.588  0.00  0.00    +0.000 A 
ATOM      8  C   UNL     1      -0.732  11.146  22.607  0.00  0.00    +0.000 A 
ATOM      9  C   UNL     1      -1.485  12.282  22.312  0.00  0.00    +0.000 A 
ATOM     10  C   UNL     1      -1.625  12.691  20.995  0.00  0.00    +0.000 A 
ATOM     11  C   UNL     1      -1.043  11.944  19.968  0.00  0.00    +0.000 A 
ATOM     12  C   UNL     1      -0.271  10.783  20.231  0.00  0.00    +0.000 A 
ATOM     13  C   UNL     1       0.340   9.984  19.221  0.00  0.00    +0.000 A 
BRANCH  13  14
ATOM     14  O   UNL     1      -0.017  10.151  17.907  0.00  0.00    +0.000 OA
ATOM     15  H   UNL     1      -0.490  10.990  17.817  0.00  0.00    +0.000 HD
ENDBRANCH  13  14
ENDBRANCH   2   4
BRANCH   1  16
ATOM     16  C   UNL     1       3.068   6.175  17.574  0.00  0.00    +0.000 C 
BRANCH  16  22
ATOM     17  C   UNL     1       7.537   5.705  19.535  0.00  0.00    +0.000 C 
ATOM     18  C   UNL     1       6.692   5.864  18.303  0.00  0.00    +0.000 A 
ATOM     19  C   UNL     1       7.281   5.786  17.047  0.00  0.00    +0.000 A 
ATOM     20  C   UNL     1       6.481   5.957  15.924  0.00  0.00    +0.000 A 
ATOM     21  C   UNL     1       5.116   6.179  16.083  0.00  0.00    +0.000 A 
ATOM     22  C   UNL     1       4.575   6.215  17.366  0.00  0.00    +0.000 A 
ATOM     23  N   UNL     1       5.361   6.089  18.476  0.00  0.00    +0.000 NA
ENDBRANCH  16  22
ENDBRANCH   1  16
BRANCH   1  24
ATOM     24  C   UNL     1       2.331   6.033  19.940  0.00  0.00    +0.000 C 
BRANCH  24  25
ATOM     25  C   UNL     1       2.263   4.531  19.712  0.00  0.00    +0.000 A 
ATOM     26  C   UNL     1       1.071   3.955  19.272  0.00  0.00    +0.000 A 
ATOM     27  C   UNL     1       1.012   2.574  19.101  0.00  0.00    +0.000 A 
ATOM     28  C   UNL     1       2.144   1.805  19.347  0.00  0.00    +0.000 A 
ATOM     29  C   UNL     1       3.302   2.445  19.769  0.00  0.00    +0.000 A 
ATOM     30  C   UNL     1       4.575   1.680  19.961  0.00  0.00    +0.000 C 
ATOM     31  N   UNL     1       3.364   3.781  19.969  0.00  0.00    +0.000 NA
ENDBRANCH  24  25
ENDBRANCH   1  24
TORSDOF 6
ENDMDL
