MODEL 1
REMARK VINA RESULT:      -9.6      0.000      0.000
REMARK  Name = 
REMARK  4 active torsions:
REMARK  status: ('A' for Active; 'I' for Inactive)
REMARK    1  A    between atoms: C_2  and  C_20
REMARK    2  A    between atoms: N_3  and  C_4
REMARK    3  A    between atoms: C_8  and  C_9
REMARK    4  A    between atoms: C_23  and  N_24
REMARK                            x       y       z     vdW  Elec       q    Type
REMARK                         _______ _______ _______ _____ _____    ______ ____
ROOT
ATOM      1  C   UNL     1       1.878   5.766  20.572  0.00  0.00    +0.000 A 
ATOM      2  C   UNL     1       1.170   4.560  20.546  0.00  0.00    +0.000 A 
ATOM      3  C   UNL     1       1.793   3.379  20.163  0.00  0.00    +0.000 A 
ATOM      4  C   UNL     1       3.124   3.401  19.769  0.00  0.00    +0.000 A 
ATOM      5  C   UNL     1       3.821   4.613  19.666  0.00  0.00    +0.000 A 
ATOM      6  C   UNL     1       3.198   5.789  20.103  0.00  0.00    +0.000 A 
ENDROOT
BRANCH   5   7
ATOM      7  C   UNL     1       5.163   4.663  19.079  0.00  0.00    +0.000 A 
ATOM      8  N   UNL     1       6.301   4.698  19.745  0.00  0.00    +0.000 NA
ATOM      9  N   UNL     1       7.334   4.738  18.844  0.00  0.00    +0.000 NA
ATOM     10  C   UNL     1       6.826   4.756  17.630  0.00  0.00    +0.000 A 
ATOM     11  N   UNL     1       5.456   4.754  17.732  0.00  0.00    +0.000 N 
ATOM     12  C   UNL     1       4.496   4.871  16.651  0.00  0.00    +0.000 C 
ATOM     13  C   UNL     1       4.911   5.807  15.527  0.00  0.00    +0.000 C 
ATOM     14  C   UNL     1       5.877   5.171  14.535  0.00  0.00    +0.000 C 
ATOM     15  C   UNL     1       6.925   4.237  15.143  0.00  0.00    +0.000 C 
ATOM     16  C   UNL     1       7.623   4.815  16.369  0.00  0.00    +0.000 C 
ENDBRANCH   5   7
BRANCH   1  19
ATOM     17  O   UNL     1       1.866   8.416  19.295  0.00  0.00    +0.000 OA
ATOM     18  C   UNL     1       1.374   8.191  20.396  0.00  0.00    +0.000 C 
ATOM     19  N   UNL     1       1.310   6.967  21.042  0.00  0.00    +0.000 N 
ATOM     20  H   UNL     1       0.689   6.893  21.841  0.00  0.00    +0.000 HD
BRANCH  18  21
ATOM     21  C   UNL     1       0.727   9.325  21.096  0.00  0.00    +0.000 A 
ATOM     22  C   UNL     1       0.154   9.077  22.349  0.00  0.00    +0.000 A 
ATOM     23  C   UNL     1      -0.533  10.087  23.024  0.00  0.00    +0.000 A 
ATOM     24  C   UNL     1      -0.666  11.351  22.435  0.00  0.00    +0.000 A 
ATOM     25  C   UNL     1      -0.084  11.597  21.179  0.00  0.00    +0.000 A 
ATOM     26  C   UNL     1       0.611  10.587  20.508  0.00  0.00    +0.000 A 
BRANCH  24  27
ATOM     27  N   UNL     1      -1.414  12.378  23.072  0.00  0.00    +0.000 N 
ATOM     28  C   UNL     1      -2.764  12.395  23.357  0.00  0.00    +0.000 A 
ATOM     29  C   UNL     1      -3.048  13.620  23.911  0.00  0.00    +0.000 A 
ATOM     30  C   UNL     1      -1.812  14.280  23.947  0.00  0.00    +0.000 A 
ATOM     31  N   UNL     1      -0.820  13.536  23.462  0.00  0.00    +0.000 NA
ENDBRANCH  24  27
ENDBRANCH  18  21
ENDBRANCH   1  19
TORSDOF 4
ENDMDL
MODEL 2
REMARK VINA RESULT:      -9.0      5.933      8.255
REMARK  Name = 
REMARK  4 active torsions:
REMARK  status: ('A' for Active; 'I' for Inactive)
REMARK    1  A    between atoms: C_2  and  C_20
REMARK    2  A    between atoms: N_3  and  C_4
REMARK    3  A    between atoms: C_8  and  C_9
REMARK    4  A    between atoms: C_23  and  N_24
REMARK                            x       y       z     vdW  Elec       q    Type
REMARK                         _______ _______ _______ _____ _____    ______ ____
ROOT
ATOM      1  C   UNL     1       6.467   6.673  16.854  0.00  0.00    +0.000 A 
ATOM      2  C   UNL     1       6.424   6.176  15.548  0.00  0.00    +0.000 A 
ATOM      3  C   UNL     1       5.757   4.991  15.260  0.00  0.00    +0.000 A 
ATOM      4  C   UNL     1       5.153   4.277  16.286  0.00  0.00    +0.000 A 
ATOM      5  C   UNL     1       5.287   4.687  17.620  0.00  0.00    +0.000 A 
ATOM      6  C   UNL     1       5.919   5.907  17.891  0.00  0.00    +0.000 A 
ENDROOT
BRANCH   5   7
ATOM      7  C   UNL     1       4.811   3.843  18.719  0.00  0.00    +0.000 A 
ATOM      8  N   UNL     1       5.553   3.045  19.463  0.00  0.00    +0.000 NA
ATOM      9  N   UNL     1       4.743   2.428  20.384  0.00  0.00    +0.000 NA
ATOM     10  C   UNL     1       3.506   2.829  20.183  0.00  0.00    +0.000 A 
ATOM     11  N   UNL     1       3.495   3.690  19.113  0.00  0.00    +0.000 N 
ATOM     12  C   UNL     1       2.336   4.290  18.482  0.00  0.00    +0.000 C 
ATOM     13  C   UNL     1       1.111   3.392  18.411  0.00  0.00    +0.000 C 
ATOM     14  C   UNL     1       0.318   3.346  19.712  0.00  0.00    +0.000 C 
ATOM     15  C   UNL     1       1.155   3.355  20.993  0.00  0.00    +0.000 C 
ATOM     16  C   UNL     1       2.321   2.374  20.970  0.00  0.00    +0.000 C 
ENDBRANCH   5   7
BRANCH   1  19
ATOM     17  O   UNL     1       8.567   7.262  18.828  0.00  0.00    +0.000 OA
ATOM     18  C   UNL     1       8.020   8.120  18.143  0.00  0.00    +0.000 C 
ATOM     19  N   UNL     1       7.053   7.915  17.172  0.00  0.00    +0.000 N 
ATOM     20  H   UNL     1       6.852   8.686  16.544  0.00  0.00    +0.000 HD
BRANCH  18  21
ATOM     21  C   UNL     1       8.467   9.520  18.322  0.00  0.00    +0.000 A 
ATOM     22  C   UNL     1       7.938  10.490  17.462  0.00  0.00    +0.000 A 
ATOM     23  C   UNL     1       8.377  11.812  17.534  0.00  0.00    +0.000 A 
ATOM     24  C   UNL     1       9.366  12.168  18.459  0.00  0.00    +0.000 A 
ATOM     25  C   UNL     1       9.891  11.193  19.325  0.00  0.00    +0.000 A 
ATOM     26  C   UNL     1       9.444   9.870  19.258  0.00  0.00    +0.000 A 
BRANCH  24  27
ATOM     27  N   UNL     1       9.876  13.495  18.510  0.00  0.00    +0.000 N 
ATOM     28  C   UNL     1       9.672  14.448  19.486  0.00  0.00    +0.000 A 
ATOM     29  C   UNL     1      10.302  15.597  19.072  0.00  0.00    +0.000 A 
ATOM     30  C   UNL     1      10.881  15.252  17.843  0.00  0.00    +0.000 A 
ATOM     31  N   UNL     1      10.647  13.985  17.504  0.00  0.00    +0.000 NA
ENDBRANCH  24  27
ENDBRANCH  18  21
ENDBRANCH   1  19
TORSDOF 4
ENDMDL
MODEL 3
REMARK VINA RESULT:      -8.9      5.201      8.252
REMARK  Name = 
REMARK  4 active torsions:
REMARK  status: ('A' for Active; 'I' for Inactive)
REMARK    1  A    between atoms: C_2  and  C_20
REMARK    2  A    between atoms: N_3  and  C_4
REMARK    3  A    between atoms: C_8  and  C_9
REMARK    4  A    between atoms: C_23  and  N_24
REMARK                            x       y       z     vdW  Elec       q    Type
REMARK                         _______ _______ _______ _____ _____    ______ ____
ROOT
ATOM      1  C   UNL     1       6.583   6.148  16.438  0.00  0.00    +0.000 A 
ATOM      2  C   UNL     1       7.232   5.330  15.510  0.00  0.00    +0.000 A 
ATOM      3  C   UNL     1       6.638   4.158  15.058  0.00  0.00    +0.000 A 
ATOM      4  C   UNL     1       5.400   3.779  15.557  0.00  0.00    +0.000 A 
ATOM      5  C   UNL     1       4.784   4.515  16.579  0.00  0.00    +0.000 A 
ATOM      6  C   UNL     1       5.369   5.720  16.990  0.00  0.00    +0.000 A 
ENDROOT
BRANCH   5   7
ATOM      7  C   UNL     1       3.570   4.022  17.236  0.00  0.00    +0.000 A 
ATOM      8  N   UNL     1       2.790   3.052  16.799  0.00  0.00    +0.000 NA
ATOM      9  N   UNL     1       1.760   2.884  17.690  0.00  0.00    +0.000 NA
ATOM     10  C   UNL     1       1.898   3.769  18.655  0.00  0.00    +0.000 A 
ATOM     11  N   UNL     1       3.004   4.538  18.386  0.00  0.00    +0.000 N 
ATOM     12  C   UNL     1       3.469   5.694  19.127  0.00  0.00    +0.000 C 
ATOM     13  C   UNL     1       2.368   6.583  19.682  0.00  0.00    +0.000 C 
ATOM     14  C   UNL     1       1.762   6.058  20.978  0.00  0.00    +0.000 C 
ATOM     15  C   UNL     1       1.597   4.539  21.059  0.00  0.00    +0.000 C 
ATOM     16  C   UNL     1       0.969   3.923  19.814  0.00  0.00    +0.000 C 
ENDBRANCH   5   7
BRANCH   1  19
ATOM     17  O   UNL     1       8.224   6.752  18.804  0.00  0.00    +0.000 OA
ATOM     18  C   UNL     1       7.849   7.603  18.002  0.00  0.00    +0.000 C 
ATOM     19  N   UNL     1       7.108   7.389  16.851  0.00  0.00    +0.000 N 
ATOM     20  H   UNL     1       7.059   8.149  16.181  0.00  0.00    +0.000 HD
BRANCH  18  21
ATOM     21  C   UNL     1       8.272   9.001  18.248  0.00  0.00    +0.000 A 
ATOM     22  C   UNL     1       7.807   9.987  17.370  0.00  0.00    +0.000 A 
ATOM     23  C   UNL     1       8.230  11.310  17.505  0.00  0.00    +0.000 A 
ATOM     24  C   UNL     1       9.140  11.649  18.515  0.00  0.00    +0.000 A 
ATOM     25  C   UNL     1       9.601  10.656  19.398  0.00  0.00    +0.000 A 
ATOM     26  C   UNL     1       9.169   9.334  19.266  0.00  0.00    +0.000 A 
BRANCH  24  27
ATOM     27  N   UNL     1       9.635  12.977  18.635  0.00  0.00    +0.000 N 
ATOM     28  C   UNL     1      10.853  13.388  19.136  0.00  0.00    +0.000 A 
ATOM     29  C   UNL     1      10.858  14.762  19.118  0.00  0.00    +0.000 A 
ATOM     30  C   UNL     1       9.613  15.107  18.574  0.00  0.00    +0.000 A 
ATOM     31  N   UNL     1       8.877  14.041  18.263  0.00  0.00    +0.000 NA
ENDBRANCH  24  27
ENDBRANCH  18  21
ENDBRANCH   1  19
TORSDOF 4
ENDMDL
MODEL 4
REMARK VINA RESULT:      -8.8      0.643      1.259
REMARK  Name = 
REMARK  4 active torsions:
REMARK  status: ('A' for Active; 'I' for Inactive)
REMARK    1  A    between atoms: C_2  and  C_20
REMARK    2  A    between atoms: N_3  and  C_4
REMARK    3  A    between atoms: C_8  and  C_9
REMARK    4  A    between atoms: C_23  and  N_24
REMARK                            x       y       z     vdW  Elec       q    Type
REMARK                         _______ _______ _______ _____ _____    ______ ____
ROOT
ATOM      1  C   UNL     1       1.890   5.996  20.528  0.00  0.00    +0.000 A 
ATOM      2  C   UNL     1       1.166   4.803  20.599  0.00  0.00    +0.000 A 
ATOM      3  C   UNL     1       1.770   3.587  20.306  0.00  0.00    +0.000 A 
ATOM      4  C   UNL     1       3.099   3.559  19.907  0.00  0.00    +0.000 A 
ATOM      5  C   UNL     1       3.813   4.749  19.708  0.00  0.00    +0.000 A 
ATOM      6  C   UNL     1       3.208   5.965  20.055  0.00  0.00    +0.000 A 
ENDROOT
BRANCH   5   7
ATOM      7  C   UNL     1       5.153   4.735  19.115  0.00  0.00    +0.000 A 
ATOM      8  N   UNL     1       6.295   4.724  19.776  0.00  0.00    +0.000 NA
ATOM      9  N   UNL     1       7.324   4.711  18.869  0.00  0.00    +0.000 NA
ATOM     10  C   UNL     1       6.811   4.740  17.657  0.00  0.00    +0.000 A 
ATOM     11  N   UNL     1       5.443   4.800  17.766  0.00  0.00    +0.000 N 
ATOM     12  C   UNL     1       4.484   4.950  16.688  0.00  0.00    +0.000 C 
ATOM     13  C   UNL     1       4.934   5.856  15.554  0.00  0.00    +0.000 C 
ATOM     14  C   UNL     1       5.866   5.168  14.563  0.00  0.00    +0.000 C 
ATOM     15  C   UNL     1       6.875   4.194  15.175  0.00  0.00    +0.000 C 
ATOM     16  C   UNL     1       7.604   4.752  16.392  0.00  0.00    +0.000 C 
ENDBRANCH   5   7
BRANCH   1  19
ATOM     17  O   UNL     1       1.669   8.466  18.945  0.00  0.00    +0.000 OA
ATOM     18  C   UNL     1       1.302   8.373  20.112  0.00  0.00    +0.000 C 
ATOM     19  N   UNL     1       1.341   7.238  20.906  0.00  0.00    +0.000 N 
ATOM     20  H   UNL     1       0.811   7.256  21.771  0.00  0.00    +0.000 HD
BRANCH  18  21
ATOM     21  C   UNL     1       0.702   9.576  20.733  0.00  0.00    +0.000 A 
ATOM     22  C   UNL     1       0.977  10.819  20.151  0.00  0.00    +0.000 A 
ATOM     23  C   UNL     1       0.501  11.993  20.733  0.00  0.00    +0.000 A 
ATOM     24  C   UNL     1      -0.241  11.930  21.919  0.00  0.00    +0.000 A 
ATOM     25  C   UNL     1      -0.521  10.679  22.499  0.00  0.00    +0.000 A 
ATOM     26  C   UNL     1      -0.050   9.503  21.909  0.00  0.00    +0.000 A 
BRANCH  24  27
ATOM     27  N   UNL     1      -0.684  13.115  22.568  0.00  0.00    +0.000 N 
ATOM     28  C   UNL     1      -0.265  14.411  22.351  0.00  0.00    +0.000 A 
ATOM     29  C   UNL     1      -0.920  15.209  23.257  0.00  0.00    +0.000 A 
ATOM     30  C   UNL     1      -1.735  14.323  23.975  0.00  0.00    +0.000 A 
ATOM     31  N   UNL     1      -1.615  13.064  23.556  0.00  0.00    +0.000 NA
ENDBRANCH  24  27
ENDBRANCH  18  21
ENDBRANCH   1  19
TORSDOF 4
ENDMDL
MODEL 5
REMARK VINA RESULT:      -8.7      1.104      2.031
REMARK  Name = 
REMARK  4 active torsions:
REMARK  status: ('A' for Active; 'I' for Inactive)
REMARK    1  A    between atoms: C_2  and  C_20
REMARK    2  A    between atoms: N_3  and  C_4
REMARK    3  A    between atoms: C_8  and  C_9
REMARK    4  A    between atoms: C_23  and  N_24
REMARK                            x       y       z     vdW  Elec       q    Type
REMARK                         _______ _______ _______ _____ _____    ______ ____
ROOT
ATOM      1  C   UNL     1       1.490   5.070  20.454  0.00  0.00    +0.000 A 
ATOM      2  C   UNL     1       1.049   3.817  20.889  0.00  0.00    +0.000 A 
ATOM      3  C   UNL     1       1.706   2.657  20.496  0.00  0.00    +0.000 A 
ATOM      4  C   UNL     1       2.792   2.741  19.636  0.00  0.00    +0.000 A 
ATOM      5  C   UNL     1       3.177   3.972  19.086  0.00  0.00    +0.000 A 
ATOM      6  C   UNL     1       2.540   5.138  19.529  0.00  0.00    +0.000 A 
ENDROOT
BRANCH   5   7
ATOM      7  C   UNL     1       4.202   4.043  18.040  0.00  0.00    +0.000 A 
ATOM      8  N   UNL     1       4.243   3.311  16.943  0.00  0.00    +0.000 NA
ATOM      9  N   UNL     1       5.350   3.673  16.218  0.00  0.00    +0.000 NA
ATOM     10  C   UNL     1       5.998   4.604  16.886  0.00  0.00    +0.000 A 
ATOM     11  N   UNL     1       5.331   4.837  18.064  0.00  0.00    +0.000 N 
ATOM     12  C   UNL     1       5.745   5.708  19.147  0.00  0.00    +0.000 C 
ATOM     13  C   UNL     1       7.242   5.736  19.408  0.00  0.00    +0.000 C 
ATOM     14  C   UNL     1       8.006   6.645  18.451  0.00  0.00    +0.000 C 
ATOM     15  C   UNL     1       7.507   6.646  17.005  0.00  0.00    +0.000 C 
ATOM     16  C   UNL     1       7.267   5.251  16.439  0.00  0.00    +0.000 C 
ENDBRANCH   5   7
BRANCH   1  19
ATOM     17  O   UNL     1       2.252   7.834  19.796  0.00  0.00    +0.000 OA
ATOM     18  C   UNL     1       1.348   7.546  20.573  0.00  0.00    +0.000 C 
ATOM     19  N   UNL     1       0.910   6.274  20.902  0.00  0.00    +0.000 N 
ATOM     20  H   UNL     1       0.022   6.197  21.387  0.00  0.00    +0.000 HD
BRANCH  18  21
ATOM     21  C   UNL     1       0.599   8.666  21.189  0.00  0.00    +0.000 A 
ATOM     22  C   UNL     1       0.361   9.802  20.407  0.00  0.00    +0.000 A 
ATOM     23  C   UNL     1      -0.273  10.917  20.954  0.00  0.00    +0.000 A 
ATOM     24  C   UNL     1      -0.658  10.907  22.300  0.00  0.00    +0.000 A 
ATOM     25  C   UNL     1      -0.423   9.762  23.083  0.00  0.00    +0.000 A 
ATOM     26  C   UNL     1       0.205   8.642  22.530  0.00  0.00    +0.000 A 
BRANCH  24  27
ATOM     27  N   UNL     1      -1.249  12.053  22.900  0.00  0.00    +0.000 N 
ATOM     28  C   UNL     1      -2.568  12.241  23.258  0.00  0.00    +0.000 A 
ATOM     29  C   UNL     1      -2.682  13.525  23.734  0.00  0.00    +0.000 A 
ATOM     30  C   UNL     1      -1.382  14.044  23.649  0.00  0.00    +0.000 A 
ATOM     31  N   UNL     1      -0.509  13.161  23.167  0.00  0.00    +0.000 NA
ENDBRANCH  24  27
ENDBRANCH  18  21
ENDBRANCH   1  19
TORSDOF 4
ENDMDL
MODEL 6
REMARK VINA RESULT:      -8.6      2.844     11.289
REMARK  Name = 
REMARK  4 active torsions:
REMARK  status: ('A' for Active; 'I' for Inactive)
REMARK    1  A    between atoms: C_2  and  C_20
REMARK    2  A    between atoms: N_3  and  C_4
REMARK    3  A    between atoms: C_8  and  C_9
REMARK    4  A    between atoms: C_23  and  N_24
REMARK                            x       y       z     vdW  Elec       q    Type
REMARK                         _______ _______ _______ _____ _____    ______ ____
ROOT
ATOM      1  C   UNL     1      -0.586  12.056  21.857  0.00  0.00    +0.000 A 
ATOM      2  C   UNL     1      -0.028  13.333  21.959  0.00  0.00    +0.000 A 
ATOM      3  C   UNL     1      -0.698  14.349  22.630  0.00  0.00    +0.000 A 
ATOM      4  C   UNL     1      -1.950  14.103  23.175  0.00  0.00    +0.000 A 
ATOM      5  C   UNL     1      -2.587  12.869  22.980  0.00  0.00    +0.000 A 
ATOM      6  C   UNL     1      -1.881  11.838  22.346  0.00  0.00    +0.000 A 
ENDROOT
BRANCH   5   7
ATOM      7  C   UNL     1      -3.978  12.665  23.394  0.00  0.00    +0.000 A 
ATOM      8  N   UNL     1      -4.380  12.195  24.560  0.00  0.00    +0.000 NA
ATOM      9  N   UNL     1      -5.751  12.154  24.565  0.00  0.00    +0.000 NA
ATOM     10  C   UNL     1      -6.183  12.571  23.394  0.00  0.00    +0.000 A 
ATOM     11  N   UNL     1      -5.095  12.863  22.607  0.00  0.00    +0.000 N 
ATOM     12  C   UNL     1      -5.103  13.257  21.212  0.00  0.00    +0.000 C 
ATOM     13  C   UNL     1      -6.165  12.577  20.362  0.00  0.00    +0.000 C 
ATOM     14  C   UNL     1      -7.545  13.209  20.498  0.00  0.00    +0.000 C 
ATOM     15  C   UNL     1      -7.916  13.684  21.904  0.00  0.00    +0.000 C 
ATOM     16  C   UNL     1      -7.619  12.661  22.994  0.00  0.00    +0.000 C 
ENDBRANCH   5   7
BRANCH   1  19
ATOM     17  O   UNL     1      -0.128  11.507  19.003  0.00  0.00    +0.000 OA
ATOM     18  C   UNL     1       0.247  10.766  19.905  0.00  0.00    +0.000 C 
ATOM     19  N   UNL     1       0.100  10.975  21.267  0.00  0.00    +0.000 N 
ATOM     20  H   UNL     1       0.645  10.388  21.890  0.00  0.00    +0.000 HD
BRANCH  18  21
ATOM     21  C   UNL     1       0.985   9.542  19.516  0.00  0.00    +0.000 A 
ATOM     22  C   UNL     1       1.243   8.591  20.511  0.00  0.00    +0.000 A 
ATOM     23  C   UNL     1       1.997   7.453  20.222  0.00  0.00    +0.000 A 
ATOM     24  C   UNL     1       2.514   7.270  18.934  0.00  0.00    +0.000 A 
ATOM     25  C   UNL     1       2.248   8.224  17.936  0.00  0.00    +0.000 A 
ATOM     26  C   UNL     1       1.485   9.359  18.225  0.00  0.00    +0.000 A 
BRANCH  24  27
ATOM     27  N   UNL     1       3.338   6.152  18.630  0.00  0.00    +0.000 N 
ATOM     28  C   UNL     1       3.989   5.871  17.446  0.00  0.00    +0.000 A 
ATOM     29  C   UNL     1       4.604   4.652  17.598  0.00  0.00    +0.000 A 
ATOM     30  C   UNL     1       4.294   4.268  18.910  0.00  0.00    +0.000 A 
ATOM     31  N   UNL     1       3.549   5.171  19.546  0.00  0.00    +0.000 NA
ENDBRANCH  24  27
ENDBRANCH  18  21
ENDBRANCH   1  19
TORSDOF 4
ENDMDL
MODEL 7
REMARK VINA RESULT:      -8.3      3.600     10.843
REMARK  Name = 
REMARK  4 active torsions:
REMARK  status: ('A' for Active; 'I' for Inactive)
REMARK    1  A    between atoms: C_2  and  C_20
REMARK    2  A    between atoms: N_3  and  C_4
REMARK    3  A    between atoms: C_8  and  C_9
REMARK    4  A    between atoms: C_23  and  N_24
REMARK                            x       y       z     vdW  Elec       q    Type
REMARK                         _______ _______ _______ _____ _____    ______ ____
ROOT
ATOM      1  C   UNL     1       0.184  10.487  19.264  0.00  0.00    +0.000 A 
ATOM      2  C   UNL     1       0.800  11.690  19.621  0.00  0.00    +0.000 A 
ATOM      3  C   UNL     1       0.076  12.876  19.652  0.00  0.00    +0.000 A 
ATOM      4  C   UNL     1      -1.264  12.872  19.293  0.00  0.00    +0.000 A 
ATOM      5  C   UNL     1      -1.874  11.705  18.812  0.00  0.00    +0.000 A 
ATOM      6  C   UNL     1      -1.149  10.506  18.833  0.00  0.00    +0.000 A 
ENDROOT
BRANCH   5   7
ATOM      7  C   UNL     1      -3.232  11.736  18.261  0.00  0.00    +0.000 A 
ATOM      8  N   UNL     1      -3.557  11.598  16.989  0.00  0.00    +0.000 NA
ATOM      9  N   UNL     1      -4.922  11.683  16.876  0.00  0.00    +0.000 NA
ATOM     10  C   UNL     1      -5.425  11.900  18.072  0.00  0.00    +0.000 A 
ATOM     11  N   UNL     1      -4.390  11.985  18.971  0.00  0.00    +0.000 N 
ATOM     12  C   UNL     1      -4.478  12.314  20.380  0.00  0.00    +0.000 C 
ATOM     13  C   UNL     1      -5.525  13.360  20.728  0.00  0.00    +0.000 C 
ATOM     14  C   UNL     1      -6.937  12.793  20.823  0.00  0.00    +0.000 C 
ATOM     15  C   UNL     1      -7.283  11.712  19.797  0.00  0.00    +0.000 C 
ATOM     16  C   UNL     1      -6.878  12.069  18.371  0.00  0.00    +0.000 C 
ENDBRANCH   5   7
BRANCH   1  19
ATOM     17  O   UNL     1       2.258   9.456  17.450  0.00  0.00    +0.000 OA
ATOM     18  C   UNL     1       1.805   8.818  18.395  0.00  0.00    +0.000 C 
ATOM     19  N   UNL     1       0.858   9.250  19.310  0.00  0.00    +0.000 N 
ATOM     20  H   UNL     1       0.740   8.699  20.154  0.00  0.00    +0.000 HD
BRANCH  18  21
ATOM     21  C   UNL     1       2.358   7.464  18.629  0.00  0.00    +0.000 A 
ATOM     22  C   UNL     1       3.070   6.860  17.586  0.00  0.00    +0.000 A 
ATOM     23  C   UNL     1       3.550   5.558  17.720  0.00  0.00    +0.000 A 
ATOM     24  C   UNL     1       3.304   4.843  18.899  0.00  0.00    +0.000 A 
ATOM     25  C   UNL     1       2.594   5.455  19.947  0.00  0.00    +0.000 A 
ATOM     26  C   UNL     1       2.120   6.764  19.814  0.00  0.00    +0.000 A 
BRANCH  24  27
ATOM     27  N   UNL     1       3.729   3.493  19.037  0.00  0.00    +0.000 N 
ATOM     28  C   UNL     1       3.264   2.382  18.364  0.00  0.00    +0.000 A 
ATOM     29  C   UNL     1       3.919   1.290  18.878  0.00  0.00    +0.000 A 
ATOM     30  C   UNL     1       4.780   1.825  19.847  0.00  0.00    +0.000 A 
ATOM     31  N   UNL     1       4.687   3.151  19.938  0.00  0.00    +0.000 NA
ENDBRANCH  24  27
ENDBRANCH  18  21
ENDBRANCH   1  19
TORSDOF 4
ENDMDL
MODEL 8
REMARK VINA RESULT:      -8.3      2.985     10.292
REMARK  Name = 
REMARK  4 active torsions:
REMARK  status: ('A' for Active; 'I' for Inactive)
REMARK    1  A    between atoms: C_2  and  C_20
REMARK    2  A    between atoms: N_3  and  C_4
REMARK    3  A    between atoms: C_8  and  C_9
REMARK    4  A    between atoms: C_23  and  N_24
REMARK                            x       y       z     vdW  Elec       q    Type
REMARK                         _______ _______ _______ _____ _____    ______ ____
ROOT
ATOM      1  C   UNL     1       1.833   8.146  19.475  0.00  0.00    +0.000 A 
ATOM      2  C   UNL     1       1.711   7.674  20.785  0.00  0.00    +0.000 A 
ATOM      3  C   UNL     1       0.856   8.297  21.687  0.00  0.00    +0.000 A 
ATOM      4  C   UNL     1       0.141   9.419  21.293  0.00  0.00    +0.000 A 
ATOM      5  C   UNL     1       0.338   9.986  20.026  0.00  0.00    +0.000 A 
ATOM      6  C   UNL     1       1.164   9.321  19.110  0.00  0.00    +0.000 A 
ENDROOT
BRANCH   5   7
ATOM      7  C   UNL     1      -0.274  11.270  19.671  0.00  0.00    +0.000 A 
ATOM      8  N   UNL     1      -1.562  11.492  19.492  0.00  0.00    +0.000 NA
ATOM      9  N   UNL     1      -1.736  12.815  19.174  0.00  0.00    +0.000 NA
ATOM     10  C   UNL     1      -0.554  13.392  19.132  0.00  0.00    +0.000 A 
ATOM     11  N   UNL     1       0.403  12.442  19.397  0.00  0.00    +0.000 N 
ATOM     12  C   UNL     1       1.842  12.613  19.356  0.00  0.00    +0.000 C 
ATOM     13  C   UNL     1       2.345  13.532  18.254  0.00  0.00    +0.000 C 
ATOM     14  C   UNL     1       2.229  15.012  18.601  0.00  0.00    +0.000 C 
ATOM     15  C   UNL     1       0.973  15.409  19.380  0.00  0.00    +0.000 C 
ATOM     16  C   UNL     1      -0.313  14.828  18.804  0.00  0.00    +0.000 C 
ENDBRANCH   5   7
BRANCH   1  19
ATOM     17  O   UNL     1       3.306   5.610  19.712  0.00  0.00    +0.000 OA
ATOM     18  C   UNL     1       3.312   6.307  18.702  0.00  0.00    +0.000 C 
ATOM     19  N   UNL     1       2.617   7.490  18.505  0.00  0.00    +0.000 N 
ATOM     20  H   UNL     1       2.549   7.838  17.554  0.00  0.00    +0.000 HD
BRANCH  18  21
ATOM     21  C   UNL     1       4.095   5.818  17.543  0.00  0.00    +0.000 A 
ATOM     22  C   UNL     1       4.706   6.771  16.719  0.00  0.00    +0.000 A 
ATOM     23  C   UNL     1       5.394   6.375  15.572  0.00  0.00    +0.000 A 
ATOM     24  C   UNL     1       5.458   5.018  15.233  0.00  0.00    +0.000 A 
ATOM     25  C   UNL     1       4.848   4.063  16.066  0.00  0.00    +0.000 A 
ATOM     26  C   UNL     1       4.167   4.461  17.220  0.00  0.00    +0.000 A 
BRANCH  24  27
ATOM     27  N   UNL     1       6.099   4.594  14.036  0.00  0.00    +0.000 N 
ATOM     28  C   UNL     1       5.724   3.575  13.186  0.00  0.00    +0.000 A 
ATOM     29  C   UNL     1       6.682   3.489  12.205  0.00  0.00    +0.000 A 
ATOM     30  C   UNL     1       7.595   4.504  12.521  0.00  0.00    +0.000 A 
ATOM     31  N   UNL     1       7.244   5.187  13.610  0.00  0.00    +0.000 NA
ENDBRANCH  24  27
ENDBRANCH  18  21
ENDBRANCH   1  19
TORSDOF 4
ENDMDL
MODEL 9
REMARK VINA RESULT:      -8.3      2.727     11.595
REMARK  Name = 
REMARK  4 active torsions:
REMARK  status: ('A' for Active; 'I' for Inactive)
REMARK    1  A    between atoms: C_2  and  C_20
REMARK    2  A    between atoms: N_3  and  C_4
REMARK    3  A    between atoms: C_8  and  C_9
REMARK    4  A    between atoms: C_23  and  N_24
REMARK                            x       y       z     vdW  Elec       q    Type
REMARK                         _______ _______ _______ _____ _____    ______ ____
ROOT
ATOM      1  C   UNL     1      -0.426  12.452  21.944  0.00  0.00    +0.000 A 
ATOM      2  C   UNL     1       0.037  13.768  22.025  0.00  0.00    +0.000 A 
ATOM      3  C   UNL     1      -0.661  14.723  22.754  0.00  0.00    +0.000 A 
ATOM      4  C   UNL     1      -1.848  14.375  23.382  0.00  0.00    +0.000 A 
ATOM      5  C   UNL     1      -2.400  13.096  23.215  0.00  0.00    +0.000 A 
ATOM      6  C   UNL     1      -1.662  12.129  22.520  0.00  0.00    +0.000 A 
ENDROOT
BRANCH   5   7
ATOM      7  C   UNL     1      -3.738  12.780  23.722  0.00  0.00    +0.000 A 
ATOM      8  N   UNL     1      -4.031  11.852  24.613  0.00  0.00    +0.000 NA
ATOM      9  N   UNL     1      -5.386  11.864  24.827  0.00  0.00    +0.000 NA
ATOM     10  C   UNL     1      -5.921  12.779  24.047  0.00  0.00    +0.000 A 
ATOM     11  N   UNL     1      -4.921  13.353  23.299  0.00  0.00    +0.000 N 
ATOM     12  C   UNL     1      -5.070  14.333  22.241  0.00  0.00    +0.000 C 
ATOM     13  C   UNL     1      -6.301  14.148  21.368  0.00  0.00    +0.000 C 
ATOM     14  C   UNL     1      -7.576  14.703  21.995  0.00  0.00    +0.000 C 
ATOM     15  C   UNL     1      -7.705  14.508  23.506  0.00  0.00    +0.000 C 
ATOM     16  C   UNL     1      -7.379  13.093  23.971  0.00  0.00    +0.000 C 
ENDBRANCH   5   7
BRANCH   1  19
ATOM     17  O   UNL     1      -1.033  11.100  19.403  0.00  0.00    +0.000 OA
ATOM     18  C   UNL     1      -0.069  10.819  20.108  0.00  0.00    +0.000 C 
ATOM     19  N   UNL     1       0.299  11.433  21.294  0.00  0.00    +0.000 N 
ATOM     20  H   UNL     1       1.229  11.239  21.650  0.00  0.00    +0.000 HD
BRANCH  18  21
ATOM     21  C   UNL     1       0.836   9.750  19.627  0.00  0.00    +0.000 A 
ATOM     22  C   UNL     1       1.215   9.772  18.279  0.00  0.00    +0.000 A 
ATOM     23  C   UNL     1       2.005   8.751  17.750  0.00  0.00    +0.000 A 
ATOM     24  C   UNL     1       2.406   7.688  18.568  0.00  0.00    +0.000 A 
ATOM     25  C   UNL     1       2.028   7.671  19.923  0.00  0.00    +0.000 A 
ATOM     26  C   UNL     1       1.244   8.699  20.453  0.00  0.00    +0.000 A 
BRANCH  24  27
ATOM     27  N   UNL     1       3.159   6.603  18.040  0.00  0.00    +0.000 N 
ATOM     28  C   UNL     1       4.357   6.651  17.357  0.00  0.00    +0.000 A 
ATOM     29  C   UNL     1       4.664   5.366  16.982  0.00  0.00    +0.000 A 
ATOM     30  C   UNL     1       3.611   4.593  17.493  0.00  0.00    +0.000 A 
ATOM     31  N   UNL     1       2.710   5.325  18.146  0.00  0.00    +0.000 NA
ENDBRANCH  24  27
ENDBRANCH  18  21
ENDBRANCH   1  19
TORSDOF 4
ENDMDL
