MODEL 1
REMARK VINA RESULT:      -8.6      0.000      0.000
REMARK  Name = 
REMARK  4 active torsions:
REMARK  status: ('A' for Active; 'I' for Inactive)
REMARK    1  A    between atoms: C_2  and  C_3
REMARK    2  A    between atoms: C_3  and  N_4
REMARK    3  A    between atoms: C_8  and  C_9
REMARK    4  A    between atoms: N_19  and  C_20
REMARK                            x       y       z     vdW  Elec       q    Type
REMARK                         _______ _______ _______ _____ _____    ______ ____
ROOT
ATOM      1  O   UNL     1       7.632   9.321  17.153  0.00  0.00    +0.000 OA
ATOM      2  C   UNL     1       8.185   8.685  18.048  0.00  0.00    +0.000 C 
ATOM      3  N   UNL     1       9.078   9.207  18.970  0.00  0.00    +0.000 N 
ATOM      4  H   UNL     1       9.575   8.519  19.527  0.00  0.00    +0.000 HD
ENDROOT
BRANCH   3   5
ATOM      5  C   UNL     1       9.308  10.579  19.230  0.00  0.00    +0.000 A 
ATOM      6  C   UNL     1       9.496  11.072  20.546  0.00  0.00    +0.000 A 
ATOM      7  C   UNL     1       9.759  12.424  20.807  0.00  0.00    +0.000 A 
ATOM      8  C   UNL     1       9.825  13.254  19.720  0.00  0.00    +0.000 A 
ATOM      9  N   UNL     1      10.066  14.622  19.666  0.00  0.00    +0.000 N 
ATOM     10  C   UNL     1      10.035  15.030  18.327  0.00  0.00    +0.000 A 
ATOM     11  O   UNL     1      10.202  16.161  17.906  0.00  0.00    +0.000 OA
ATOM     12  N   UNL     1       9.772  13.880  17.563  0.00  0.00    +0.000 N 
ATOM     13  C   UNL     1       9.646  12.788  18.420  0.00  0.00    +0.000 A 
ATOM     14  C   UNL     1       9.395  11.460  18.139  0.00  0.00    +0.000 A 
ATOM     15  H   UNL     1      10.235  15.242  20.442  0.00  0.00    +0.000 HD
ATOM     16  H   UNL     1       9.689  13.888  16.560  0.00  0.00    +0.000 HD
ENDBRANCH   3   5
BRANCH   2  17
ATOM     17  C   UNL     1       7.953   7.172  18.147  0.00  0.00    +0.000 C 
BRANCH  17  18
ATOM     18  N   UNL     1       6.890   6.650  17.245  0.00  0.00    +0.000 NA
ATOM     19  C   UNL     1       7.431   5.648  16.301  0.00  0.00    +0.000 C 
ATOM     20  C   UNL     1       6.322   5.153  15.373  0.00  0.00    +0.000 C 
ATOM     21  C   UNL     1       5.196   4.493  16.161  0.00  0.00    +0.000 C 
ATOM     22  C   UNL     1       4.686   5.424  17.270  0.00  0.00    +0.000 C 
ATOM     23  C   UNL     1       5.862   5.983  18.096  0.00  0.00    +0.000 C 
BRANCH  22  24
ATOM     24  C   UNL     1       3.711   4.698  18.166  0.00  0.00    +0.000 A 
ATOM     25  N   UNL     1       3.863   4.551  19.466  0.00  0.00    +0.000 NA
ATOM     26  C   UNL     1       2.796   3.837  19.994  0.00  0.00    +0.000 A 
ATOM     27  C   UNL     1       2.621   3.484  21.347  0.00  0.00    +0.000 A 
ATOM     28  C   UNL     1       1.484   2.768  21.741  0.00  0.00    +0.000 A 
ATOM     29  C   UNL     1       0.525   2.399  20.804  0.00  0.00    +0.000 A 
ATOM     30  C   UNL     1       0.678   2.731  19.453  0.00  0.00    +0.000 A 
ATOM     31  C   UNL     1       1.823   3.451  19.070  0.00  0.00    +0.000 A 
ATOM     32  S   UNL     1       2.288   3.998  17.506  0.00  0.00    +0.000 S 
ENDBRANCH  22  24
ENDBRANCH  17  18
ENDBRANCH   2  17
TORSDOF 4
ENDMDL
MODEL 2
REMARK VINA RESULT:      -8.5      3.917     10.256
REMARK  Name = 
REMARK  4 active torsions:
REMARK  status: ('A' for Active; 'I' for Inactive)
REMARK    1  A    between atoms: C_2  and  C_3
REMARK    2  A    between atoms: C_3  and  N_4
REMARK    3  A    between atoms: C_8  and  C_9
REMARK    4  A    between atoms: N_19  and  C_20
REMARK                            x       y       z     vdW  Elec       q    Type
REMARK                         _______ _______ _______ _____ _____    ______ ____
ROOT
ATOM      1  O   UNL     1       8.588   7.771  18.825  0.00  0.00    +0.000 OA
ATOM      2  C   UNL     1       8.022   8.471  17.988  0.00  0.00    +0.000 C 
ATOM      3  N   UNL     1       7.134   8.013  17.028  0.00  0.00    +0.000 N 
ATOM      4  H   UNL     1       6.892   8.687  16.307  0.00  0.00    +0.000 HD
ENDROOT
BRANCH   3   5
ATOM      5  C   UNL     1       6.511   6.743  16.999  0.00  0.00    +0.000 A 
ATOM      6  C   UNL     1       7.240   5.554  16.740  0.00  0.00    +0.000 A 
ATOM      7  C   UNL     1       6.634   4.291  16.745  0.00  0.00    +0.000 A 
ATOM      8  C   UNL     1       5.292   4.257  17.013  0.00  0.00    +0.000 A 
ATOM      9  N   UNL     1       4.432   3.168  17.085  0.00  0.00    +0.000 N 
ATOM     10  C   UNL     1       3.145   3.632  17.386  0.00  0.00    +0.000 A 
ATOM     11  O   UNL     1       2.140   2.957  17.523  0.00  0.00    +0.000 OA
ATOM     12  N   UNL     1       3.239   5.029  17.499  0.00  0.00    +0.000 N 
ATOM     13  C   UNL     1       4.559   5.413  17.273  0.00  0.00    +0.000 A 
ATOM     14  C   UNL     1       5.137   6.667  17.283  0.00  0.00    +0.000 A 
ATOM     15  H   UNL     1       4.664   2.198  16.945  0.00  0.00    +0.000 HD
ATOM     16  H   UNL     1       2.453   5.622  17.706  0.00  0.00    +0.000 HD
ENDBRANCH   3   5
BRANCH   2  17
ATOM     17  C   UNL     1       8.348   9.968  17.916  0.00  0.00    +0.000 C 
BRANCH  17  18
ATOM     18  N   UNL     1       9.507  10.388  18.749  0.00  0.00    +0.000 NA
ATOM     19  C   UNL     1      10.473  11.185  17.963  0.00  0.00    +0.000 C 
ATOM     20  C   UNL     1      11.663  11.577  18.841  0.00  0.00    +0.000 C 
ATOM     21  C   UNL     1      11.218  12.421  20.030  0.00  0.00    +0.000 C 
ATOM     22  C   UNL     1      10.097  11.719  20.809  0.00  0.00    +0.000 C 
ATOM     23  C   UNL     1       8.984  11.243  19.854  0.00  0.00    +0.000 C 
BRANCH  22  24
ATOM     24  C   UNL     1       9.528  12.637  21.864  0.00  0.00    +0.000 A 
ATOM     25  N   UNL     1       8.841  12.231  22.911  0.00  0.00    +0.000 NA
ATOM     26  C   UNL     1       8.461  13.318  23.685  0.00  0.00    +0.000 A 
ATOM     27  C   UNL     1       7.709  13.269  24.877  0.00  0.00    +0.000 A 
ATOM     28  C   UNL     1       7.408  14.451  25.563  0.00  0.00    +0.000 A 
ATOM     29  C   UNL     1       7.844  15.679  25.075  0.00  0.00    +0.000 A 
ATOM     30  C   UNL     1       8.585  15.756  23.891  0.00  0.00    +0.000 A 
ATOM     31  C   UNL     1       8.883  14.562  23.212  0.00  0.00    +0.000 A 
ATOM     32  S   UNL     1       9.763  14.335  21.750  0.00  0.00    +0.000 S 
ENDBRANCH  22  24
ENDBRANCH  17  18
ENDBRANCH   2  17
TORSDOF 4
ENDMDL
MODEL 3
REMARK VINA RESULT:      -8.5      6.836      9.080
REMARK  Name = 
REMARK  4 active torsions:
REMARK  status: ('A' for Active; 'I' for Inactive)
REMARK    1  A    between atoms: C_2  and  C_3
REMARK    2  A    between atoms: C_3  and  N_4
REMARK    3  A    between atoms: C_8  and  C_9
REMARK    4  A    between atoms: N_19  and  C_20
REMARK                            x       y       z     vdW  Elec       q    Type
REMARK                         _______ _______ _______ _____ _____    ______ ____
ROOT
ATOM      1  O   UNL     1       1.956   5.108  19.177  0.00  0.00    +0.000 OA
ATOM      2  C   UNL     1       2.432   6.126  19.675  0.00  0.00    +0.000 C 
ATOM      3  N   UNL     1       3.758   6.518  19.584  0.00  0.00    +0.000 N 
ATOM      4  H   UNL     1       4.024   7.286  20.194  0.00  0.00    +0.000 HD
ENDROOT
BRANCH   3   5
ATOM      5  C   UNL     1       4.730   5.991  18.702  0.00  0.00    +0.000 A 
ATOM      6  C   UNL     1       5.720   5.073  19.136  0.00  0.00    +0.000 A 
ATOM      7  C   UNL     1       6.663   4.522  18.258  0.00  0.00    +0.000 A 
ATOM      8  C   UNL     1       6.585   4.917  16.950  0.00  0.00    +0.000 A 
ATOM      9  N   UNL     1       7.372   4.546  15.866  0.00  0.00    +0.000 N 
ATOM     10  C   UNL     1       6.910   5.216  14.726  0.00  0.00    +0.000 A 
ATOM     11  O   UNL     1       7.363   5.134  13.598  0.00  0.00    +0.000 OA
ATOM     12  N   UNL     1       5.820   6.001  15.137  0.00  0.00    +0.000 N 
ATOM     13  C   UNL     1       5.619   5.815  16.504  0.00  0.00    +0.000 A 
ATOM     14  C   UNL     1       4.674   6.363  17.348  0.00  0.00    +0.000 A 
ATOM     15  H   UNL     1       8.153   3.910  15.869  0.00  0.00    +0.000 HD
ATOM     16  H   UNL     1       5.298   6.595  14.514  0.00  0.00    +0.000 HD
ENDBRANCH   3   5
BRANCH   2  17
ATOM     17  C   UNL     1       1.540   7.030  20.534  0.00  0.00    +0.000 C 
BRANCH  17  18
ATOM     18  N   UNL     1       1.605   8.476  20.184  0.00  0.00    +0.000 NA
ATOM     19  C   UNL     1       1.458   8.683  18.727  0.00  0.00    +0.000 C 
ATOM     20  C   UNL     1       1.556  10.174  18.401  0.00  0.00    +0.000 C 
ATOM     21  C   UNL     1       0.458  10.967  19.100  0.00  0.00    +0.000 C 
ATOM     22  C   UNL     1       0.450  10.677  20.607  0.00  0.00    +0.000 C 
ATOM     23  C   UNL     1       0.471   9.159  20.871  0.00  0.00    +0.000 C 
BRANCH  22  24
ATOM     24  C   UNL     1      -0.753  11.310  21.263  0.00  0.00    +0.000 A 
ATOM     25  N   UNL     1      -1.627  12.072  20.638  0.00  0.00    +0.000 NA
ATOM     26  C   UNL     1      -2.610  12.496  21.521  0.00  0.00    +0.000 A 
ATOM     27  C   UNL     1      -3.704  13.329  21.210  0.00  0.00    +0.000 A 
ATOM     28  C   UNL     1      -4.630  13.667  22.204  0.00  0.00    +0.000 A 
ATOM     29  C   UNL     1      -4.477  13.188  23.501  0.00  0.00    +0.000 A 
ATOM     30  C   UNL     1      -3.396  12.366  23.838  0.00  0.00    +0.000 A 
ATOM     31  C   UNL     1      -2.474  12.032  22.831  0.00  0.00    +0.000 A 
ATOM     32  S   UNL     1      -1.062  11.054  22.934  0.00  0.00    +0.000 S 
ENDBRANCH  22  24
ENDBRANCH  17  18
ENDBRANCH   2  17
TORSDOF 4
ENDMDL
MODEL 4
REMARK VINA RESULT:      -8.4      3.245      3.723
REMARK  Name = 
REMARK  4 active torsions:
REMARK  status: ('A' for Active; 'I' for Inactive)
REMARK    1  A    between atoms: C_2  and  C_3
REMARK    2  A    between atoms: C_3  and  N_4
REMARK    3  A    between atoms: C_8  and  C_9
REMARK    4  A    between atoms: N_19  and  C_20
REMARK                            x       y       z     vdW  Elec       q    Type
REMARK                         _______ _______ _______ _____ _____    ______ ____
ROOT
ATOM      1  O   UNL     1       8.207   6.826  18.782  0.00  0.00    +0.000 OA
ATOM      2  C   UNL     1       7.664   7.234  17.756  0.00  0.00    +0.000 C 
ATOM      3  N   UNL     1       7.532   8.565  17.394  0.00  0.00    +0.000 N 
ATOM      4  H   UNL     1       6.909   8.739  16.611  0.00  0.00    +0.000 HD
ENDROOT
BRANCH   3   5
ATOM      5  C   UNL     1       8.213   9.663  17.970  0.00  0.00    +0.000 A 
ATOM      6  C   UNL     1       9.034   9.520  19.118  0.00  0.00    +0.000 A 
ATOM      7  C   UNL     1       9.739  10.597  19.671  0.00  0.00    +0.000 A 
ATOM      8  C   UNL     1       9.594  11.807  19.047  0.00  0.00    +0.000 A 
ATOM      9  N   UNL     1      10.160  13.037  19.362  0.00  0.00    +0.000 N 
ATOM     10  C   UNL     1       9.714  13.986  18.433  0.00  0.00    +0.000 A 
ATOM     11  O   UNL     1      10.004  15.169  18.404  0.00  0.00    +0.000 OA
ATOM     12  N   UNL     1       8.866  13.308  17.542  0.00  0.00    +0.000 N 
ATOM     13  C   UNL     1       8.795  11.968  17.918  0.00  0.00    +0.000 A 
ATOM     14  C   UNL     1       8.100  10.919  17.350  0.00  0.00    +0.000 A 
ATOM     15  H   UNL     1      10.784  13.244  20.124  0.00  0.00    +0.000 HD
ATOM     16  H   UNL     1       8.399  13.756  16.772  0.00  0.00    +0.000 HD
ENDBRANCH   3   5
BRANCH   2  17
ATOM     17  C   UNL     1       7.004   6.229  16.806  0.00  0.00    +0.000 C 
BRANCH  17  18
ATOM     18  N   UNL     1       5.791   5.564  17.356  0.00  0.00    +0.000 NA
ATOM     19  C   UNL     1       6.124   4.719  18.522  0.00  0.00    +0.000 C 
ATOM     20  C   UNL     1       4.862   4.031  19.045  0.00  0.00    +0.000 C 
ATOM     21  C   UNL     1       3.819   5.050  19.488  0.00  0.00    +0.000 C 
ATOM     22  C   UNL     1       3.537   6.063  18.370  0.00  0.00    +0.000 C 
ATOM     23  C   UNL     1       4.853   6.634  17.805  0.00  0.00    +0.000 C 
BRANCH  22  24
ATOM     24  C   UNL     1       2.654   7.179  18.876  0.00  0.00    +0.000 A 
ATOM     25  N   UNL     1       2.129   7.224  20.082  0.00  0.00    +0.000 NA
ATOM     26  C   UNL     1       1.369   8.376  20.231  0.00  0.00    +0.000 A 
ATOM     27  C   UNL     1       0.655   8.757  21.385  0.00  0.00    +0.000 A 
ATOM     28  C   UNL     1      -0.063   9.959  21.397  0.00  0.00    +0.000 A 
ATOM     29  C   UNL     1      -0.079  10.781  20.275  0.00  0.00    +0.000 A 
ATOM     30  C   UNL     1       0.615  10.422  19.114  0.00  0.00    +0.000 A 
ATOM     31  C   UNL     1       1.334   9.214  19.115  0.00  0.00    +0.000 A 
ATOM     32  S   UNL     1       2.274   8.510  17.857  0.00  0.00    +0.000 S 
ENDBRANCH  22  24
ENDBRANCH  17  18
ENDBRANCH   2  17
TORSDOF 4
ENDMDL
MODEL 5
REMARK VINA RESULT:      -8.3      3.573     10.284
REMARK  Name = 
REMARK  4 active torsions:
REMARK  status: ('A' for Active; 'I' for Inactive)
REMARK    1  A    between atoms: C_2  and  C_3
REMARK    2  A    between atoms: C_3  and  N_4
REMARK    3  A    between atoms: C_8  and  C_9
REMARK    4  A    between atoms: N_19  and  C_20
REMARK                            x       y       z     vdW  Elec       q    Type
REMARK                         _______ _______ _______ _____ _____    ______ ____
ROOT
ATOM      1  O   UNL     1       8.580   7.655  18.815  0.00  0.00    +0.000 OA
ATOM      2  C   UNL     1       8.005   8.328  17.961  0.00  0.00    +0.000 C 
ATOM      3  N   UNL     1       7.133   7.833  17.005  0.00  0.00    +0.000 N 
ATOM      4  H   UNL     1       6.882   8.488  16.269  0.00  0.00    +0.000 HD
ENDROOT
BRANCH   3   5
ATOM      5  C   UNL     1       6.535   6.551  16.997  0.00  0.00    +0.000 A 
ATOM      6  C   UNL     1       6.917   5.550  16.068  0.00  0.00    +0.000 A 
ATOM      7  C   UNL     1       6.353   4.267  16.079  0.00  0.00    +0.000 A 
ATOM      8  C   UNL     1       5.406   4.024  17.037  0.00  0.00    +0.000 A 
ATOM      9  N   UNL     1       4.682   2.864  17.290  0.00  0.00    +0.000 N 
ATOM     10  C   UNL     1       3.828   3.097  18.375  0.00  0.00    +0.000 A 
ATOM     11  O   UNL     1       3.046   2.305  18.870  0.00  0.00    +0.000 OA
ATOM     12  N   UNL     1       4.048   4.424  18.781  0.00  0.00    +0.000 N 
ATOM     13  C   UNL     1       5.020   4.992  17.961  0.00  0.00    +0.000 A 
ATOM     14  C   UNL     1       5.569   6.259  17.975  0.00  0.00    +0.000 A 
ATOM     15  H   UNL     1       4.737   1.990  16.793  0.00  0.00    +0.000 HD
ATOM     16  H   UNL     1       3.556   4.859  19.544  0.00  0.00    +0.000 HD
ENDBRANCH   3   5
BRANCH   2  17
ATOM     17  C   UNL     1       8.303   9.829  17.861  0.00  0.00    +0.000 C 
BRANCH  17  18
ATOM     18  N   UNL     1       9.453  10.287  18.686  0.00  0.00    +0.000 NA
ATOM     19  C   UNL     1      10.380  11.128  17.898  0.00  0.00    +0.000 C 
ATOM     20  C   UNL     1      11.562  11.558  18.767  0.00  0.00    +0.000 C 
ATOM     21  C   UNL     1      11.097  12.374  19.968  0.00  0.00    +0.000 C 
ATOM     22  C   UNL     1      10.013  11.622  20.752  0.00  0.00    +0.000 C 
ATOM     23  C   UNL     1       8.909  11.112  19.804  0.00  0.00    +0.000 C 
BRANCH  22  24
ATOM     24  C   UNL     1       9.420  12.508  21.821  0.00  0.00    +0.000 A 
ATOM     25  N   UNL     1       9.728  13.777  21.991  0.00  0.00    +0.000 NA
ATOM     26  C   UNL     1       9.013  14.304  23.057  0.00  0.00    +0.000 A 
ATOM     27  C   UNL     1       9.088  15.629  23.534  0.00  0.00    +0.000 A 
ATOM     28  C   UNL     1       8.295  16.027  24.617  0.00  0.00    +0.000 A 
ATOM     29  C   UNL     1       7.434  15.123  25.230  0.00  0.00    +0.000 A 
ATOM     30  C   UNL     1       7.346  13.801  24.780  0.00  0.00    +0.000 A 
ATOM     31  C   UNL     1       8.146  13.413  23.691  0.00  0.00    +0.000 A 
ATOM     32  S   UNL     1       8.259  11.878  22.920  0.00  0.00    +0.000 S 
ENDBRANCH  22  24
ENDBRANCH  17  18
ENDBRANCH   2  17
TORSDOF 4
ENDMDL
MODEL 6
REMARK VINA RESULT:      -8.3      0.928      1.213
REMARK  Name = 
REMARK  4 active torsions:
REMARK  status: ('A' for Active; 'I' for Inactive)
REMARK    1  A    between atoms: C_2  and  C_3
REMARK    2  A    between atoms: C_3  and  N_4
REMARK    3  A    between atoms: C_8  and  C_9
REMARK    4  A    between atoms: N_19  and  C_20
REMARK                            x       y       z     vdW  Elec       q    Type
REMARK                         _______ _______ _______ _____ _____    ______ ____
ROOT
ATOM      1  O   UNL     1       7.128   9.664  17.442  0.00  0.00    +0.000 OA
ATOM      2  C   UNL     1       8.038   9.014  17.954  0.00  0.00    +0.000 C 
ATOM      3  N   UNL     1       9.164   9.550  18.557  0.00  0.00    +0.000 N 
ATOM      4  H   UNL     1       9.898   8.881  18.771  0.00  0.00    +0.000 HD
ENDROOT
BRANCH   3   5
ATOM      5  C   UNL     1       9.350  10.900  18.939  0.00  0.00    +0.000 A 
ATOM      6  C   UNL     1       9.414  11.293  20.300  0.00  0.00    +0.000 A 
ATOM      7  C   UNL     1       9.632  12.623  20.683  0.00  0.00    +0.000 A 
ATOM      8  C   UNL     1       9.780  13.534  19.672  0.00  0.00    +0.000 A 
ATOM      9  N   UNL     1      10.005  14.904  19.743  0.00  0.00    +0.000 N 
ATOM     10  C   UNL     1      10.085  15.413  18.440  0.00  0.00    +0.000 A 
ATOM     11  O   UNL     1      10.271  16.574  18.121  0.00  0.00    +0.000 OA
ATOM     12  N   UNL     1       9.908  14.322  17.572  0.00  0.00    +0.000 N 
ATOM     13  C   UNL     1       9.723  13.167  18.330  0.00  0.00    +0.000 A 
ATOM     14  C   UNL     1       9.519  11.862  17.929  0.00  0.00    +0.000 A 
ATOM     15  H   UNL     1      10.095  15.465  20.574  0.00  0.00    +0.000 HD
ATOM     16  H   UNL     1       9.913  14.405  16.569  0.00  0.00    +0.000 HD
ENDBRANCH   3   5
BRANCH   2  17
ATOM     17  C   UNL     1       8.002   7.483  17.878  0.00  0.00    +0.000 C 
BRANCH  17  18
ATOM     18  N   UNL     1       7.003   6.935  16.920  0.00  0.00    +0.000 NA
ATOM     19  C   UNL     1       7.599   5.888  16.063  0.00  0.00    +0.000 C 
ATOM     20  C   UNL     1       6.554   5.366  15.075  0.00  0.00    +0.000 C 
ATOM     21  C   UNL     1       5.363   4.754  15.802  0.00  0.00    +0.000 C 
ATOM     22  C   UNL     1       4.785   5.738  16.829  0.00  0.00    +0.000 C 
ATOM     23  C   UNL     1       5.904   6.317  17.718  0.00  0.00    +0.000 C 
BRANCH  22  24
ATOM     24  C   UNL     1       3.735   5.062  17.678  0.00  0.00    +0.000 A 
ATOM     25  N   UNL     1       3.169   3.910  17.385  0.00  0.00    +0.000 NA
ATOM     26  C   UNL     1       2.247   3.567  18.364  0.00  0.00    +0.000 A 
ATOM     27  C   UNL     1       1.448   2.406  18.383  0.00  0.00    +0.000 A 
ATOM     28  C   UNL     1       0.564   2.184  19.446  0.00  0.00    +0.000 A 
ATOM     29  C   UNL     1       0.467   3.103  20.485  0.00  0.00    +0.000 A 
ATOM     30  C   UNL     1       1.244   4.267  20.486  0.00  0.00    +0.000 A 
ATOM     31  C   UNL     1       2.128   4.478  19.415  0.00  0.00    +0.000 A 
ATOM     32  S   UNL     1       3.201   5.796  19.137  0.00  0.00    +0.000 S 
ENDBRANCH  22  24
ENDBRANCH  17  18
ENDBRANCH   2  17
TORSDOF 4
ENDMDL
MODEL 7
REMARK VINA RESULT:      -8.2      6.722      8.937
REMARK  Name = 
REMARK  4 active torsions:
REMARK  status: ('A' for Active; 'I' for Inactive)
REMARK    1  A    between atoms: C_2  and  C_3
REMARK    2  A    between atoms: C_3  and  N_4
REMARK    3  A    between atoms: C_8  and  C_9
REMARK    4  A    between atoms: N_19  and  C_20
REMARK                            x       y       z     vdW  Elec       q    Type
REMARK                         _______ _______ _______ _____ _____    ______ ____
ROOT
ATOM      1  O   UNL     1       2.086   5.210  18.909  0.00  0.00    +0.000 OA
ATOM      2  C   UNL     1       2.590   6.194  19.449  0.00  0.00    +0.000 C 
ATOM      3  N   UNL     1       3.932   6.532  19.406  0.00  0.00    +0.000 N 
ATOM      4  H   UNL     1       4.211   7.272  20.045  0.00  0.00    +0.000 HD
ENDROOT
BRANCH   3   5
ATOM      5  C   UNL     1       4.907   5.991  18.536  0.00  0.00    +0.000 A 
ATOM      6  C   UNL     1       5.966   5.174  19.008  0.00  0.00    +0.000 A 
ATOM      7  C   UNL     1       6.913   4.607  18.146  0.00  0.00    +0.000 A 
ATOM      8  C   UNL     1       6.769   4.882  16.813  0.00  0.00    +0.000 A 
ATOM      9  N   UNL     1       7.543   4.468  15.736  0.00  0.00    +0.000 N 
ATOM     10  C   UNL     1       7.003   5.008  14.561  0.00  0.00    +0.000 A 
ATOM     11  O   UNL     1       7.425   4.856  13.428  0.00  0.00    +0.000 OA
ATOM     12  N   UNL     1       5.880   5.759  14.945  0.00  0.00    +0.000 N 
ATOM     13  C   UNL     1       5.735   5.680  16.329  0.00  0.00    +0.000 A 
ATOM     14  C   UNL     1       4.784   6.241  17.158  0.00  0.00    +0.000 A 
ATOM     15  H   UNL     1       8.362   3.881  15.763  0.00  0.00    +0.000 HD
ATOM     16  H   UNL     1       5.303   6.265  14.294  0.00  0.00    +0.000 HD
ENDBRANCH   3   5
BRANCH   2  17
ATOM     17  C   UNL     1       1.711   7.109  20.309  0.00  0.00    +0.000 C 
BRANCH  17  18
ATOM     18  N   UNL     1       1.778   8.551  19.945  0.00  0.00    +0.000 NA
ATOM     19  C   UNL     1       1.696   8.740  18.481  0.00  0.00    +0.000 C 
ATOM     20  C   UNL     1       1.795  10.227  18.140  0.00  0.00    +0.000 C 
ATOM     21  C   UNL     1       0.657  11.017  18.778  0.00  0.00    +0.000 C 
ATOM     22  C   UNL     1       0.583  10.745  20.287  0.00  0.00    +0.000 C 
ATOM     23  C   UNL     1       0.606   9.230  20.570  0.00  0.00    +0.000 C 
BRANCH  22  24
ATOM     24  C   UNL     1      -0.657  11.373  20.878  0.00  0.00    +0.000 A 
ATOM     25  N   UNL     1      -1.010  11.274  22.143  0.00  0.00    +0.000 NA
ATOM     26  C   UNL     1      -2.196  11.960  22.364  0.00  0.00    +0.000 A 
ATOM     27  C   UNL     1      -2.878  12.068  23.593  0.00  0.00    +0.000 A 
ATOM     28  C   UNL     1      -4.064  12.807  23.671  0.00  0.00    +0.000 A 
ATOM     29  C   UNL     1      -4.579  13.434  22.542  0.00  0.00    +0.000 A 
ATOM     30  C   UNL     1      -3.926  13.337  21.308  0.00  0.00    +0.000 A 
ATOM     31  C   UNL     1      -2.734  12.594  21.242  0.00  0.00    +0.000 A 
ATOM     32  S   UNL     1      -1.716  12.294  19.888  0.00  0.00    +0.000 S 
ENDBRANCH  22  24
ENDBRANCH  17  18
ENDBRANCH   2  17
TORSDOF 4
ENDMDL
MODEL 8
REMARK VINA RESULT:      -8.2      1.171      1.699
REMARK  Name = 
REMARK  4 active torsions:
REMARK  status: ('A' for Active; 'I' for Inactive)
REMARK    1  A    between atoms: C_2  and  C_3
REMARK    2  A    between atoms: C_3  and  N_4
REMARK    3  A    between atoms: C_8  and  C_9
REMARK    4  A    between atoms: N_19  and  C_20
REMARK                            x       y       z     vdW  Elec       q    Type
REMARK                         _______ _______ _______ _____ _____    ______ ____
ROOT
ATOM      1  O   UNL     1       7.689   9.372  17.216  0.00  0.00    +0.000 OA
ATOM      2  C   UNL     1       8.234   8.696  18.087  0.00  0.00    +0.000 C 
ATOM      3  N   UNL     1       9.142   9.172  19.019  0.00  0.00    +0.000 N 
ATOM      4  H   UNL     1       9.628   8.457  19.552  0.00  0.00    +0.000 HD
ENDROOT
BRANCH   3   5
ATOM      5  C   UNL     1       9.399  10.530  19.323  0.00  0.00    +0.000 A 
ATOM      6  C   UNL     1       9.721  11.476  18.317  0.00  0.00    +0.000 A 
ATOM      7  C   UNL     1       9.943  12.829  18.608  0.00  0.00    +0.000 A 
ATOM      8  C   UNL     1       9.836  13.197  19.922  0.00  0.00    +0.000 A 
ATOM      9  N   UNL     1       9.998  14.448  20.505  0.00  0.00    +0.000 N 
ATOM     10  C   UNL     1       9.789  14.329  21.885  0.00  0.00    +0.000 A 
ATOM     11  O   UNL     1       9.853  15.223  22.712  0.00  0.00    +0.000 OA
ATOM     12  N   UNL     1       9.492  12.979  22.131  0.00  0.00    +0.000 N 
ATOM     13  C   UNL     1       9.518  12.284  20.924  0.00  0.00    +0.000 A 
ATOM     14  C   UNL     1       9.286  10.948  20.659  0.00  0.00    +0.000 A 
ATOM     15  H   UNL     1      10.231  15.312  20.042  0.00  0.00    +0.000 HD
ATOM     16  H   UNL     1       9.303  12.611  23.049  0.00  0.00    +0.000 HD
ENDBRANCH   3   5
BRANCH   2  17
ATOM     17  C   UNL     1       7.974   7.186  18.139  0.00  0.00    +0.000 C 
BRANCH  17  18
ATOM     18  N   UNL     1       6.885   6.716  17.240  0.00  0.00    +0.000 NA
ATOM     19  C   UNL     1       7.390   5.744  16.246  0.00  0.00    +0.000 C 
ATOM     20  C   UNL     1       6.254   5.303  15.324  0.00  0.00    +0.000 C 
ATOM     21  C   UNL     1       5.134   4.629  16.109  0.00  0.00    +0.000 C 
ATOM     22  C   UNL     1       4.663   5.524  17.264  0.00  0.00    +0.000 C 
ATOM     23  C   UNL     1       5.864   6.032  18.086  0.00  0.00    +0.000 C 
BRANCH  22  24
ATOM     24  C   UNL     1       3.695   4.779  18.151  0.00  0.00    +0.000 A 
ATOM     25  N   UNL     1       3.739   4.781  19.467  0.00  0.00    +0.000 NA
ATOM     26  C   UNL     1       2.714   4.000  19.982  0.00  0.00    +0.000 A 
ATOM     27  C   UNL     1       2.453   3.764  21.347  0.00  0.00    +0.000 A 
ATOM     28  C   UNL     1       1.371   2.960  21.723  0.00  0.00    +0.000 A 
ATOM     29  C   UNL     1       0.550   2.387  20.757  0.00  0.00    +0.000 A 
ATOM     30  C   UNL     1       0.792   2.599  19.395  0.00  0.00    +0.000 A 
ATOM     31  C   UNL     1       1.880   3.410  19.030  0.00  0.00    +0.000 A 
ATOM     32  S   UNL     1       2.426   3.850  17.458  0.00  0.00    +0.000 S 
ENDBRANCH  22  24
ENDBRANCH  17  18
ENDBRANCH   2  17
TORSDOF 4
ENDMDL
MODEL 9
REMARK VINA RESULT:      -8.2      8.026     10.497
REMARK  Name = 
REMARK  4 active torsions:
REMARK  status: ('A' for Active; 'I' for Inactive)
REMARK    1  A    between atoms: C_2  and  C_3
REMARK    2  A    between atoms: C_3  and  N_4
REMARK    3  A    between atoms: C_8  and  C_9
REMARK    4  A    between atoms: N_19  and  C_20
REMARK                            x       y       z     vdW  Elec       q    Type
REMARK                         _______ _______ _______ _____ _____    ______ ____
ROOT
ATOM      1  O   UNL     1       1.715   8.342  19.788  0.00  0.00    +0.000 OA
ATOM      2  C   UNL     1       1.834   8.658  18.606  0.00  0.00    +0.000 C 
ATOM      3  N   UNL     1       2.743   8.109  17.717  0.00  0.00    +0.000 N 
ATOM      4  H   UNL     1       2.832   8.600  16.831  0.00  0.00    +0.000 HD
ENDROOT
BRANCH   3   5
ATOM      5  C   UNL     1       3.496   6.927  17.910  0.00  0.00    +0.000 A 
ATOM      6  C   UNL     1       4.717   6.693  17.227  0.00  0.00    +0.000 A 
ATOM      7  C   UNL     1       5.484   5.540  17.441  0.00  0.00    +0.000 A 
ATOM      8  C   UNL     1       4.993   4.640  18.347  0.00  0.00    +0.000 A 
ATOM      9  N   UNL     1       5.524   3.424  18.761  0.00  0.00    +0.000 N 
ATOM     10  C   UNL     1       4.661   2.856  19.707  0.00  0.00    +0.000 A 
ATOM     11  O   UNL     1       4.807   1.791  20.281  0.00  0.00    +0.000 OA
ATOM     12  N   UNL     1       3.592   3.754  19.864  0.00  0.00    +0.000 N 
ATOM     13  C   UNL     1       3.798   4.852  19.031  0.00  0.00    +0.000 A 
ATOM     14  C   UNL     1       3.032   5.984  18.843  0.00  0.00    +0.000 A 
ATOM     15  H   UNL     1       6.380   2.994  18.449  0.00  0.00    +0.000 HD
ATOM     16  H   UNL     1       2.818   3.591  20.486  0.00  0.00    +0.000 HD
ENDBRANCH   3   5
BRANCH   2  17
ATOM     17  C   UNL     1       0.976   9.798  18.043  0.00  0.00    +0.000 C 
BRANCH  17  18
ATOM     18  N   UNL     1       0.533  10.795  19.056  0.00  0.00    +0.000 NA
ATOM     19  C   UNL     1       1.203  12.098  18.855  0.00  0.00    +0.000 C 
ATOM     20  C   UNL     1       0.746  13.090  19.926  0.00  0.00    +0.000 C 
ATOM     21  C   UNL     1      -0.759  13.323  19.858  0.00  0.00    +0.000 C 
ATOM     22  C   UNL     1      -1.519  11.990  19.904  0.00  0.00    +0.000 C 
ATOM     23  C   UNL     1      -0.936  10.993  18.883  0.00  0.00    +0.000 C 
BRANCH  22  24
ATOM     24  C   UNL     1      -2.990  12.210  19.644  0.00  0.00    +0.000 A 
ATOM     25  N   UNL     1      -3.623  11.805  18.562  0.00  0.00    +0.000 NA
ATOM     26  C   UNL     1      -4.962  12.164  18.629  0.00  0.00    +0.000 A 
ATOM     27  C   UNL     1      -5.943  11.902  17.650  0.00  0.00    +0.000 A 
ATOM     28  C   UNL     1      -7.264  12.315  17.858  0.00  0.00    +0.000 A 
ATOM     29  C   UNL     1      -7.618  12.984  19.024  0.00  0.00    +0.000 A 
ATOM     30  C   UNL     1      -6.663  13.262  20.008  0.00  0.00    +0.000 A 
ATOM     31  C   UNL     1      -5.340  12.842  19.789  0.00  0.00    +0.000 A 
ATOM     32  S   UNL     1      -3.959  13.034  20.799  0.00  0.00    +0.000 S 
ENDBRANCH  22  24
ENDBRANCH  17  18
ENDBRANCH   2  17
TORSDOF 4
ENDMDL
