MODEL 1
REMARK VINA RESULT:      -8.1      0.000      0.000
REMARK  Name = 
REMARK  7 active torsions:
REMARK  status: ('A' for Active; 'I' for Inactive)
REMARK    1  A    between atoms: C_1  and  C_2
REMARK    2  A    between atoms: C_2  and  C_3
REMARK    3  A    between atoms: C_9  and  O_10
REMARK    4  A    between atoms: O_10  and  C_11
REMARK    5  A    between atoms: C_11  and  C_12
REMARK    6  A    between atoms: N_14  and  C_15
REMARK    7  A    between atoms: C_18  and  N_19
REMARK                            x       y       z     vdW  Elec       q    Type
REMARK                         _______ _______ _______ _____ _____    ______ ____
ROOT
ATOM      1  C   UNL     1       1.431   9.944  18.771  0.00  0.00    +0.000 C 
ATOM      2  O   UNL     1       1.725  11.119  18.556  0.00  0.00    +0.000 OA
ATOM      3  N   UNL     1       0.584   9.484  19.773  0.00  0.00    +0.000 N 
ATOM      4  H   UNL     1       0.608   8.490  19.968  0.00  0.00    +0.000 HD
ENDROOT
BRANCH   3   5
ATOM      5  C   UNL     1      -0.118  10.301  20.682  0.00  0.00    +0.000 A 
ATOM      6  C   UNL     1      -0.023  10.140  22.066  0.00  0.00    +0.000 A 
ATOM      7  C   UNL     1      -0.806  10.898  22.936  0.00  0.00    +0.000 A 
ATOM      8  C   UNL     1      -1.702  11.841  22.429  0.00  0.00    +0.000 A 
ATOM      9  C   UNL     1      -1.758  12.059  21.044  0.00  0.00    +0.000 A 
ATOM     10  C   UNL     1      -0.959  11.300  20.178  0.00  0.00    +0.000 A 
BRANCH   8  11
ATOM     11  N   UNL     1      -2.564  12.543  23.299  0.00  0.00    +0.000 N 
ATOM     12  C   UNL     1      -2.486  13.843  23.732  0.00  0.00    +0.000 A 
ATOM     13  N   UNL     1      -3.455  14.073  24.587  0.00  0.00    +0.000 NA
ATOM     14  N   UNL     1      -4.156  12.902  24.680  0.00  0.00    +0.000 NA
ATOM     15  N   UNL     1      -3.638  11.971  23.893  0.00  0.00    +0.000 NA
ENDBRANCH   8  11
ENDBRANCH   3   5
BRANCH   1  16
ATOM     16  C   UNL     1       2.020   8.834  17.914  0.00  0.00    +0.000 C 
BRANCH  16  17
ATOM     17  O   UNL     1       2.272   7.704  18.740  0.00  0.00    +0.000 OA
BRANCH  17  26
ATOM     18  C   UNL     1       1.023   2.728  18.620  0.00  0.00    +0.000 C 
ATOM     19  C   UNL     1       2.289   3.323  19.242  0.00  0.00    +0.000 C 
ATOM     20  C   UNL     1       2.478   2.795  20.666  0.00  0.00    +0.000 C 
ATOM     21  C   UNL     1       3.533   3.060  18.369  0.00  0.00    +0.000 C 
ATOM     22  C   UNL     1       3.787   4.426  17.851  0.00  0.00    +0.000 A 
ATOM     23  C   UNL     1       4.737   4.832  16.927  0.00  0.00    +0.000 A 
ATOM     24  C   UNL     1       4.813   6.190  16.616  0.00  0.00    +0.000 A 
ATOM     25  C   UNL     1       3.956   7.113  17.238  0.00  0.00    +0.000 A 
ATOM     26  C   UNL     1       3.012   6.698  18.185  0.00  0.00    +0.000 A 
ATOM     27  C   UNL     1       2.943   5.340  18.464  0.00  0.00    +0.000 A 
ATOM     28  O   UNL     1       2.087   4.754  19.359  0.00  0.00    +0.000 OA
ENDBRANCH  17  26
ENDBRANCH  16  17
ENDBRANCH   1  16
TORSDOF 5
ENDMDL
MODEL 2
REMARK VINA RESULT:      -8.1      2.856      3.363
REMARK  Name = 
REMARK  7 active torsions:
REMARK  status: ('A' for Active; 'I' for Inactive)
REMARK    1  A    between atoms: C_1  and  C_2
REMARK    2  A    between atoms: C_2  and  C_3
REMARK    3  A    between atoms: C_9  and  O_10
REMARK    4  A    between atoms: O_10  and  C_11
REMARK    5  A    between atoms: C_11  and  C_12
REMARK    6  A    between atoms: N_14  and  C_15
REMARK    7  A    between atoms: C_18  and  N_19
REMARK                            x       y       z     vdW  Elec       q    Type
REMARK                         _______ _______ _______ _____ _____    ______ ____
ROOT
ATOM      1  C   UNL     1       0.921   9.578  18.537  0.00  0.00    +0.000 C 
ATOM      2  O   UNL     1       0.833   9.927  19.714  0.00  0.00    +0.000 OA
ATOM      3  N   UNL     1      -0.064   9.724  17.567  0.00  0.00    +0.000 N 
ATOM      4  H   UNL     1       0.062   9.200  16.709  0.00  0.00    +0.000 HD
ENDROOT
BRANCH   3   5
ATOM      5  C   UNL     1      -1.315  10.344  17.765  0.00  0.00    +0.000 A 
ATOM      6  C   UNL     1      -1.475  11.470  18.575  0.00  0.00    +0.000 A 
ATOM      7  C   UNL     1      -2.740  12.001  18.830  0.00  0.00    +0.000 A 
ATOM      8  C   UNL     1      -3.873  11.409  18.270  0.00  0.00    +0.000 A 
ATOM      9  C   UNL     1      -3.718  10.317  17.401  0.00  0.00    +0.000 A 
ATOM     10  C   UNL     1      -2.442   9.798  17.142  0.00  0.00    +0.000 A 
BRANCH   8  11
ATOM     11  N   UNL     1      -5.160  11.883  18.600  0.00  0.00    +0.000 N 
ATOM     12  C   UNL     1      -6.380  11.493  18.106  0.00  0.00    +0.000 A 
ATOM     13  N   UNL     1      -7.321  12.239  18.637  0.00  0.00    +0.000 NA
ATOM     14  N   UNL     1      -6.679  13.101  19.484  0.00  0.00    +0.000 NA
ATOM     15  N   UNL     1      -5.373  12.885  19.485  0.00  0.00    +0.000 NA
ENDBRANCH   8  11
ENDBRANCH   3   5
BRANCH   1  16
ATOM     16  C   UNL     1       2.185   8.906  18.025  0.00  0.00    +0.000 C 
BRANCH  16  17
ATOM     17  O   UNL     1       2.453   7.765  18.829  0.00  0.00    +0.000 OA
BRANCH  17  26
ATOM     18  C   UNL     1       1.006   2.845  18.626  0.00  0.00    +0.000 C 
ATOM     19  C   UNL     1       2.312   3.375  19.225  0.00  0.00    +0.000 C 
ATOM     20  C   UNL     1       2.522   2.804  20.629  0.00  0.00    +0.000 C 
ATOM     21  C   UNL     1       3.519   3.086  18.308  0.00  0.00    +0.000 C 
ATOM     22  C   UNL     1       3.811   4.453  17.815  0.00  0.00    +0.000 A 
ATOM     23  C   UNL     1       4.749   4.846  16.873  0.00  0.00    +0.000 A 
ATOM     24  C   UNL     1       4.869   6.207  16.593  0.00  0.00    +0.000 A 
ATOM     25  C   UNL     1       4.068   7.147  17.263  0.00  0.00    +0.000 A 
ATOM     26  C   UNL     1       3.136   6.744  18.228  0.00  0.00    +0.000 A 
ATOM     27  C   UNL     1       3.022   5.384  18.476  0.00  0.00    +0.000 A 
ATOM     28  O   UNL     1       2.171   4.809  19.382  0.00  0.00    +0.000 OA
ENDBRANCH  17  26
ENDBRANCH  16  17
ENDBRANCH   1  16
TORSDOF 5
ENDMDL
MODEL 3
REMARK VINA RESULT:      -8.0      0.922      1.085
REMARK  Name = 
REMARK  7 active torsions:
REMARK  status: ('A' for Active; 'I' for Inactive)
REMARK    1  A    between atoms: C_1  and  C_2
REMARK    2  A    between atoms: C_2  and  C_3
REMARK    3  A    between atoms: C_9  and  O_10
REMARK    4  A    between atoms: O_10  and  C_11
REMARK    5  A    between atoms: C_11  and  C_12
REMARK    6  A    between atoms: N_14  and  C_15
REMARK    7  A    between atoms: C_18  and  N_19
REMARK                            x       y       z     vdW  Elec       q    Type
REMARK                         _______ _______ _______ _____ _____    ______ ____
ROOT
ATOM      1  C   UNL     1       1.116   9.349  18.703  0.00  0.00    +0.000 C 
ATOM      2  O   UNL     1       0.175   9.847  18.087  0.00  0.00    +0.000 OA
ATOM      3  N   UNL     1       1.406   9.544  20.049  0.00  0.00    +0.000 N 
ATOM      4  H   UNL     1       2.324   9.252  20.363  0.00  0.00    +0.000 HD
ENDROOT
BRANCH   3   5
ATOM      5  C   UNL     1       0.633  10.311  20.944  0.00  0.00    +0.000 A 
ATOM      6  C   UNL     1      -0.126   9.735  21.965  0.00  0.00    +0.000 A 
ATOM      7  C   UNL     1      -0.958  10.512  22.772  0.00  0.00    +0.000 A 
ATOM      8  C   UNL     1      -1.039  11.891  22.569  0.00  0.00    +0.000 A 
ATOM      9  C   UNL     1      -0.231  12.490  21.590  0.00  0.00    +0.000 A 
ATOM     10  C   UNL     1       0.611  11.702  20.792  0.00  0.00    +0.000 A 
BRANCH   8  11
ATOM     11  N   UNL     1      -1.948  12.668  23.318  0.00  0.00    +0.000 N 
ATOM     12  C   UNL     1      -3.242  12.381  23.678  0.00  0.00    +0.000 A 
ATOM     13  N   UNL     1      -3.751  13.407  24.318  0.00  0.00    +0.000 NA
ATOM     14  N   UNL     1      -2.756  14.346  24.368  0.00  0.00    +0.000 NA
ATOM     15  N   UNL     1      -1.653  13.905  23.782  0.00  0.00    +0.000 NA
ENDBRANCH   8  11
ENDBRANCH   3   5
BRANCH   1  16
ATOM     16  C   UNL     1       2.106   8.439  17.993  0.00  0.00    +0.000 C 
BRANCH  16  17
ATOM     17  O   UNL     1       2.562   7.455  18.911  0.00  0.00    +0.000 OA
BRANCH  17  26
ATOM     18  C   UNL     1       0.725   2.667  19.131  0.00  0.00    +0.000 C 
ATOM     19  C   UNL     1       2.089   3.132  19.649  0.00  0.00    +0.000 C 
ATOM     20  C   UNL     1       2.302   2.653  21.087  0.00  0.00    +0.000 C 
ATOM     21  C   UNL     1       3.237   2.679  18.723  0.00  0.00    +0.000 C 
ATOM     22  C   UNL     1       3.619   3.977  18.118  0.00  0.00    +0.000 A 
ATOM     23  C   UNL     1       4.551   4.221  17.122  0.00  0.00    +0.000 A 
ATOM     24  C   UNL     1       4.768   5.543  16.734  0.00  0.00    +0.000 A 
ATOM     25  C   UNL     1       4.067   6.592  17.352  0.00  0.00    +0.000 A 
ATOM     26  C   UNL     1       3.141   6.340  18.372  0.00  0.00    +0.000 A 
ATOM     27  C   UNL     1       2.929   5.016  18.727  0.00  0.00    +0.000 A 
ATOM     28  O   UNL     1       2.067   4.581  19.699  0.00  0.00    +0.000 OA
ENDBRANCH  17  26
ENDBRANCH  16  17
ENDBRANCH   1  16
TORSDOF 5
ENDMDL
MODEL 4
REMARK VINA RESULT:      -7.9      3.547      4.978
REMARK  Name = 
REMARK  7 active torsions:
REMARK  status: ('A' for Active; 'I' for Inactive)
REMARK    1  A    between atoms: C_1  and  C_2
REMARK    2  A    between atoms: C_2  and  C_3
REMARK    3  A    between atoms: C_9  and  O_10
REMARK    4  A    between atoms: O_10  and  C_11
REMARK    5  A    between atoms: C_11  and  C_12
REMARK    6  A    between atoms: N_14  and  C_15
REMARK    7  A    between atoms: C_18  and  N_19
REMARK                            x       y       z     vdW  Elec       q    Type
REMARK                         _______ _______ _______ _____ _____    ______ ____
ROOT
ATOM      1  C   UNL     1       1.571   4.845  20.842  0.00  0.00    +0.000 C 
ATOM      2  O   UNL     1       0.452   4.711  20.349  0.00  0.00    +0.000 OA
ATOM      3  N   UNL     1       2.289   6.033  20.924  0.00  0.00    +0.000 N 
ATOM      4  H   UNL     1       3.273   5.954  21.152  0.00  0.00    +0.000 HD
ENDROOT
BRANCH   3   5
ATOM      5  C   UNL     1       1.827   7.294  20.495  0.00  0.00    +0.000 A 
ATOM      6  C   UNL     1       1.072   8.136  21.314  0.00  0.00    +0.000 A 
ATOM      7  C   UNL     1       0.546   9.334  20.829  0.00  0.00    +0.000 A 
ATOM      8  C   UNL     1       0.774   9.711  19.504  0.00  0.00    +0.000 A 
ATOM      9  C   UNL     1       1.586   8.906  18.691  0.00  0.00    +0.000 A 
ATOM     10  C   UNL     1       2.120   7.710  19.192  0.00  0.00    +0.000 A 
BRANCH   8  11
ATOM     11  N   UNL     1       0.166  10.872  18.981  0.00  0.00    +0.000 N 
ATOM     12  C   UNL     1      -1.063  11.014  18.387  0.00  0.00    +0.000 A 
ATOM     13  N   UNL     1      -1.208  12.255  17.984  0.00  0.00    +0.000 NA
ATOM     14  N   UNL     1      -0.056  12.901  18.342  0.00  0.00    +0.000 NA
ATOM     15  N   UNL     1       0.778  12.080  18.963  0.00  0.00    +0.000 NA
ENDBRANCH   8  11
ENDBRANCH   3   5
BRANCH   1  16
ATOM     16  C   UNL     1       2.306   3.648  21.422  0.00  0.00    +0.000 C 
BRANCH  16  17
ATOM     17  O   UNL     1       3.565   3.526  20.773  0.00  0.00    +0.000 OA
BRANCH  17  26
ATOM     18  C   UNL     1       7.286   4.729  17.450  0.00  0.00    +0.000 C 
ATOM     19  C   UNL     1       5.845   5.246  17.413  0.00  0.00    +0.000 C 
ATOM     20  C   UNL     1       5.833   6.771  17.282  0.00  0.00    +0.000 C 
ATOM     21  C   UNL     1       5.024   4.573  16.293  0.00  0.00    +0.000 C 
ATOM     22  C   UNL     1       4.131   3.709  17.101  0.00  0.00    +0.000 A 
ATOM     23  C   UNL     1       3.205   2.778  16.659  0.00  0.00    +0.000 A 
ATOM     24  C   UNL     1       2.445   2.103  17.614  0.00  0.00    +0.000 A 
ATOM     25  C   UNL     1       2.611   2.376  18.982  0.00  0.00    +0.000 A 
ATOM     26  C   UNL     1       3.535   3.333  19.420  0.00  0.00    +0.000 A 
ATOM     27  C   UNL     1       4.292   3.978  18.453  0.00  0.00    +0.000 A 
ATOM     28  O   UNL     1       5.238   4.939  18.693  0.00  0.00    +0.000 OA
ENDBRANCH  17  26
ENDBRANCH  16  17
ENDBRANCH   1  16
TORSDOF 5
ENDMDL
MODEL 5
REMARK VINA RESULT:      -7.9      7.420      8.657
REMARK  Name = 
REMARK  7 active torsions:
REMARK  status: ('A' for Active; 'I' for Inactive)
REMARK    1  A    between atoms: C_1  and  C_2
REMARK    2  A    between atoms: C_2  and  C_3
REMARK    3  A    between atoms: C_9  and  O_10
REMARK    4  A    between atoms: O_10  and  C_11
REMARK    5  A    between atoms: C_11  and  C_12
REMARK    6  A    between atoms: N_14  and  C_15
REMARK    7  A    between atoms: C_18  and  N_19
REMARK                            x       y       z     vdW  Elec       q    Type
REMARK                         _______ _______ _______ _____ _____    ______ ____
ROOT
ATOM      1  C   UNL     1       8.192   8.297  18.237  0.00  0.00    +0.000 C 
ATOM      2  O   UNL     1       7.609   8.855  17.308  0.00  0.00    +0.000 OA
ATOM      3  N   UNL     1       9.037   8.910  19.156  0.00  0.00    +0.000 N 
ATOM      4  H   UNL     1       9.612   8.298  19.723  0.00  0.00    +0.000 HD
ENDROOT
BRANCH   3   5
ATOM      5  C   UNL     1       9.327  10.289  19.201  0.00  0.00    +0.000 A 
ATOM      6  C   UNL     1       9.266  11.030  20.383  0.00  0.00    +0.000 A 
ATOM      7  C   UNL     1       9.461  12.412  20.379  0.00  0.00    +0.000 A 
ATOM      8  C   UNL     1       9.726  13.077  19.180  0.00  0.00    +0.000 A 
ATOM      9  C   UNL     1       9.855  12.333  17.997  0.00  0.00    +0.000 A 
ATOM     10  C   UNL     1       9.669  10.944  18.013  0.00  0.00    +0.000 A 
BRANCH   8  11
ATOM     11  N   UNL     1       9.830  14.484  19.155  0.00  0.00    +0.000 N 
ATOM     12  C   UNL     1       9.040  15.400  18.507  0.00  0.00    +0.000 A 
ATOM     13  N   UNL     1       9.528  16.603  18.695  0.00  0.00    +0.000 NA
ATOM     14  N   UNL     1      10.635  16.438  19.483  0.00  0.00    +0.000 NA
ATOM     15  N   UNL     1      10.820  15.161  19.784  0.00  0.00    +0.000 NA
ENDBRANCH   8  11
ENDBRANCH   3   5
BRANCH   1  16
ATOM     16  C   UNL     1       8.036   6.801  18.456  0.00  0.00    +0.000 C 
BRANCH  16  17
ATOM     17  O   UNL     1       6.651   6.489  18.511  0.00  0.00    +0.000 OA
BRANCH  17  26
ATOM     18  C   UNL     1       1.837   4.758  18.088  0.00  0.00    +0.000 C 
ATOM     19  C   UNL     1       3.081   3.904  18.352  0.00  0.00    +0.000 C 
ATOM     20  C   UNL     1       2.846   2.982  19.550  0.00  0.00    +0.000 C 
ATOM     21  C   UNL     1       3.506   3.111  17.099  0.00  0.00    +0.000 C 
ATOM     22  C   UNL     1       4.740   3.843  16.727  0.00  0.00    +0.000 A 
ATOM     23  C   UNL     1       5.548   3.658  15.616  0.00  0.00    +0.000 A 
ATOM     24  C   UNL     1       6.689   4.450  15.494  0.00  0.00    +0.000 A 
ATOM     25  C   UNL     1       7.010   5.396  16.482  0.00  0.00    +0.000 A 
ATOM     26  C   UNL     1       6.199   5.564  17.612  0.00  0.00    +0.000 A 
ATOM     27  C   UNL     1       5.060   4.777  17.701  0.00  0.00    +0.000 A 
ATOM     28  O   UNL     1       4.155   4.802  18.729  0.00  0.00    +0.000 OA
ENDBRANCH  17  26
ENDBRANCH  16  17
ENDBRANCH   1  16
TORSDOF 5
ENDMDL
MODEL 6
REMARK VINA RESULT:      -7.9      6.700      8.700
REMARK  Name = 
REMARK  7 active torsions:
REMARK  status: ('A' for Active; 'I' for Inactive)
REMARK    1  A    between atoms: C_1  and  C_2
REMARK    2  A    between atoms: C_2  and  C_3
REMARK    3  A    between atoms: C_9  and  O_10
REMARK    4  A    between atoms: O_10  and  C_11
REMARK    5  A    between atoms: C_11  and  C_12
REMARK    6  A    between atoms: N_14  and  C_15
REMARK    7  A    between atoms: C_18  and  N_19
REMARK                            x       y       z     vdW  Elec       q    Type
REMARK                         _______ _______ _______ _____ _____    ______ ____
ROOT
ATOM      1  C   UNL     1       8.059   7.746  18.222  0.00  0.00    +0.000 C 
ATOM      2  O   UNL     1       7.365   8.196  17.312  0.00  0.00    +0.000 OA
ATOM      3  N   UNL     1       8.876   8.486  19.069  0.00  0.00    +0.000 N 
ATOM      4  H   UNL     1       9.549   7.967  19.620  0.00  0.00    +0.000 HD
ENDROOT
BRANCH   3   5
ATOM      5  C   UNL     1       9.005   9.890  19.052  0.00  0.00    +0.000 A 
ATOM      6  C   UNL     1       8.835  10.646  17.891  0.00  0.00    +0.000 A 
ATOM      7  C   UNL     1       9.066  12.022  17.886  0.00  0.00    +0.000 A 
ATOM      8  C   UNL     1       9.470  12.668  19.055  0.00  0.00    +0.000 A 
ATOM      9  C   UNL     1       9.579  11.930  20.244  0.00  0.00    +0.000 A 
ATOM     10  C   UNL     1       9.333  10.549  20.242  0.00  0.00    +0.000 A 
BRANCH   8  11
ATOM     11  N   UNL     1       9.795  14.041  19.034  0.00  0.00    +0.000 N 
ATOM     12  C   UNL     1       9.163  15.091  19.652  0.00  0.00    +0.000 A 
ATOM     13  N   UNL     1       9.756  16.212  19.315  0.00  0.00    +0.000 NA
ATOM     14  N   UNL     1      10.782  15.856  18.482  0.00  0.00    +0.000 NA
ATOM     15  N   UNL     1      10.829  14.542  18.317  0.00  0.00    +0.000 NA
ENDBRANCH   8  11
ENDBRANCH   3   5
BRANCH   1  16
ATOM     16  C   UNL     1       8.092   6.251  18.497  0.00  0.00    +0.000 C 
BRANCH  16  17
ATOM     17  O   UNL     1       6.885   5.880  19.150  0.00  0.00    +0.000 OA
BRANCH  17  26
ATOM     18  C   UNL     1       2.029   7.504  18.798  0.00  0.00    +0.000 C 
ATOM     19  C   UNL     1       2.481   6.099  19.207  0.00  0.00    +0.000 C 
ATOM     20  C   UNL     1       1.788   5.677  20.505  0.00  0.00    +0.000 C 
ATOM     21  C   UNL     1       2.249   5.072  18.079  0.00  0.00    +0.000 C 
ATOM     22  C   UNL     1       3.647   4.821  17.656  0.00  0.00    +0.000 A 
ATOM     23  C   UNL     1       4.101   4.042  16.605  0.00  0.00    +0.000 A 
ATOM     24  C   UNL     1       5.478   3.925  16.419  0.00  0.00    +0.000 A 
ATOM     25  C   UNL     1       6.373   4.572  17.289  0.00  0.00    +0.000 A 
ATOM     26  C   UNL     1       5.907   5.342  18.362  0.00  0.00    +0.000 A 
ATOM     27  C   UNL     1       4.533   5.457  18.514  0.00  0.00    +0.000 A 
ATOM     28  O   UNL     1       3.899   6.164  19.501  0.00  0.00    +0.000 OA
ENDBRANCH  17  26
ENDBRANCH  16  17
ENDBRANCH   1  16
TORSDOF 5
ENDMDL
MODEL 7
REMARK VINA RESULT:      -7.9      3.198      4.258
REMARK  Name = 
REMARK  7 active torsions:
REMARK  status: ('A' for Active; 'I' for Inactive)
REMARK    1  A    between atoms: C_1  and  C_2
REMARK    2  A    between atoms: C_2  and  C_3
REMARK    3  A    between atoms: C_9  and  O_10
REMARK    4  A    between atoms: O_10  and  C_11
REMARK    5  A    between atoms: C_11  and  C_12
REMARK    6  A    between atoms: N_14  and  C_15
REMARK    7  A    between atoms: C_18  and  N_19
REMARK                            x       y       z     vdW  Elec       q    Type
REMARK                         _______ _______ _______ _____ _____    ______ ____
ROOT
ATOM      1  C   UNL     1       0.989   9.505  18.767  0.00  0.00    +0.000 C 
ATOM      2  O   UNL     1       0.677   9.402  19.952  0.00  0.00    +0.000 OA
ATOM      3  N   UNL     1       0.177   9.991  17.748  0.00  0.00    +0.000 N 
ATOM      4  H   UNL     1       0.485   9.815  16.799  0.00  0.00    +0.000 HD
ENDROOT
BRANCH   3   5
ATOM      5  C   UNL     1      -1.128  10.494  17.919  0.00  0.00    +0.000 A 
ATOM      6  C   UNL     1      -1.406  11.608  18.713  0.00  0.00    +0.000 A 
ATOM      7  C   UNL     1      -2.719  12.022  18.942  0.00  0.00    +0.000 A 
ATOM      8  C   UNL     1      -3.782  11.322  18.370  0.00  0.00    +0.000 A 
ATOM      9  C   UNL     1      -3.512  10.241  17.516  0.00  0.00    +0.000 A 
ATOM     10  C   UNL     1      -2.189   9.840  17.283  0.00  0.00    +0.000 A 
BRANCH   8  11
ATOM     11  N   UNL     1      -5.114  11.678  18.673  0.00  0.00    +0.000 N 
ATOM     12  C   UNL     1      -5.584  12.767  19.365  0.00  0.00    +0.000 A 
ATOM     13  N   UNL     1      -6.888  12.678  19.477  0.00  0.00    +0.000 NA
ATOM     14  N   UNL     1      -7.240  11.522  18.836  0.00  0.00    +0.000 NA
ATOM     15  N   UNL     1      -6.178  10.915  18.329  0.00  0.00    +0.000 NA
ENDBRANCH   8  11
ENDBRANCH   3   5
BRANCH   1  16
ATOM     16  C   UNL     1       2.366   9.068  18.293  0.00  0.00    +0.000 C 
BRANCH  16  17
ATOM     17  O   UNL     1       2.253   7.791  17.678  0.00  0.00    +0.000 OA
BRANCH  17  26
ATOM     18  C   UNL     1       7.286   6.850  17.319  0.00  0.00    +0.000 C 
ATOM     19  C   UNL     1       6.160   5.887  16.929  0.00  0.00    +0.000 C 
ATOM     20  C   UNL     1       6.398   5.337  15.521  0.00  0.00    +0.000 C 
ATOM     21  C   UNL     1       5.994   4.753  17.962  0.00  0.00    +0.000 C 
ATOM     22  C   UNL     1       4.713   5.154  18.592  0.00  0.00    +0.000 A 
ATOM     23  C   UNL     1       4.065   4.571  19.669  0.00  0.00    +0.000 A 
ATOM     24  C   UNL     1       2.840   5.105  20.067  0.00  0.00    +0.000 A 
ATOM     25  C   UNL     1       2.279   6.194  19.378  0.00  0.00    +0.000 A 
ATOM     26  C   UNL     1       2.930   6.765  18.278  0.00  0.00    +0.000 A 
ATOM     27  C   UNL     1       4.156   6.228  17.913  0.00  0.00    +0.000 A 
ATOM     28  O   UNL     1       4.931   6.654  16.868  0.00  0.00    +0.000 OA
ENDBRANCH  17  26
ENDBRANCH  16  17
ENDBRANCH   1  16
TORSDOF 5
ENDMDL
MODEL 8
REMARK VINA RESULT:      -7.9      2.320      3.485
REMARK  Name = 
REMARK  7 active torsions:
REMARK  status: ('A' for Active; 'I' for Inactive)
REMARK    1  A    between atoms: C_1  and  C_2
REMARK    2  A    between atoms: C_2  and  C_3
REMARK    3  A    between atoms: C_9  and  O_10
REMARK    4  A    between atoms: O_10  and  C_11
REMARK    5  A    between atoms: C_11  and  C_12
REMARK    6  A    between atoms: N_14  and  C_15
REMARK    7  A    between atoms: C_18  and  N_19
REMARK                            x       y       z     vdW  Elec       q    Type
REMARK                         _______ _______ _______ _____ _____    ______ ____
ROOT
ATOM      1  C   UNL     1       1.543   8.988  18.536  0.00  0.00    +0.000 C 
ATOM      2  O   UNL     1       1.397   8.753  19.734  0.00  0.00    +0.000 OA
ATOM      3  N   UNL     1       0.767   9.852  17.773  0.00  0.00    +0.000 N 
ATOM      4  H   UNL     1       0.861   9.780  16.766  0.00  0.00    +0.000 HD
ENDROOT
BRANCH   3   5
ATOM      5  C   UNL     1      -0.292  10.643  18.264  0.00  0.00    +0.000 A 
ATOM      6  C   UNL     1      -0.090  11.694  19.161  0.00  0.00    +0.000 A 
ATOM      7  C   UNL     1      -1.167  12.395  19.706  0.00  0.00    +0.000 A 
ATOM      8  C   UNL     1      -2.473  12.052  19.354  0.00  0.00    +0.000 A 
ATOM      9  C   UNL     1      -2.686  11.042  18.403  0.00  0.00    +0.000 A 
ATOM     10  C   UNL     1      -1.597  10.352  17.853  0.00  0.00    +0.000 A 
BRANCH   8  11
ATOM     11  N   UNL     1      -3.568  12.693  19.973  0.00  0.00    +0.000 N 
ATOM     12  C   UNL     1      -3.569  13.729  20.874  0.00  0.00    +0.000 A 
ATOM     13  N   UNL     1      -4.802  13.976  21.248  0.00  0.00    +0.000 NA
ATOM     14  N   UNL     1      -5.585  13.088  20.562  0.00  0.00    +0.000 NA
ATOM     15  N   UNL     1      -4.853  12.316  19.773  0.00  0.00    +0.000 NA
ENDBRANCH   8  11
ENDBRANCH   3   5
BRANCH   1  16
ATOM     16  C   UNL     1       2.642   8.296  17.744  0.00  0.00    +0.000 C 
BRANCH  16  17
ATOM     17  O   UNL     1       3.257   7.320  18.574  0.00  0.00    +0.000 OA
BRANCH  17  26
ATOM     18  C   UNL     1       7.410   4.526  17.433  0.00  0.00    +0.000 C 
ATOM     19  C   UNL     1       6.271   4.880  16.472  0.00  0.00    +0.000 C 
ATOM     20  C   UNL     1       6.835   5.455  15.171  0.00  0.00    +0.000 C 
ATOM     21  C   UNL     1       5.350   3.671  16.207  0.00  0.00    +0.000 C 
ATOM     22  C   UNL     1       4.139   4.090  16.951  0.00  0.00    +0.000 A 
ATOM     23  C   UNL     1       2.971   3.376  17.167  0.00  0.00    +0.000 A 
ATOM     24  C   UNL     1       1.942   3.996  17.875  0.00  0.00    +0.000 A 
ATOM     25  C   UNL     1       2.090   5.314  18.339  0.00  0.00    +0.000 A 
ATOM     26  C   UNL     1       3.265   6.037  18.101  0.00  0.00    +0.000 A 
ATOM     27  C   UNL     1       4.281   5.392  17.410  0.00  0.00    +0.000 A 
ATOM     28  O   UNL     1       5.494   5.939  17.086  0.00  0.00    +0.000 OA
ENDBRANCH  17  26
ENDBRANCH  16  17
ENDBRANCH   1  16
TORSDOF 5
ENDMDL
MODEL 9
REMARK VINA RESULT:      -7.8      0.421      1.029
REMARK  Name = 
REMARK  7 active torsions:
REMARK  status: ('A' for Active; 'I' for Inactive)
REMARK    1  A    between atoms: C_1  and  C_2
REMARK    2  A    between atoms: C_2  and  C_3
REMARK    3  A    between atoms: C_9  and  O_10
REMARK    4  A    between atoms: O_10  and  C_11
REMARK    5  A    between atoms: C_11  and  C_12
REMARK    6  A    between atoms: N_14  and  C_15
REMARK    7  A    between atoms: C_18  and  N_19
REMARK                            x       y       z     vdW  Elec       q    Type
REMARK                         _______ _______ _______ _____ _____    ______ ____
ROOT
ATOM      1  C   UNL     1       1.550   9.777  18.710  0.00  0.00    +0.000 C 
ATOM      2  O   UNL     1       1.733  10.954  18.405  0.00  0.00    +0.000 OA
ATOM      3  N   UNL     1       0.732   9.317  19.736  0.00  0.00    +0.000 N 
ATOM      4  H   UNL     1       0.848   8.348  20.010  0.00  0.00    +0.000 HD
ENDROOT
BRANCH   3   5
ATOM      5  C   UNL     1      -0.065  10.130  20.567  0.00  0.00    +0.000 A 
ATOM      6  C   UNL     1      -0.893  11.135  20.064  0.00  0.00    +0.000 A 
ATOM      7  C   UNL     1      -1.593  11.988  20.917  0.00  0.00    +0.000 A 
ATOM      8  C   UNL     1      -1.476  11.843  22.301  0.00  0.00    +0.000 A 
ATOM      9  C   UNL     1      -0.699  10.795  22.818  0.00  0.00    +0.000 A 
ATOM     10  C   UNL     1      -0.009   9.936  21.951  0.00  0.00    +0.000 A 
BRANCH   8  11
ATOM     11  N   UNL     1      -2.106  12.761  23.168  0.00  0.00    +0.000 N 
ATOM     12  C   UNL     1      -1.646  13.967  23.636  0.00  0.00    +0.000 A 
ATOM     13  N   UNL     1      -2.523  14.469  24.474  0.00  0.00    +0.000 NA
ATOM     14  N   UNL     1      -3.552  13.568  24.521  0.00  0.00    +0.000 NA
ATOM     15  N   UNL     1      -3.321  12.537  23.722  0.00  0.00    +0.000 NA
ENDBRANCH   8  11
ENDBRANCH   3   5
BRANCH   1  16
ATOM     16  C   UNL     1       2.261   8.666  17.953  0.00  0.00    +0.000 C 
BRANCH  16  17
ATOM     17  O   UNL     1       2.294   7.504  18.771  0.00  0.00    +0.000 OA
BRANCH  17  26
ATOM     18  C   UNL     1       0.881   2.571  18.865  0.00  0.00    +0.000 C 
ATOM     19  C   UNL     1       2.145   3.157  19.501  0.00  0.00    +0.000 C 
ATOM     20  C   UNL     1       2.267   2.700  20.956  0.00  0.00    +0.000 C 
ATOM     21  C   UNL     1       3.409   2.809  18.687  0.00  0.00    +0.000 C 
ATOM     22  C   UNL     1       3.727   4.136  18.108  0.00  0.00    +0.000 A 
ATOM     23  C   UNL     1       4.720   4.462  17.200  0.00  0.00    +0.000 A 
ATOM     24  C   UNL     1       4.853   5.798  16.821  0.00  0.00    +0.000 A 
ATOM     25  C   UNL     1       4.007   6.780  17.364  0.00  0.00    +0.000 A 
ATOM     26  C   UNL     1       3.018   6.446  18.296  0.00  0.00    +0.000 A 
ATOM     27  C   UNL     1       2.894   5.109  18.643  0.00  0.00    +0.000 A 
ATOM     28  O   UNL     1       1.988   4.599  19.535  0.00  0.00    +0.000 OA
ENDBRANCH  17  26
ENDBRANCH  16  17
ENDBRANCH   1  16
TORSDOF 5
ENDMDL
