MODEL 1
REMARK VINA RESULT:      -8.8      0.000      0.000
REMARK  Name = 
REMARK  4 active torsions:
REMARK  status: ('A' for Active; 'I' for Inactive)
REMARK    1  A    between atoms: C_1  and  C_2
REMARK    2  A    between atoms: C_2  and  C_3
REMARK    3  A    between atoms: N_15  and  C_16
REMARK    4  A    between atoms: C_16  and  C_17
REMARK                            x       y       z     vdW  Elec       q    Type
REMARK                         _______ _______ _______ _____ _____    ______ ____
ROOT
ATOM      1  C   UNL     1       5.222   6.549  15.821  0.00  0.00    +0.000 C 
ATOM      2  C   UNL     1       4.944   6.088  17.245  0.00  0.00    +0.000 C 
ATOM      3  N   UNL     1       6.146   6.124  18.059  0.00  0.00    +0.000 N 
ATOM      4  C   UNL     1       6.208   5.035  18.905  0.00  0.00    +0.000 C 
ATOM      5  O   UNL     1       6.958   4.964  19.864  0.00  0.00    +0.000 OA
ATOM      6  N   UNL     1       5.278   4.127  18.503  0.00  0.00    +0.000 N 
ATOM      7  C   UNL     1       4.642   4.574  17.374  0.00  0.00    +0.000 C 
ATOM      8  O   UNL     1       3.851   3.939  16.688  0.00  0.00    +0.000 OA
ATOM      9  H   UNL     1       6.663   6.958  18.282  0.00  0.00    +0.000 HD
ENDROOT
BRANCH   2  10
ATOM     10  C   UNL     1       3.770   6.851  17.885  0.00  0.00    +0.000 A 
ATOM     11  C   UNL     1       3.251   6.416  19.135  0.00  0.00    +0.000 A 
ATOM     12  C   UNL     1       2.238   7.119  19.796  0.00  0.00    +0.000 A 
ATOM     13  C   UNL     1       1.749   8.254  19.192  0.00  0.00    +0.000 A 
ATOM     14  C   UNL     1       2.238   8.692  17.986  0.00  0.00    +0.000 A 
ATOM     15  C   UNL     1       3.239   8.023  17.313  0.00  0.00    +0.000 A 
ATOM     16  O   UNL     1       1.634   9.836  17.566  0.00  0.00    +0.000 OA
ATOM     17  C   UNL     1       0.677  10.041  18.625  0.00  0.00    +0.000 C 
ATOM     18  O   UNL     1       0.775   9.064  19.682  0.00  0.00    +0.000 OA
ENDBRANCH   2  10
BRANCH   6  19
ATOM     19  C   UNL     1       4.825   3.005  19.288  0.00  0.00    +0.000 C 
BRANCH  19  20
ATOM     20  C   UNL     1       3.380   3.081  19.692  0.00  0.00    +0.000 A 
ATOM     21  C   UNL     1       3.014   3.699  20.898  0.00  0.00    +0.000 A 
ATOM     22  C   UNL     1       1.674   3.767  21.281  0.00  0.00    +0.000 A 
ATOM     23  C   UNL     1       0.688   3.219  20.463  0.00  0.00    +0.000 A 
ATOM     24  C   UNL     1       1.049   2.621  19.261  0.00  0.00    +0.000 A 
ATOM     25  F   UNL     1       0.099   2.109  18.468  0.00  0.00    +0.000 F 
ATOM     26  C   UNL     1       2.381   2.546  18.870  0.00  0.00    +0.000 A 
ENDBRANCH  19  20
ENDBRANCH   6  19
TORSDOF 3
ENDMDL
MODEL 2
REMARK VINA RESULT:      -8.5      2.789      4.926
REMARK  Name = 
REMARK  4 active torsions:
REMARK  status: ('A' for Active; 'I' for Inactive)
REMARK    1  A    between atoms: C_1  and  C_2
REMARK    2  A    between atoms: C_2  and  C_3
REMARK    3  A    between atoms: N_15  and  C_16
REMARK    4  A    between atoms: C_16  and  C_17
REMARK                            x       y       z     vdW  Elec       q    Type
REMARK                         _______ _______ _______ _____ _____    ______ ____
ROOT
ATOM      1  C   UNL     1       3.912   0.992  18.173  0.00  0.00    +0.000 C 
ATOM      2  C   UNL     1       3.650   2.329  18.854  0.00  0.00    +0.000 C 
ATOM      3  N   UNL     1       3.800   2.229  20.294  0.00  0.00    +0.000 N 
ATOM      4  C   UNL     1       2.837   2.972  20.947  0.00  0.00    +0.000 C 
ATOM      5  O   UNL     1       2.899   3.274  22.128  0.00  0.00    +0.000 OA
ATOM      6  N   UNL     1       1.881   3.324  20.046  0.00  0.00    +0.000 N 
ATOM      7  C   UNL     1       2.168   2.778  18.821  0.00  0.00    +0.000 C 
ATOM      8  O   UNL     1       1.443   2.791  17.833  0.00  0.00    +0.000 OA
ATOM      9  H   UNL     1       4.657   1.998  20.768  0.00  0.00    +0.000 HD
ENDROOT
BRANCH   2  10
ATOM     10  C   UNL     1       4.493   3.465  18.247  0.00  0.00    +0.000 A 
ATOM     11  C   UNL     1       4.245   3.883  16.910  0.00  0.00    +0.000 A 
ATOM     12  C   UNL     1       4.928   4.961  16.337  0.00  0.00    +0.000 A 
ATOM     13  C   UNL     1       5.861   5.610  17.112  0.00  0.00    +0.000 A 
ATOM     14  C   UNL     1       6.114   5.224  18.405  0.00  0.00    +0.000 A 
ATOM     15  C   UNL     1       5.454   4.168  18.999  0.00  0.00    +0.000 A 
ATOM     16  O   UNL     1       7.058   6.000  19.003  0.00  0.00    +0.000 OA
ATOM     17  C   UNL     1       7.402   6.889  17.921  0.00  0.00    +0.000 C 
ATOM     18  O   UNL     1       6.614   6.675  16.731  0.00  0.00    +0.000 OA
ENDBRANCH   2  10
BRANCH   6  19
ATOM     19  C   UNL     1       0.877   4.337  20.257  0.00  0.00    +0.000 C 
BRANCH  19  20
ATOM     20  C   UNL     1       1.350   5.737  19.985  0.00  0.00    +0.000 A 
ATOM     21  C   UNL     1       1.095   6.762  20.908  0.00  0.00    +0.000 A 
ATOM     22  C   UNL     1       1.527   8.065  20.657  0.00  0.00    +0.000 A 
ATOM     23  C   UNL     1       2.218   8.355  19.482  0.00  0.00    +0.000 A 
ATOM     24  C   UNL     1       2.485   7.335  18.575  0.00  0.00    +0.000 A 
ATOM     25  F   UNL     1       3.163   7.612  17.454  0.00  0.00    +0.000 F 
ATOM     26  C   UNL     1       2.058   6.034  18.814  0.00  0.00    +0.000 A 
ENDBRANCH  19  20
ENDBRANCH   6  19
TORSDOF 3
ENDMDL
MODEL 3
REMARK VINA RESULT:      -8.4      2.913      5.065
REMARK  Name = 
REMARK  4 active torsions:
REMARK  status: ('A' for Active; 'I' for Inactive)
REMARK    1  A    between atoms: C_1  and  C_2
REMARK    2  A    between atoms: C_2  and  C_3
REMARK    3  A    between atoms: N_15  and  C_16
REMARK    4  A    between atoms: C_16  and  C_17
REMARK                            x       y       z     vdW  Elec       q    Type
REMARK                         _______ _______ _______ _____ _____    ______ ____
ROOT
ATOM      1  C   UNL     1       3.974   0.987  18.179  0.00  0.00    +0.000 C 
ATOM      2  C   UNL     1       3.693   2.321  18.857  0.00  0.00    +0.000 C 
ATOM      3  N   UNL     1       3.827   2.223  20.299  0.00  0.00    +0.000 N 
ATOM      4  C   UNL     1       2.850   2.957  20.940  0.00  0.00    +0.000 C 
ATOM      5  O   UNL     1       2.896   3.260  22.122  0.00  0.00    +0.000 OA
ATOM      6  N   UNL     1       1.901   3.300  20.028  0.00  0.00    +0.000 N 
ATOM      7  C   UNL     1       2.208   2.758  18.807  0.00  0.00    +0.000 C 
ATOM      8  O   UNL     1       1.494   2.764  17.811  0.00  0.00    +0.000 OA
ATOM      9  H   UNL     1       4.680   2.000  20.782  0.00  0.00    +0.000 HD
ENDROOT
BRANCH   2  10
ATOM     10  C   UNL     1       4.532   3.466  18.259  0.00  0.00    +0.000 A 
ATOM     11  C   UNL     1       4.281   3.896  16.927  0.00  0.00    +0.000 A 
ATOM     12  C   UNL     1       4.961   4.981  16.364  0.00  0.00    +0.000 A 
ATOM     13  C   UNL     1       5.894   5.624  17.144  0.00  0.00    +0.000 A 
ATOM     14  C   UNL     1       6.150   5.226  18.432  0.00  0.00    +0.000 A 
ATOM     15  C   UNL     1       5.493   4.163  19.016  0.00  0.00    +0.000 A 
ATOM     16  O   UNL     1       7.094   5.998  19.036  0.00  0.00    +0.000 OA
ATOM     17  C   UNL     1       7.434   6.898  17.962  0.00  0.00    +0.000 C 
ATOM     18  O   UNL     1       6.645   6.694  16.772  0.00  0.00    +0.000 OA
ENDBRANCH   2  10
BRANCH   6  19
ATOM     19  C   UNL     1       0.886   4.305  20.227  0.00  0.00    +0.000 C 
BRANCH  19  20
ATOM     20  C   UNL     1       1.349   5.708  19.959  0.00  0.00    +0.000 A 
ATOM     21  C   UNL     1       2.013   6.017  18.763  0.00  0.00    +0.000 A 
ATOM     22  C   UNL     1       2.452   7.318  18.511  0.00  0.00    +0.000 A 
ATOM     23  C   UNL     1       2.229   8.321  19.452  0.00  0.00    +0.000 A 
ATOM     24  C   UNL     1       1.557   8.018  20.631  0.00  0.00    +0.000 A 
ATOM     25  F   UNL     1       1.331   8.987  21.528  0.00  0.00    +0.000 F 
ATOM     26  C   UNL     1       1.117   6.726  20.893  0.00  0.00    +0.000 A 
ENDBRANCH  19  20
ENDBRANCH   6  19
TORSDOF 3
ENDMDL
MODEL 4
REMARK VINA RESULT:      -8.3      0.683      1.446
REMARK  Name = 
REMARK  4 active torsions:
REMARK  status: ('A' for Active; 'I' for Inactive)
REMARK    1  A    between atoms: C_1  and  C_2
REMARK    2  A    between atoms: C_2  and  C_3
REMARK    3  A    between atoms: N_15  and  C_16
REMARK    4  A    between atoms: C_16  and  C_17
REMARK                            x       y       z     vdW  Elec       q    Type
REMARK                         _______ _______ _______ _____ _____    ______ ____
ROOT
ATOM      1  C   UNL     1       5.034   6.605  15.852  0.00  0.00    +0.000 C 
ATOM      2  C   UNL     1       4.842   6.181  17.302  0.00  0.00    +0.000 C 
ATOM      3  N   UNL     1       6.100   6.186  18.027  0.00  0.00    +0.000 N 
ATOM      4  C   UNL     1       6.182   5.111  18.888  0.00  0.00    +0.000 C 
ATOM      5  O   UNL     1       6.996   5.029  19.794  0.00  0.00    +0.000 OA
ATOM      6  N   UNL     1       5.193   4.232  18.574  0.00  0.00    +0.000 N 
ATOM      7  C   UNL     1       4.494   4.683  17.484  0.00  0.00    +0.000 C 
ATOM      8  O   UNL     1       3.633   4.065  16.869  0.00  0.00    +0.000 OA
ATOM      9  H   UNL     1       6.662   7.003  18.195  0.00  0.00    +0.000 HD
ENDROOT
BRANCH   2  10
ATOM     10  C   UNL     1       3.746   7.000  18.007  0.00  0.00    +0.000 A 
ATOM     11  C   UNL     1       3.151   8.101  17.332  0.00  0.00    +0.000 A 
ATOM     12  C   UNL     1       2.099   8.829  17.897  0.00  0.00    +0.000 A 
ATOM     13  C   UNL     1       1.654   8.448  19.141  0.00  0.00    +0.000 A 
ATOM     14  C   UNL     1       2.213   7.386  19.809  0.00  0.00    +0.000 A 
ATOM     15  C   UNL     1       3.249   6.647  19.277  0.00  0.00    +0.000 A 
ATOM     16  O   UNL     1       1.624   7.164  21.015  0.00  0.00    +0.000 OA
ATOM     17  C   UNL     1       0.661   8.236  21.047  0.00  0.00    +0.000 C 
ATOM     18  O   UNL     1       0.645   9.029  19.841  0.00  0.00    +0.000 OA
ENDBRANCH   2  10
BRANCH   6  19
ATOM     19  C   UNL     1       4.756   3.143  19.413  0.00  0.00    +0.000 C 
BRANCH  19  20
ATOM     20  C   UNL     1       3.286   3.157  19.723  0.00  0.00    +0.000 A 
ATOM     21  C   UNL     1       2.807   3.844  20.848  0.00  0.00    +0.000 A 
ATOM     22  C   UNL     1       1.443   3.856  21.144  0.00  0.00    +0.000 A 
ATOM     23  C   UNL     1       0.547   3.181  20.317  0.00  0.00    +0.000 A 
ATOM     24  C   UNL     1       1.020   2.513  19.194  0.00  0.00    +0.000 A 
ATOM     25  F   UNL     1       0.155   1.878  18.392  0.00  0.00    +0.000 F 
ATOM     26  C   UNL     1       2.376   2.494  18.890  0.00  0.00    +0.000 A 
ENDBRANCH  19  20
ENDBRANCH   6  19
TORSDOF 3
ENDMDL
MODEL 5
REMARK VINA RESULT:      -8.2      0.957      1.333
REMARK  Name = 
REMARK  4 active torsions:
REMARK  status: ('A' for Active; 'I' for Inactive)
REMARK    1  A    between atoms: C_1  and  C_2
REMARK    2  A    between atoms: C_2  and  C_3
REMARK    3  A    between atoms: N_15  and  C_16
REMARK    4  A    between atoms: C_16  and  C_17
REMARK                            x       y       z     vdW  Elec       q    Type
REMARK                         _______ _______ _______ _____ _____    ______ ____
ROOT
ATOM      1  C   UNL     1       5.040   6.818  15.760  0.00  0.00    +0.000 C 
ATOM      2  C   UNL     1       4.815   6.180  17.124  0.00  0.00    +0.000 C 
ATOM      3  N   UNL     1       6.048   6.113  17.888  0.00  0.00    +0.000 N 
ATOM      4  C   UNL     1       6.136   4.925  18.586  0.00  0.00    +0.000 C 
ATOM      5  O   UNL     1       6.923   4.732  19.498  0.00  0.00    +0.000 OA
ATOM      6  N   UNL     1       5.187   4.075  18.109  0.00  0.00    +0.000 N 
ATOM      7  C   UNL     1       4.510   4.663  17.072  0.00  0.00    +0.000 C 
ATOM      8  O   UNL     1       3.690   4.119  16.341  0.00  0.00    +0.000 OA
ATOM      9  H   UNL     1       6.577   6.911  18.195  0.00  0.00    +0.000 HD
ENDROOT
BRANCH   2  10
ATOM     10  C   UNL     1       3.671   6.856  17.901  0.00  0.00    +0.000 A 
ATOM     11  C   UNL     1       3.236   6.298  19.134  0.00  0.00    +0.000 A 
ATOM     12  C   UNL     1       2.254   6.916  19.916  0.00  0.00    +0.000 A 
ATOM     13  C   UNL     1       1.713   8.090  19.450  0.00  0.00    +0.000 A 
ATOM     14  C   UNL     1       2.120   8.648  18.263  0.00  0.00    +0.000 A 
ATOM     15  C   UNL     1       3.087   8.065  17.472  0.00  0.00    +0.000 A 
ATOM     16  O   UNL     1       1.473   9.812  17.988  0.00  0.00    +0.000 OA
ATOM     17  C   UNL     1       0.580   9.899  19.117  0.00  0.00    +0.000 C 
ATOM     18  O   UNL     1       0.758   8.831  20.071  0.00  0.00    +0.000 OA
ENDBRANCH   2  10
BRANCH   6  19
ATOM     19  C   UNL     1       4.759   2.863  18.763  0.00  0.00    +0.000 C 
BRANCH  19  20
ATOM     20  C   UNL     1       3.346   2.906  19.272  0.00  0.00    +0.000 A 
ATOM     21  C   UNL     1       2.269   2.792  18.381  0.00  0.00    +0.000 A 
ATOM     22  C   UNL     1       0.954   2.838  18.848  0.00  0.00    +0.000 A 
ATOM     23  C   UNL     1       0.706   2.998  20.210  0.00  0.00    +0.000 A 
ATOM     24  C   UNL     1       1.774   3.095  21.095  0.00  0.00    +0.000 A 
ATOM     25  F   UNL     1       1.533   3.233  22.405  0.00  0.00    +0.000 F 
ATOM     26  C   UNL     1       3.087   3.052  20.641  0.00  0.00    +0.000 A 
ENDBRANCH  19  20
ENDBRANCH   6  19
TORSDOF 3
ENDMDL
MODEL 6
REMARK VINA RESULT:      -8.2      2.253      4.566
REMARK  Name = 
REMARK  4 active torsions:
REMARK  status: ('A' for Active; 'I' for Inactive)
REMARK    1  A    between atoms: C_1  and  C_2
REMARK    2  A    between atoms: C_2  and  C_3
REMARK    3  A    between atoms: N_15  and  C_16
REMARK    4  A    between atoms: C_16  and  C_17
REMARK                            x       y       z     vdW  Elec       q    Type
REMARK                         _______ _______ _______ _____ _____    ______ ____
ROOT
ATOM      1  C   UNL     1       1.808   3.043  21.380  0.00  0.00    +0.000 C 
ATOM      2  C   UNL     1       2.279   3.537  20.019  0.00  0.00    +0.000 C 
ATOM      3  N   UNL     1       1.601   2.843  18.939  0.00  0.00    +0.000 N 
ATOM      4  C   UNL     1       2.467   2.572  17.900  0.00  0.00    +0.000 C 
ATOM      5  O   UNL     1       2.104   2.248  16.781  0.00  0.00    +0.000 OA
ATOM      6  N   UNL     1       3.739   2.778  18.337  0.00  0.00    +0.000 N 
ATOM      7  C   UNL     1       3.729   3.126  19.663  0.00  0.00    +0.000 C 
ATOM      8  O   UNL     1       4.709   3.248  20.388  0.00  0.00    +0.000 OA
ATOM      9  H   UNL     1       0.610   2.881  18.765  0.00  0.00    +0.000 HD
ENDROOT
BRANCH   2  10
ATOM     10  C   UNL     1       2.187   5.068  19.892  0.00  0.00    +0.000 A 
ATOM     11  C   UNL     1       2.634   5.700  18.700  0.00  0.00    +0.000 A 
ATOM     12  C   UNL     1       2.501   7.079  18.503  0.00  0.00    +0.000 A 
ATOM     13  C   UNL     1       1.922   7.814  19.510  0.00  0.00    +0.000 A 
ATOM     14  C   UNL     1       1.481   7.224  20.668  0.00  0.00    +0.000 A 
ATOM     15  C   UNL     1       1.595   5.867  20.890  0.00  0.00    +0.000 A 
ATOM     16  O   UNL     1       0.929   8.120  21.530  0.00  0.00    +0.000 OA
ATOM     17  C   UNL     1       1.115   9.349  20.799  0.00  0.00    +0.000 C 
ATOM     18  O   UNL     1       1.706   9.156  19.496  0.00  0.00    +0.000 OA
ENDBRANCH   2  10
BRANCH   6  19
ATOM     19  C   UNL     1       4.898   2.893  17.485  0.00  0.00    +0.000 C 
BRANCH  19  20
ATOM     20  C   UNL     1       5.364   4.305  17.271  0.00  0.00    +0.000 A 
ATOM     21  C   UNL     1       6.339   4.863  18.110  0.00  0.00    +0.000 A 
ATOM     22  C   UNL     1       6.771   6.177  17.919  0.00  0.00    +0.000 A 
ATOM     23  C   UNL     1       6.232   6.943  16.887  0.00  0.00    +0.000 A 
ATOM     24  C   UNL     1       5.276   6.384  16.046  0.00  0.00    +0.000 A 
ATOM     25  F   UNL     1       4.771   7.117  15.046  0.00  0.00    +0.000 F 
ATOM     26  C   UNL     1       4.838   5.078  16.228  0.00  0.00    +0.000 A 
ENDBRANCH  19  20
ENDBRANCH   6  19
TORSDOF 3
ENDMDL
MODEL 7
REMARK VINA RESULT:      -8.2      2.446      4.740
REMARK  Name = 
REMARK  4 active torsions:
REMARK  status: ('A' for Active; 'I' for Inactive)
REMARK    1  A    between atoms: C_1  and  C_2
REMARK    2  A    between atoms: C_2  and  C_3
REMARK    3  A    between atoms: N_15  and  C_16
REMARK    4  A    between atoms: C_16  and  C_17
REMARK                            x       y       z     vdW  Elec       q    Type
REMARK                         _______ _______ _______ _____ _____    ______ ____
ROOT
ATOM      1  C   UNL     1       1.866   3.068  21.196  0.00  0.00    +0.000 C 
ATOM      2  C   UNL     1       2.332   3.605  19.849  0.00  0.00    +0.000 C 
ATOM      3  N   UNL     1       1.675   2.922  18.750  0.00  0.00    +0.000 N 
ATOM      4  C   UNL     1       2.553   2.696  17.709  0.00  0.00    +0.000 C 
ATOM      5  O   UNL     1       2.202   2.390  16.581  0.00  0.00    +0.000 OA
ATOM      6  N   UNL     1       3.817   2.919  18.157  0.00  0.00    +0.000 N 
ATOM      7  C   UNL     1       3.793   3.236  19.491  0.00  0.00    +0.000 C 
ATOM      8  O   UNL     1       4.767   3.362  20.224  0.00  0.00    +0.000 OA
ATOM      9  H   UNL     1       0.685   2.942  18.571  0.00  0.00    +0.000 HD
ENDROOT
BRANCH   2  10
ATOM     10  C   UNL     1       2.205   5.136  19.758  0.00  0.00    +0.000 A 
ATOM     11  C   UNL     1       2.521   5.794  18.537  0.00  0.00    +0.000 A 
ATOM     12  C   UNL     1       2.349   7.173  18.378  0.00  0.00    +0.000 A 
ATOM     13  C   UNL     1       1.864   7.884  19.451  0.00  0.00    +0.000 A 
ATOM     14  C   UNL     1       1.552   7.269  20.638  0.00  0.00    +0.000 A 
ATOM     15  C   UNL     1       1.707   5.911  20.824  0.00  0.00    +0.000 A 
ATOM     16  O   UNL     1       1.077   8.142  21.566  0.00  0.00    +0.000 OA
ATOM     17  C   UNL     1       1.170   9.385  20.840  0.00  0.00    +0.000 C 
ATOM     18  O   UNL     1       1.629   9.221  19.482  0.00  0.00    +0.000 OA
ENDBRANCH   2  10
BRANCH   6  19
ATOM     19  C   UNL     1       4.978   3.081  17.315  0.00  0.00    +0.000 C 
BRANCH  19  20
ATOM     20  C   UNL     1       5.506   4.486  17.261  0.00  0.00    +0.000 A 
ATOM     21  C   UNL     1       4.932   5.425  16.391  0.00  0.00    +0.000 A 
ATOM     22  C   UNL     1       5.423   6.730  16.332  0.00  0.00    +0.000 A 
ATOM     23  C   UNL     1       6.492   7.108  17.142  0.00  0.00    +0.000 A 
ATOM     24  C   UNL     1       7.050   6.182  18.016  0.00  0.00    +0.000 A 
ATOM     25  F   UNL     1       8.067   6.551  18.805  0.00  0.00    +0.000 F 
ATOM     26  C   UNL     1       6.570   4.879  18.082  0.00  0.00    +0.000 A 
ENDBRANCH  19  20
ENDBRANCH   6  19
TORSDOF 3
ENDMDL
MODEL 8
REMARK VINA RESULT:      -8.2      2.544      5.077
REMARK  Name = 
REMARK  4 active torsions:
REMARK  status: ('A' for Active; 'I' for Inactive)
REMARK    1  A    between atoms: C_1  and  C_2
REMARK    2  A    between atoms: C_2  and  C_3
REMARK    3  A    between atoms: N_15  and  C_16
REMARK    4  A    between atoms: C_16  and  C_17
REMARK                            x       y       z     vdW  Elec       q    Type
REMARK                         _______ _______ _______ _____ _____    ______ ____
ROOT
ATOM      1  C   UNL     1       7.516   7.305  17.228  0.00  0.00    +0.000 C 
ATOM      2  C   UNL     1       6.461   6.213  17.332  0.00  0.00    +0.000 C 
ATOM      3  N   UNL     1       5.182   6.750  17.759  0.00  0.00    +0.000 N 
ATOM      4  C   UNL     1       4.552   5.895  18.641  0.00  0.00    +0.000 C 
ATOM      5  O   UNL     1       3.371   5.975  18.935  0.00  0.00    +0.000 OA
ATOM      6  N   UNL     1       5.454   4.966  19.056  0.00  0.00    +0.000 N 
ATOM      7  C   UNL     1       6.682   5.226  18.504  0.00  0.00    +0.000 C 
ATOM      8  O   UNL     1       7.735   4.660  18.779  0.00  0.00    +0.000 OA
ATOM      9  H   UNL     1       4.638   7.419  17.240  0.00  0.00    +0.000 HD
ENDROOT
BRANCH   2  10
ATOM     10  C   UNL     1       6.355   5.381  16.040  0.00  0.00    +0.000 A 
ATOM     11  C   UNL     1       5.296   4.444  15.896  0.00  0.00    +0.000 A 
ATOM     12  C   UNL     1       5.109   3.721  14.713  0.00  0.00    +0.000 A 
ATOM     13  C   UNL     1       5.994   3.942  13.684  0.00  0.00    +0.000 A 
ATOM     14  C   UNL     1       7.022   4.843  13.801  0.00  0.00    +0.000 A 
ATOM     15  C   UNL     1       7.229   5.574  14.953  0.00  0.00    +0.000 A 
ATOM     16  O   UNL     1       7.774   4.924  12.671  0.00  0.00    +0.000 OA
ATOM     17  C   UNL     1       7.126   3.936  11.844  0.00  0.00    +0.000 C 
ATOM     18  O   UNL     1       5.969   3.339  12.466  0.00  0.00    +0.000 OA
ENDBRANCH   2  10
BRANCH   6  19
ATOM     19  C   UNL     1       5.124   3.737  19.736  0.00  0.00    +0.000 C 
BRANCH  19  20
ATOM     20  C   UNL     1       3.756   3.207  19.415  0.00  0.00    +0.000 A 
ATOM     21  C   UNL     1       3.489   2.653  18.154  0.00  0.00    +0.000 A 
ATOM     22  C   UNL     1       2.218   2.164  17.849  0.00  0.00    +0.000 A 
ATOM     23  C   UNL     1       1.202   2.225  18.801  0.00  0.00    +0.000 A 
ATOM     24  C   UNL     1       1.471   2.760  20.056  0.00  0.00    +0.000 A 
ATOM     25  F   UNL     1       0.498   2.803  20.975  0.00  0.00    +0.000 F 
ATOM     26  C   UNL     1       2.733   3.251  20.371  0.00  0.00    +0.000 A 
ENDBRANCH  19  20
ENDBRANCH   6  19
TORSDOF 3
ENDMDL
MODEL 9
REMARK VINA RESULT:      -8.1      2.418      4.615
REMARK  Name = 
REMARK  4 active torsions:
REMARK  status: ('A' for Active; 'I' for Inactive)
REMARK    1  A    between atoms: C_1  and  C_2
REMARK    2  A    between atoms: C_2  and  C_3
REMARK    3  A    between atoms: N_15  and  C_16
REMARK    4  A    between atoms: C_16  and  C_17
REMARK                            x       y       z     vdW  Elec       q    Type
REMARK                         _______ _______ _______ _____ _____    ______ ____
ROOT
ATOM      1  C   UNL     1       2.294   3.090  21.349  0.00  0.00    +0.000 C 
ATOM      2  C   UNL     1       2.554   3.578  19.930  0.00  0.00    +0.000 C 
ATOM      3  N   UNL     1       1.861   2.761  18.952  0.00  0.00    +0.000 N 
ATOM      4  C   UNL     1       2.641   2.553  17.833  0.00  0.00    +0.000 C 
ATOM      5  O   UNL     1       2.207   2.138  16.771  0.00  0.00    +0.000 OA
ATOM      6  N   UNL     1       3.916   2.931  18.122  0.00  0.00    +0.000 N 
ATOM      7  C   UNL     1       4.000   3.333  19.430  0.00  0.00    +0.000 C 
ATOM      8  O   UNL     1       5.027   3.605  20.041  0.00  0.00    +0.000 OA
ATOM      9  H   UNL     1       0.861   2.670  18.885  0.00  0.00    +0.000 HD
ENDROOT
BRANCH   2  10
ATOM     10  C   UNL     1       2.257   5.080  19.768  0.00  0.00    +0.000 A 
ATOM     11  C   UNL     1       1.793   5.827  20.885  0.00  0.00    +0.000 A 
ATOM     12  C   UNL     1       1.582   7.208  20.812  0.00  0.00    +0.000 A 
ATOM     13  C   UNL     1       1.835   7.829  19.611  0.00  0.00    +0.000 A 
ATOM     14  C   UNL     1       2.285   7.127  18.521  0.00  0.00    +0.000 A 
ATOM     15  C   UNL     1       2.506   5.766  18.563  0.00  0.00    +0.000 A 
ATOM     16  O   UNL     1       2.487   7.925  17.437  0.00  0.00    +0.000 OA
ATOM     17  C   UNL     1       2.067   9.202  17.960  0.00  0.00    +0.000 C 
ATOM     18  O   UNL     1       1.693   9.155  19.353  0.00  0.00    +0.000 OA
ENDBRANCH   2  10
BRANCH   6  19
ATOM     19  C   UNL     1       4.956   3.150  17.147  0.00  0.00    +0.000 C 
BRANCH  19  20
ATOM     20  C   UNL     1       5.494   4.553  17.128  0.00  0.00    +0.000 A 
ATOM     21  C   UNL     1       4.868   5.540  16.354  0.00  0.00    +0.000 A 
ATOM     22  C   UNL     1       5.367   6.844  16.327  0.00  0.00    +0.000 A 
ATOM     23  C   UNL     1       6.497   7.170  17.075  0.00  0.00    +0.000 A 
ATOM     24  C   UNL     1       7.109   6.194  17.854  0.00  0.00    +0.000 A 
ATOM     25  F   UNL     1       8.185   6.514  18.584  0.00  0.00    +0.000 F 
ATOM     26  C   UNL     1       6.621   4.893  17.887  0.00  0.00    +0.000 A 
ENDBRANCH  19  20
ENDBRANCH   6  19
TORSDOF 3
ENDMDL
