MODEL 1
REMARK VINA RESULT:      -9.2      0.000      0.000
REMARK  Name = 
REMARK  3 active torsions:
REMARK  status: ('A' for Active; 'I' for Inactive)
REMARK    1  A    between atoms: C_4  and  C_5
REMARK    2  A    between atoms: N_7  and  C_8
REMARK    3  A    between atoms: C_8  and  C_9
REMARK                            x       y       z     vdW  Elec       q    Type
REMARK                         _______ _______ _______ _____ _____    ______ ____
ROOT
ATOM      1  C   UNL     1       3.832   6.664  18.265  0.00  0.00    +0.000 C 
ATOM      2  O   UNL     1       4.591   7.168  17.438  0.00  0.00    +0.000 OA
ATOM      3  N   UNL     1       2.612   7.218  18.571  0.00  0.00    +0.000 N 
ATOM      4  H   UNL     1       2.001   6.778  19.246  0.00  0.00    +0.000 HD
ENDROOT
BRANCH   1   8
ATOM      5  O   UNL     1       5.152   3.874  15.853  0.00  0.00    +0.000 OA
ATOM      6  C   UNL     1       4.587   3.981  16.936  0.00  0.00    +0.000 C 
ATOM      7  C   UNL     1       5.245   4.615  18.141  0.00  0.00    +0.000 C 
ATOM      8  C   UNL     1       4.217   5.363  18.987  0.00  0.00    +0.000 C 
ATOM      9  C   UNL     1       3.061   4.443  19.312  0.00  0.00    +0.000 A 
ATOM     10  C   UNL     1       2.340   4.567  20.506  0.00  0.00    +0.000 A 
ATOM     11  C   UNL     1       1.197   3.795  20.708  0.00  0.00    +0.000 A 
ATOM     12  C   UNL     1       0.762   2.912  19.718  0.00  0.00    +0.000 A 
ATOM     13  C   UNL     1       1.478   2.784  18.527  0.00  0.00    +0.000 A 
ATOM     14  C   UNL     1       2.634   3.535  18.336  0.00  0.00    +0.000 A 
ATOM     15  N   UNL     1       3.352   3.422  17.144  0.00  0.00    +0.000 N 
ATOM     16  H   UNL     1       2.976   2.892  16.367  0.00  0.00    +0.000 HD
ENDBRANCH   1   8
BRANCH   3  17
ATOM     17  C   UNL     1       2.103   8.402  17.918  0.00  0.00    +0.000 C 
BRANCH  17  18
ATOM     18  C   UNL     1       1.370   9.293  18.889  0.00  0.00    +0.000 A 
ATOM     19  C   UNL     1       0.870  10.535  18.482  0.00  0.00    +0.000 A 
ATOM     20  C   UNL     1       0.127  11.325  19.363  0.00  0.00    +0.000 A 
ATOM     21  C   UNL     1      -0.135  10.891  20.671  0.00  0.00    +0.000 A 
ATOM     22  C   UNL     1      -0.910  11.659  21.556  0.00  0.00    +0.000 A 
ATOM     23  C   UNL     1      -1.174  11.208  22.851  0.00  0.00    +0.000 A 
ATOM     24  C   UNL     1      -0.655   9.990  23.280  0.00  0.00    +0.000 A 
ATOM     25  C   UNL     1       0.120   9.216  22.413  0.00  0.00    +0.000 A 
ATOM     26  C   UNL     1       0.382   9.649  21.103  0.00  0.00    +0.000 A 
ATOM     27  C   UNL     1       1.131   8.867  20.207  0.00  0.00    +0.000 A 
ENDBRANCH  17  18
ENDBRANCH   3  17
TORSDOF 3
ENDMDL
MODEL 2
REMARK VINA RESULT:      -8.9      1.863      3.310
REMARK  Name = 
REMARK  3 active torsions:
REMARK  status: ('A' for Active; 'I' for Inactive)
REMARK    1  A    between atoms: C_4  and  C_5
REMARK    2  A    between atoms: N_7  and  C_8
REMARK    3  A    between atoms: C_8  and  C_9
REMARK                            x       y       z     vdW  Elec       q    Type
REMARK                         _______ _______ _______ _____ _____    ______ ____
ROOT
ATOM      1  C   UNL     1       2.196   5.009  18.764  0.00  0.00    +0.000 C 
ATOM      2  O   UNL     1       1.217   4.316  19.036  0.00  0.00    +0.000 OA
ATOM      3  N   UNL     1       2.583   6.069  19.550  0.00  0.00    +0.000 N 
ATOM      4  H   UNL     1       3.399   6.616  19.310  0.00  0.00    +0.000 HD
ENDROOT
BRANCH   1   8
ATOM      5  O   UNL     1       3.770   1.422  18.805  0.00  0.00    +0.000 OA
ATOM      6  C   UNL     1       3.994   2.535  18.340  0.00  0.00    +0.000 C 
ATOM      7  C   UNL     1       3.093   3.189  17.317  0.00  0.00    +0.000 C 
ATOM      8  C   UNL     1       3.049   4.702  17.524  0.00  0.00    +0.000 C 
ATOM      9  C   UNL     1       4.459   5.249  17.563  0.00  0.00    +0.000 A 
ATOM     10  C   UNL     1       4.756   6.538  17.105  0.00  0.00    +0.000 A 
ATOM     11  C   UNL     1       6.037   7.060  17.286  0.00  0.00    +0.000 A 
ATOM     12  C   UNL     1       7.017   6.304  17.932  0.00  0.00    +0.000 A 
ATOM     13  C   UNL     1       6.726   5.017  18.389  0.00  0.00    +0.000 A 
ATOM     14  C   UNL     1       5.455   4.488  18.185  0.00  0.00    +0.000 A 
ATOM     15  N   UNL     1       5.150   3.206  18.645  0.00  0.00    +0.000 N 
ATOM     16  H   UNL     1       5.804   2.703  19.234  0.00  0.00    +0.000 HD
ENDBRANCH   1   8
BRANCH   3  17
ATOM     17  C   UNL     1       1.906   6.424  20.775  0.00  0.00    +0.000 C 
BRANCH  17  18
ATOM     18  C   UNL     1       1.392   7.840  20.728  0.00  0.00    +0.000 A 
ATOM     19  C   UNL     1       1.521   8.609  19.565  0.00  0.00    +0.000 A 
ATOM     20  C   UNL     1       0.977   9.894  19.500  0.00  0.00    +0.000 A 
ATOM     21  C   UNL     1       0.290  10.441  20.594  0.00  0.00    +0.000 A 
ATOM     22  C   UNL     1      -0.291  11.718  20.530  0.00  0.00    +0.000 A 
ATOM     23  C   UNL     1      -0.983  12.244  21.623  0.00  0.00    +0.000 A 
ATOM     24  C   UNL     1      -1.091  11.504  22.797  0.00  0.00    +0.000 A 
ATOM     25  C   UNL     1      -0.515  10.233  22.877  0.00  0.00    +0.000 A 
ATOM     26  C   UNL     1       0.171   9.685  21.782  0.00  0.00    +0.000 A 
ATOM     27  C   UNL     1       0.727   8.395  21.834  0.00  0.00    +0.000 A 
ENDBRANCH  17  18
ENDBRANCH   3  17
TORSDOF 3
ENDMDL
MODEL 3
REMARK VINA RESULT:      -8.8      2.073      3.621
REMARK  Name = 
REMARK  3 active torsions:
REMARK  status: ('A' for Active; 'I' for Inactive)
REMARK    1  A    between atoms: C_4  and  C_5
REMARK    2  A    between atoms: N_7  and  C_8
REMARK    3  A    between atoms: C_8  and  C_9
REMARK                            x       y       z     vdW  Elec       q    Type
REMARK                         _______ _______ _______ _____ _____    ______ ____
ROOT
ATOM      1  C   UNL     1       2.681   5.228  18.298  0.00  0.00    +0.000 C 
ATOM      2  O   UNL     1       1.540   4.772  18.226  0.00  0.00    +0.000 OA
ATOM      3  N   UNL     1       3.023   6.203  19.204  0.00  0.00    +0.000 N 
ATOM      4  H   UNL     1       3.970   6.553  19.251  0.00  0.00    +0.000 HD
ENDROOT
BRANCH   1   8
ATOM      5  O   UNL     1       4.275   1.868  19.530  0.00  0.00    +0.000 OA
ATOM      6  C   UNL     1       4.574   2.856  18.867  0.00  0.00    +0.000 C 
ATOM      7  C   UNL     1       3.906   3.191  17.552  0.00  0.00    +0.000 C 
ATOM      8  C   UNL     1       3.790   4.703  17.374  0.00  0.00    +0.000 C 
ATOM      9  C   UNL     1       5.146   5.343  17.572  0.00  0.00    +0.000 A 
ATOM     10  C   UNL     1       5.512   6.509  16.889  0.00  0.00    +0.000 A 
ATOM     11  C   UNL     1       6.713   7.147  17.201  0.00  0.00    +0.000 A 
ATOM     12  C   UNL     1       7.541   6.633  18.199  0.00  0.00    +0.000 A 
ATOM     13  C   UNL     1       7.182   5.469  18.882  0.00  0.00    +0.000 A 
ATOM     14  C   UNL     1       5.997   4.819  18.553  0.00  0.00    +0.000 A 
ATOM     15  N   UNL     1       5.623   3.659  19.235  0.00  0.00    +0.000 N 
ATOM     16  H   UNL     1       6.142   3.354  20.050  0.00  0.00    +0.000 HD
ENDBRANCH   1   8
BRANCH   3  17
ATOM     17  C   UNL     1       2.091   6.736  20.171  0.00  0.00    +0.000 C 
BRANCH  17  18
ATOM     18  C   UNL     1       1.656   8.132  19.802  0.00  0.00    +0.000 A 
ATOM     19  C   UNL     1       1.970   8.672  18.550  0.00  0.00    +0.000 A 
ATOM     20  C   UNL     1       1.502   9.935  18.183  0.00  0.00    +0.000 A 
ATOM     21  C   UNL     1       0.707  10.690  19.059  0.00  0.00    +0.000 A 
ATOM     22  C   UNL     1       0.201  11.947  18.690  0.00  0.00    +0.000 A 
ATOM     23  C   UNL     1      -0.600  12.681  19.568  0.00  0.00    +0.000 A 
ATOM     24  C   UNL     1      -0.894  12.170  20.829  0.00  0.00    +0.000 A 
ATOM     25  C   UNL     1      -0.395  10.923  21.212  0.00  0.00    +0.000 A 
ATOM     26  C   UNL     1       0.400  10.167  20.336  0.00  0.00    +0.000 A 
ATOM     27  C   UNL     1       0.881   8.895  20.692  0.00  0.00    +0.000 A 
ENDBRANCH  17  18
ENDBRANCH   3  17
TORSDOF 3
ENDMDL
MODEL 4
REMARK VINA RESULT:      -8.8      1.754      2.466
REMARK  Name = 
REMARK  3 active torsions:
REMARK  status: ('A' for Active; 'I' for Inactive)
REMARK    1  A    between atoms: C_4  and  C_5
REMARK    2  A    between atoms: N_7  and  C_8
REMARK    3  A    between atoms: C_8  and  C_9
REMARK                            x       y       z     vdW  Elec       q    Type
REMARK                         _______ _______ _______ _____ _____    ______ ____
ROOT
ATOM      1  C   UNL     1       3.404   6.683  18.311  0.00  0.00    +0.000 C 
ATOM      2  O   UNL     1       3.926   6.601  17.200  0.00  0.00    +0.000 OA
ATOM      3  N   UNL     1       2.545   7.704  18.642  0.00  0.00    +0.000 N 
ATOM      4  H   UNL     1       2.121   7.742  19.559  0.00  0.00    +0.000 HD
ENDROOT
BRANCH   1   8
ATOM      5  O   UNL     1       6.542   4.471  17.534  0.00  0.00    +0.000 OA
ATOM      6  C   UNL     1       5.478   4.402  18.139  0.00  0.00    +0.000 C 
ATOM      7  C   UNL     1       5.167   5.257  19.346  0.00  0.00    +0.000 C 
ATOM      8  C   UNL     1       3.684   5.620  19.385  0.00  0.00    +0.000 C 
ATOM      9  C   UNL     1       2.851   4.362  19.273  0.00  0.00    +0.000 A 
ATOM     10  C   UNL     1       1.599   4.256  19.890  0.00  0.00    +0.000 A 
ATOM     11  C   UNL     1       0.800   3.138  19.651  0.00  0.00    +0.000 A 
ATOM     12  C   UNL     1       1.241   2.133  18.789  0.00  0.00    +0.000 A 
ATOM     13  C   UNL     1       2.490   2.233  18.172  0.00  0.00    +0.000 A 
ATOM     14  C   UNL     1       3.297   3.336  18.432  0.00  0.00    +0.000 A 
ATOM     15  N   UNL     1       4.544   3.451  17.814  0.00  0.00    +0.000 N 
ATOM     16  H   UNL     1       4.816   2.802  17.085  0.00  0.00    +0.000 HD
ENDBRANCH   1   8
BRANCH   3  17
ATOM     17  C   UNL     1       2.150   8.730  17.706  0.00  0.00    +0.000 C 
BRANCH  17  18
ATOM     18  C   UNL     1       0.962   9.509  18.214  0.00  0.00    +0.000 A 
ATOM     19  C   UNL     1       1.087  10.368  19.311  0.00  0.00    +0.000 A 
ATOM     20  C   UNL     1       0.005  11.144  19.733  0.00  0.00    +0.000 A 
ATOM     21  C   UNL     1      -1.228  11.081  19.066  0.00  0.00    +0.000 A 
ATOM     22  C   UNL     1      -2.314  11.881  19.457  0.00  0.00    +0.000 A 
ATOM     23  C   UNL     1      -3.532  11.817  18.775  0.00  0.00    +0.000 A 
ATOM     24  C   UNL     1      -3.680  10.942  17.702  0.00  0.00    +0.000 A 
ATOM     25  C   UNL     1      -2.610  10.138  17.304  0.00  0.00    +0.000 A 
ATOM     26  C   UNL     1      -1.375  10.201  17.970  0.00  0.00    +0.000 A 
ATOM     27  C   UNL     1      -0.278   9.424  17.560  0.00  0.00    +0.000 A 
ENDBRANCH  17  18
ENDBRANCH   3  17
TORSDOF 3
ENDMDL
MODEL 5
REMARK VINA RESULT:      -8.7      0.720      1.634
REMARK  Name = 
REMARK  3 active torsions:
REMARK  status: ('A' for Active; 'I' for Inactive)
REMARK    1  A    between atoms: C_4  and  C_5
REMARK    2  A    between atoms: N_7  and  C_8
REMARK    3  A    between atoms: C_8  and  C_9
REMARK                            x       y       z     vdW  Elec       q    Type
REMARK                         _______ _______ _______ _____ _____    ______ ____
ROOT
ATOM      1  C   UNL     1       3.514   6.653  18.635  0.00  0.00    +0.000 C 
ATOM      2  O   UNL     1       4.012   7.168  17.634  0.00  0.00    +0.000 OA
ATOM      3  N   UNL     1       2.483   7.245  19.326  0.00  0.00    +0.000 N 
ATOM      4  H   UNL     1       2.084   6.796  20.138  0.00  0.00    +0.000 HD
ENDROOT
BRANCH   1   8
ATOM      5  O   UNL     1       4.805   4.290  15.789  0.00  0.00    +0.000 OA
ATOM      6  C   UNL     1       4.316   4.220  16.912  0.00  0.00    +0.000 C 
ATOM      7  C   UNL     1       5.024   4.732  18.146  0.00  0.00    +0.000 C 
ATOM      8  C   UNL     1       4.021   5.297  19.149  0.00  0.00    +0.000 C 
ATOM      9  C   UNL     1       2.943   4.271  19.422  0.00  0.00    +0.000 A 
ATOM     10  C   UNL     1       2.306   4.192  20.667  0.00  0.00    +0.000 A 
ATOM     11  C   UNL     1       1.224   3.329  20.837  0.00  0.00    +0.000 A 
ATOM     12  C   UNL     1       0.768   2.556  19.768  0.00  0.00    +0.000 A 
ATOM     13  C   UNL     1       1.401   2.630  18.526  0.00  0.00    +0.000 A 
ATOM     14  C   UNL     1       2.497   3.472  18.364  0.00  0.00    +0.000 A 
ATOM     15  N   UNL     1       3.132   3.561  17.123  0.00  0.00    +0.000 N 
ATOM     16  H   UNL     1       2.729   3.113  16.308  0.00  0.00    +0.000 HD
ENDBRANCH   1   8
BRANCH   3  17
ATOM     17  C   UNL     1       1.873   8.487  18.911  0.00  0.00    +0.000 C 
BRANCH  17  18
ATOM     18  C   UNL     1       1.022   9.074  20.008  0.00  0.00    +0.000 A 
ATOM     19  C   UNL     1       1.091   8.572  21.313  0.00  0.00    +0.000 A 
ATOM     20  C   UNL     1       0.357   9.166  22.342  0.00  0.00    +0.000 A 
ATOM     21  C   UNL     1      -0.462  10.278  22.093  0.00  0.00    +0.000 A 
ATOM     22  C   UNL     1      -1.178  10.907  23.125  0.00  0.00    +0.000 A 
ATOM     23  C   UNL     1      -1.978  12.021  22.864  0.00  0.00    +0.000 A 
ATOM     24  C   UNL     1      -2.081  12.511  21.565  0.00  0.00    +0.000 A 
ATOM     25  C   UNL     1      -1.377  11.895  20.527  0.00  0.00    +0.000 A 
ATOM     26  C   UNL     1      -0.557  10.783  20.776  0.00  0.00    +0.000 A 
ATOM     27  C   UNL     1       0.184  10.172  19.750  0.00  0.00    +0.000 A 
ENDBRANCH  17  18
ENDBRANCH   3  17
TORSDOF 3
ENDMDL
MODEL 6
REMARK VINA RESULT:      -8.7      2.130      3.776
REMARK  Name = 
REMARK  3 active torsions:
REMARK  status: ('A' for Active; 'I' for Inactive)
REMARK    1  A    between atoms: C_4  and  C_5
REMARK    2  A    between atoms: N_7  and  C_8
REMARK    3  A    between atoms: C_8  and  C_9
REMARK                            x       y       z     vdW  Elec       q    Type
REMARK                         _______ _______ _______ _____ _____    ______ ____
ROOT
ATOM      1  C   UNL     1       4.026   6.611  17.659  0.00  0.00    +0.000 C 
ATOM      2  O   UNL     1       4.902   7.451  17.457  0.00  0.00    +0.000 OA
ATOM      3  N   UNL     1       2.729   6.962  17.953  0.00  0.00    +0.000 N 
ATOM      4  H   UNL     1       2.026   6.252  18.104  0.00  0.00    +0.000 HD
ENDROOT
BRANCH   1   8
ATOM      5  O   UNL     1       6.946   5.506  20.025  0.00  0.00    +0.000 OA
ATOM      6  C   UNL     1       6.424   5.171  18.968  0.00  0.00    +0.000 C 
ATOM      7  C   UNL     1       4.999   4.670  18.883  0.00  0.00    +0.000 C 
ATOM      8  C   UNL     1       4.348   5.111  17.574  0.00  0.00    +0.000 C 
ATOM      9  C   UNL     1       5.227   4.709  16.410  0.00  0.00    +0.000 A 
ATOM     10  C   UNL     1       4.683   4.381  15.161  0.00  0.00    +0.000 A 
ATOM     11  C   UNL     1       5.529   4.152  14.076  0.00  0.00    +0.000 A 
ATOM     12  C   UNL     1       6.912   4.263  14.229  0.00  0.00    +0.000 A 
ATOM     13  C   UNL     1       7.458   4.588  15.472  0.00  0.00    +0.000 A 
ATOM     14  C   UNL     1       6.616   4.791  16.560  0.00  0.00    +0.000 A 
ATOM     15  N   UNL     1       7.151   5.125  17.806  0.00  0.00    +0.000 N 
ATOM     16  H   UNL     1       8.136   5.343  17.898  0.00  0.00    +0.000 HD
ENDBRANCH   1   8
BRANCH   3  17
ATOM     17  C   UNL     1       2.281   8.334  18.000  0.00  0.00    +0.000 C 
BRANCH  17  18
ATOM     18  C   UNL     1       1.551   8.629  19.286  0.00  0.00    +0.000 A 
ATOM     19  C   UNL     1       1.702   7.797  20.401  0.00  0.00    +0.000 A 
ATOM     20  C   UNL     1       1.083   8.114  21.613  0.00  0.00    +0.000 A 
ATOM     21  C   UNL     1       0.299   9.271  21.739  0.00  0.00    +0.000 A 
ATOM     22  C   UNL     1      -0.301   9.619  22.961  0.00  0.00    +0.000 A 
ATOM     23  C   UNL     1      -1.067  10.782  23.075  0.00  0.00    +0.000 A 
ATOM     24  C   UNL     1      -1.253  11.601  21.965  0.00  0.00    +0.000 A 
ATOM     25  C   UNL     1      -0.666  11.266  20.742  0.00  0.00    +0.000 A 
ATOM     26  C   UNL     1       0.120  10.109  20.616  0.00  0.00    +0.000 A 
ATOM     27  C   UNL     1       0.746   9.775  19.402  0.00  0.00    +0.000 A 
ENDBRANCH  17  18
ENDBRANCH   3  17
TORSDOF 3
ENDMDL
MODEL 7
REMARK VINA RESULT:      -8.6      2.770      4.431
REMARK  Name = 
REMARK  3 active torsions:
REMARK  status: ('A' for Active; 'I' for Inactive)
REMARK    1  A    between atoms: C_4  and  C_5
REMARK    2  A    between atoms: N_7  and  C_8
REMARK    3  A    between atoms: C_8  and  C_9
REMARK                            x       y       z     vdW  Elec       q    Type
REMARK                         _______ _______ _______ _____ _____    ______ ____
ROOT
ATOM      1  C   UNL     1       2.253   7.394  18.908  0.00  0.00    +0.000 C 
ATOM      2  O   UNL     1       2.198   7.101  20.101  0.00  0.00    +0.000 OA
ATOM      3  N   UNL     1       1.859   8.625  18.438  0.00  0.00    +0.000 N 
ATOM      4  H   UNL     1       1.926   8.844  17.453  0.00  0.00    +0.000 HD
ENDROOT
BRANCH   1   8
ATOM      5  O   UNL     1       1.889   3.664  20.049  0.00  0.00    +0.000 OA
ATOM      6  C   UNL     1       2.603   4.355  19.330  0.00  0.00    +0.000 C 
ATOM      7  C   UNL     1       2.085   5.047  18.088  0.00  0.00    +0.000 C 
ATOM      8  C   UNL     1       2.790   6.385  17.881  0.00  0.00    +0.000 C 
ATOM      9  C   UNL     1       4.289   6.179  17.908  0.00  0.00    +0.000 A 
ATOM     10  C   UNL     1       5.152   6.984  17.155  0.00  0.00    +0.000 A 
ATOM     11  C   UNL     1       6.532   6.856  17.313  0.00  0.00    +0.000 A 
ATOM     12  C   UNL     1       7.052   5.938  18.227  0.00  0.00    +0.000 A 
ATOM     13  C   UNL     1       6.195   5.131  18.978  0.00  0.00    +0.000 A 
ATOM     14  C   UNL     1       4.819   5.241  18.802  0.00  0.00    +0.000 A 
ATOM     15  N   UNL     1       3.953   4.446  19.555  0.00  0.00    +0.000 N 
ATOM     16  H   UNL     1       4.308   3.879  20.315  0.00  0.00    +0.000 HD
ENDBRANCH   1   8
BRANCH   3  17
ATOM     17  C   UNL     1       1.397   9.683  19.304  0.00  0.00    +0.000 C 
BRANCH  17  18
ATOM     18  C   UNL     1       0.008  10.134  18.927  0.00  0.00    +0.000 A 
ATOM     19  C   UNL     1      -0.723  10.978  19.772  0.00  0.00    +0.000 A 
ATOM     20  C   UNL     1      -1.979  11.453  19.386  0.00  0.00    +0.000 A 
ATOM     21  C   UNL     1      -2.533  11.099  18.146  0.00  0.00    +0.000 A 
ATOM     22  C   UNL     1      -3.779  11.598  17.732  0.00  0.00    +0.000 A 
ATOM     23  C   UNL     1      -4.311  11.246  16.489  0.00  0.00    +0.000 A 
ATOM     24  C   UNL     1      -3.610  10.382  15.654  0.00  0.00    +0.000 A 
ATOM     25  C   UNL     1      -2.371   9.875  16.054  0.00  0.00    +0.000 A 
ATOM     26  C   UNL     1      -1.816  10.230  17.294  0.00  0.00    +0.000 A 
ATOM     27  C   UNL     1      -0.555   9.756  17.697  0.00  0.00    +0.000 A 
ENDBRANCH  17  18
ENDBRANCH   3  17
TORSDOF 3
ENDMDL
MODEL 8
REMARK VINA RESULT:      -8.4      3.021      8.316
REMARK  Name = 
REMARK  3 active torsions:
REMARK  status: ('A' for Active; 'I' for Inactive)
REMARK    1  A    between atoms: C_4  and  C_5
REMARK    2  A    between atoms: N_7  and  C_8
REMARK    3  A    between atoms: C_8  and  C_9
REMARK                            x       y       z     vdW  Elec       q    Type
REMARK                         _______ _______ _______ _____ _____    ______ ____
ROOT
ATOM      1  C   UNL     1       1.264  10.634  18.899  0.00  0.00    +0.000 C 
ATOM      2  O   UNL     1       2.063  11.261  18.205  0.00  0.00    +0.000 OA
ATOM      3  N   UNL     1       1.291   9.262  18.986  0.00  0.00    +0.000 N 
ATOM      4  H   UNL     1       0.630   8.771  19.572  0.00  0.00    +0.000 HD
ENDROOT
BRANCH   1   8
ATOM      5  O   UNL     1      -2.131  11.098  17.001  0.00  0.00    +0.000 OA
ATOM      6  C   UNL     1      -1.473  11.639  17.882  0.00  0.00    +0.000 C 
ATOM      7  C   UNL     1      -1.184  10.977  19.211  0.00  0.00    +0.000 C 
ATOM      8  C   UNL     1       0.199  11.372  19.723  0.00  0.00    +0.000 C 
ATOM      9  C   UNL     1       0.325  12.880  19.731  0.00  0.00    +0.000 A 
ATOM     10  C   UNL     1       1.118  13.543  20.675  0.00  0.00    +0.000 A 
ATOM     11  C   UNL     1       1.321  14.919  20.566  0.00  0.00    +0.000 A 
ATOM     12  C   UNL     1       0.748  15.631  19.511  0.00  0.00    +0.000 A 
ATOM     13  C   UNL     1      -0.045  14.974  18.568  0.00  0.00    +0.000 A 
ATOM     14  C   UNL     1      -0.268  13.607  18.692  0.00  0.00    +0.000 A 
ATOM     15  N   UNL     1      -1.052  12.938  17.750  0.00  0.00    +0.000 N 
ATOM     16  H   UNL     1      -1.358  13.413  16.909  0.00  0.00    +0.000 HD
ENDBRANCH   1   8
BRANCH   3  17
ATOM     17  C   UNL     1       2.280   8.454  18.313  0.00  0.00    +0.000 C 
BRANCH  17  18
ATOM     18  C   UNL     1       2.246   7.026  18.798  0.00  0.00    +0.000 A 
ATOM     19  C   UNL     1       1.983   6.734  20.141  0.00  0.00    +0.000 A 
ATOM     20  C   UNL     1       1.878   5.410  20.572  0.00  0.00    +0.000 A 
ATOM     21  C   UNL     1       2.031   4.345  19.671  0.00  0.00    +0.000 A 
ATOM     22  C   UNL     1       1.893   3.010  20.084  0.00  0.00    +0.000 A 
ATOM     23  C   UNL     1       2.036   1.961  19.172  0.00  0.00    +0.000 A 
ATOM     24  C   UNL     1       2.329   2.237  17.840  0.00  0.00    +0.000 A 
ATOM     25  C   UNL     1       2.473   3.559  17.415  0.00  0.00    +0.000 A 
ATOM     26  C   UNL     1       2.318   4.625  18.316  0.00  0.00    +0.000 A 
ATOM     27  C   UNL     1       2.425   5.963  17.898  0.00  0.00    +0.000 A 
ENDBRANCH  17  18
ENDBRANCH   3  17
TORSDOF 3
ENDMDL
MODEL 9
REMARK VINA RESULT:      -8.3      1.441      2.116
REMARK  Name = 
REMARK  3 active torsions:
REMARK  status: ('A' for Active; 'I' for Inactive)
REMARK    1  A    between atoms: C_4  and  C_5
REMARK    2  A    between atoms: N_7  and  C_8
REMARK    3  A    between atoms: C_8  and  C_9
REMARK                            x       y       z     vdW  Elec       q    Type
REMARK                         _______ _______ _______ _____ _____    ______ ____
ROOT
ATOM      1  C   UNL     1       2.903   6.671  18.212  0.00  0.00    +0.000 C 
ATOM      2  O   UNL     1       1.897   6.077  17.825  0.00  0.00    +0.000 OA
ATOM      3  N   UNL     1       2.938   8.039  18.344  0.00  0.00    +0.000 N 
ATOM      4  H   UNL     1       3.773   8.502  18.675  0.00  0.00    +0.000 HD
ENDROOT
BRANCH   1   8
ATOM      5  O   UNL     1       5.370   6.177  15.209  0.00  0.00    +0.000 OA
ATOM      6  C   UNL     1       5.059   5.631  16.262  0.00  0.00    +0.000 C 
ATOM      7  C   UNL     1       5.288   6.270  17.613  0.00  0.00    +0.000 C 
ATOM      8  C   UNL     1       4.173   5.893  18.586  0.00  0.00    +0.000 C 
ATOM      9  C   UNL     1       4.017   4.389  18.620  0.00  0.00    +0.000 A 
ATOM     10  C   UNL     1       3.601   3.722  19.779  0.00  0.00    +0.000 A 
ATOM     11  C   UNL     1       3.335   2.354  19.734  0.00  0.00    +0.000 A 
ATOM     12  C   UNL     1       3.469   1.653  18.534  0.00  0.00    +0.000 A 
ATOM     13  C   UNL     1       3.885   2.312  17.376  0.00  0.00    +0.000 A 
ATOM     14  C   UNL     1       4.176   3.672  17.428  0.00  0.00    +0.000 A 
ATOM     15  N   UNL     1       4.584   4.344  16.274  0.00  0.00    +0.000 N 
ATOM     16  H   UNL     1       4.553   3.882  15.374  0.00  0.00    +0.000 HD
ENDBRANCH   1   8
BRANCH   3  17
ATOM     17  C   UNL     1       1.793   8.881  18.087  0.00  0.00    +0.000 C 
BRANCH  17  18
ATOM     18  C   UNL     1       1.072   9.233  19.363  0.00  0.00    +0.000 A 
ATOM     19  C   UNL     1       1.315   8.518  20.542  0.00  0.00    +0.000 A 
ATOM     20  C   UNL     1       0.702   8.893  21.739  0.00  0.00    +0.000 A 
ATOM     21  C   UNL     1      -0.167   9.995  21.789  0.00  0.00    +0.000 A 
ATOM     22  C   UNL     1      -0.763  10.404  22.993  0.00  0.00    +0.000 A 
ATOM     23  C   UNL     1      -1.615  11.510  23.028  0.00  0.00    +0.000 A 
ATOM     24  C   UNL     1      -1.891  12.211  21.858  0.00  0.00    +0.000 A 
ATOM     25  C   UNL     1      -1.308  11.813  20.652  0.00  0.00    +0.000 A 
ATOM     26  C   UNL     1      -0.438  10.712  20.602  0.00  0.00    +0.000 A 
ATOM     27  C   UNL     1       0.183  10.320  19.404  0.00  0.00    +0.000 A 
ENDBRANCH  17  18
ENDBRANCH   3  17
TORSDOF 3
ENDMDL
