MODEL 1
REMARK VINA RESULT:      -7.0      0.000      0.000
REMARK  Name = 
REMARK  4 active torsions:
REMARK  status: ('A' for Active; 'I' for Inactive)
REMARK    1  A    between atoms: C_2  and  C_22
REMARK    2  A    between atoms: N_3  and  C_4
REMARK    3  A    between atoms: C_8  and  C_9
REMARK    4  A    between atoms: C_27  and  N_28
REMARK                            x       y       z     vdW  Elec       q    Type
REMARK                         _______ _______ _______ _____ _____    ______ ____
ROOT
ATOM      1  C   UNL     1      -2.072  13.886  22.594  0.00  0.00    +0.000 A 
ATOM      2  S   UNL     1      -1.386  14.840  23.815  0.00  0.00    +0.000 S 
ATOM      3  C   UNL     1      -2.829  15.717  24.009  0.00  0.00    +0.000 A 
ATOM      4  C   UNL     1      -3.863  15.226  23.228  0.00  0.00    +0.000 A 
ATOM      5  C   UNL     1      -3.413  14.156  22.373  0.00  0.00    +0.000 A 
ATOM      6  C   UNL     1      -5.265  15.753  23.372  0.00  0.00    +0.000 C 
ATOM      7  C   UNL     1      -5.300  17.124  24.063  0.00  0.00    +0.000 C 
ATOM      8  C   UNL     1      -4.396  17.167  25.301  0.00  0.00    +0.000 C 
ATOM      9  C   UNL     1      -2.929  16.878  24.950  0.00  0.00    +0.000 C 
ENDROOT
BRANCH   5  10
ATOM     10  C   UNL     1      -4.290  13.369  21.450  0.00  0.00    +0.000 A 
ATOM     11  N   UNL     1      -5.243  12.536  21.819  0.00  0.00    +0.000 NA
ATOM     12  C   UNL     1      -5.805  12.069  20.654  0.00  0.00    +0.000 A 
ATOM     13  C   UNL     1      -6.893  11.212  20.456  0.00  0.00    +0.000 A 
ATOM     14  C   UNL     1      -7.273  10.902  19.143  0.00  0.00    +0.000 A 
ATOM     15  C   UNL     1      -6.579  11.427  18.050  0.00  0.00    +0.000 A 
ATOM     16  C   UNL     1      -5.488  12.282  18.227  0.00  0.00    +0.000 A 
ATOM     17  C   UNL     1      -5.148  12.590  19.544  0.00  0.00    +0.000 A 
ATOM     18  N   UNL     1      -4.194  13.399  20.082  0.00  0.00    +0.000 N 
ATOM     19  H   UNL     1      -3.537  13.961  19.571  0.00  0.00    +0.000 HD
ENDBRANCH   5  10
BRANCH   1  22
ATOM     20  O   UNL     1      -2.108  11.197  23.445  0.00  0.00    +0.000 OA
ATOM     21  C   UNL     1      -1.367  11.594  22.564  0.00  0.00    +0.000 C 
ATOM     22  N   UNL     1      -1.232  12.905  22.104  0.00  0.00    +0.000 N 
ATOM     23  H   UNL     1      -1.082  12.960  21.103  0.00  0.00    +0.000 HD
BRANCH  21  24
ATOM     24  C   UNL     1      -0.415  10.648  21.929  0.00  0.00    +0.000 A 
ATOM     25  C   UNL     1       0.234   9.715  22.750  0.00  0.00    +0.000 A 
ATOM     26  C   UNL     1       1.079   8.746  22.200  0.00  0.00    +0.000 A 
ATOM     27  C   UNL     1       1.275   8.691  20.820  0.00  0.00    +0.000 A 
ATOM     28  C   UNL     1       0.632   9.603  19.986  0.00  0.00    +0.000 A 
ATOM     29  C   UNL     1      -0.218  10.575  20.549  0.00  0.00    +0.000 A 
BRANCH  29  30
ATOM     30  N   UNL     1      -0.788  11.561  19.657  0.00  0.00    +0.000 N 
ATOM     31  O   UNL     1      -0.035  12.467  19.282  0.00  0.00    +0.000 OA
ATOM     32  O   UNL     1      -1.942  11.355  19.254  0.00  0.00    +0.000 OA
ENDBRANCH  29  30
ENDBRANCH  21  24
ENDBRANCH   1  22
TORSDOF 4
ENDMDL
MODEL 2
REMARK VINA RESULT:      -6.9      3.430      6.856
REMARK  Name = 
REMARK  4 active torsions:
REMARK  status: ('A' for Active; 'I' for Inactive)
REMARK    1  A    between atoms: C_2  and  C_22
REMARK    2  A    between atoms: N_3  and  C_4
REMARK    3  A    between atoms: C_8  and  C_9
REMARK    4  A    between atoms: C_27  and  N_28
REMARK                            x       y       z     vdW  Elec       q    Type
REMARK                         _______ _______ _______ _____ _____    ______ ____
ROOT
ATOM      1  C   UNL     1      -0.371  13.811  18.976  0.00  0.00    +0.000 A 
ATOM      2  S   UNL     1      -0.383  15.501  18.865  0.00  0.00    +0.000 S 
ATOM      3  C   UNL     1       1.286  15.583  19.177  0.00  0.00    +0.000 A 
ATOM      4  C   UNL     1       1.875  14.332  19.264  0.00  0.00    +0.000 A 
ATOM      5  C   UNL     1       0.894  13.281  19.167  0.00  0.00    +0.000 A 
ATOM      6  C   UNL     1       3.369  14.181  19.371  0.00  0.00    +0.000 C 
ATOM      7  C   UNL     1       4.049  15.475  19.842  0.00  0.00    +0.000 C 
ATOM      8  C   UNL     1       3.512  16.708  19.104  0.00  0.00    +0.000 C 
ATOM      9  C   UNL     1       2.002  16.891  19.318  0.00  0.00    +0.000 C 
ENDROOT
BRANCH   5  10
ATOM     10  C   UNL     1       1.203  11.816  19.164  0.00  0.00    +0.000 A 
ATOM     11  N   UNL     1       1.057  10.997  20.186  0.00  0.00    +0.000 NA
ATOM     12  C   UNL     1       1.423   9.753  19.728  0.00  0.00    +0.000 A 
ATOM     13  C   UNL     1       1.402   8.511  20.369  0.00  0.00    +0.000 A 
ATOM     14  C   UNL     1       1.824   7.380  19.658  0.00  0.00    +0.000 A 
ATOM     15  C   UNL     1       2.268   7.485  18.337  0.00  0.00    +0.000 A 
ATOM     16  C   UNL     1       2.300   8.718  17.680  0.00  0.00    +0.000 A 
ATOM     17  C   UNL     1       1.852   9.821  18.406  0.00  0.00    +0.000 A 
ATOM     18  N   UNL     1       1.707  11.137  18.084  0.00  0.00    +0.000 N 
ATOM     19  H   UNL     1       1.904  11.553  17.192  0.00  0.00    +0.000 HD
ENDBRANCH   5  10
BRANCH   1  22
ATOM     20  O   UNL     1      -2.009  12.664  20.967  0.00  0.00    +0.000 OA
ATOM     21  C   UNL     1      -2.345  12.724  19.798  0.00  0.00    +0.000 C 
ATOM     22  N   UNL     1      -1.596  13.220  18.730  0.00  0.00    +0.000 N 
ATOM     23  H   UNL     1      -2.159  13.717  18.049  0.00  0.00    +0.000 HD
BRANCH  21  24
ATOM     24  C   UNL     1      -3.646  12.143  19.383  0.00  0.00    +0.000 A 
ATOM     25  C   UNL     1      -4.802  12.561  20.060  0.00  0.00    +0.000 A 
ATOM     26  C   UNL     1      -6.064  12.112  19.661  0.00  0.00    +0.000 A 
ATOM     27  C   UNL     1      -6.189  11.249  18.573  0.00  0.00    +0.000 A 
ATOM     28  C   UNL     1      -5.054  10.830  17.880  0.00  0.00    +0.000 A 
ATOM     29  C   UNL     1      -3.786  11.288  18.289  0.00  0.00    +0.000 A 
BRANCH  29  30
ATOM     30  N   UNL     1      -2.630  10.753  17.604  0.00  0.00    +0.000 N 
ATOM     31  O   UNL     1      -2.414  11.185  16.465  0.00  0.00    +0.000 OA
ATOM     32  O   UNL     1      -1.891   9.997  18.251  0.00  0.00    +0.000 OA
ENDBRANCH  29  30
ENDBRANCH  21  24
ENDBRANCH   1  22
TORSDOF 4
ENDMDL
MODEL 3
REMARK VINA RESULT:      -6.9      2.923      4.051
REMARK  Name = 
REMARK  4 active torsions:
REMARK  status: ('A' for Active; 'I' for Inactive)
REMARK    1  A    between atoms: C_2  and  C_22
REMARK    2  A    between atoms: N_3  and  C_4
REMARK    3  A    between atoms: C_8  and  C_9
REMARK    4  A    between atoms: C_27  and  N_28
REMARK                            x       y       z     vdW  Elec       q    Type
REMARK                         _______ _______ _______ _____ _____    ______ ____
ROOT
ATOM      1  C   UNL     1      -3.264  13.877  21.274  0.00  0.00    +0.000 A 
ATOM      2  S   UNL     1      -3.874  14.438  22.752  0.00  0.00    +0.000 S 
ATOM      3  C   UNL     1      -5.345  13.620  22.512  0.00  0.00    +0.000 A 
ATOM      4  C   UNL     1      -5.341  12.839  21.367  0.00  0.00    +0.000 A 
ATOM      5  C   UNL     1      -4.120  13.006  20.621  0.00  0.00    +0.000 A 
ATOM      6  C   UNL     1      -6.483  11.908  21.058  0.00  0.00    +0.000 C 
ATOM      7  C   UNL     1      -7.757  12.276  21.831  0.00  0.00    +0.000 C 
ATOM      8  C   UNL     1      -7.467  12.577  23.307  0.00  0.00    +0.000 C 
ATOM      9  C   UNL     1      -6.487  13.747  23.472  0.00  0.00    +0.000 C 
ENDROOT
BRANCH   5  10
ATOM     10  C   UNL     1      -3.771  12.262  19.369  0.00  0.00    +0.000 A 
ATOM     11  N   UNL     1      -2.718  11.486  19.203  0.00  0.00    +0.000 NA
ATOM     12  C   UNL     1      -2.815  10.988  17.926  0.00  0.00    +0.000 A 
ATOM     13  C   UNL     1      -2.006  10.069  17.250  0.00  0.00    +0.000 A 
ATOM     14  C   UNL     1      -2.342   9.717  15.936  0.00  0.00    +0.000 A 
ATOM     15  C   UNL     1      -3.457  10.276  15.304  0.00  0.00    +0.000 A 
ATOM     16  C   UNL     1      -4.275  11.198  15.961  0.00  0.00    +0.000 A 
ATOM     17  C   UNL     1      -3.929  11.510  17.275  0.00  0.00    +0.000 A 
ATOM     18  N   UNL     1      -4.504  12.315  18.211  0.00  0.00    +0.000 N 
ATOM     19  H   UNL     1      -5.349  12.845  18.098  0.00  0.00    +0.000 HD
ENDBRANCH   5  10
BRANCH   1  22
ATOM     20  O   UNL     1      -0.979  12.492  22.181  0.00  0.00    +0.000 OA
ATOM     21  C   UNL     1      -0.907  13.481  21.475  0.00  0.00    +0.000 C 
ATOM     22  N   UNL     1      -1.964  14.268  21.015  0.00  0.00    +0.000 N 
ATOM     23  H   UNL     1      -1.822  14.609  20.070  0.00  0.00    +0.000 HD
BRANCH  21  24
ATOM     24  C   UNL     1       0.427  14.011  21.097  0.00  0.00    +0.000 A 
ATOM     25  C   UNL     1       1.112  14.802  22.033  0.00  0.00    +0.000 A 
ATOM     26  C   UNL     1       2.405  15.262  21.768  0.00  0.00    +0.000 A 
ATOM     27  C   UNL     1       3.035  14.928  20.570  0.00  0.00    +0.000 A 
ATOM     28  C   UNL     1       2.376  14.136  19.631  0.00  0.00    +0.000 A 
ATOM     29  C   UNL     1       1.073  13.676  19.907  0.00  0.00    +0.000 A 
BRANCH  29  30
ATOM     30  N   UNL     1       0.391  12.939  18.866  0.00  0.00    +0.000 N 
ATOM     31  O   UNL     1      -0.399  13.581  18.162  0.00  0.00    +0.000 OA
ATOM     32  O   UNL     1       0.735  11.761  18.691  0.00  0.00    +0.000 OA
ENDBRANCH  29  30
ENDBRANCH  21  24
ENDBRANCH   1  22
TORSDOF 4
ENDMDL
MODEL 4
REMARK VINA RESULT:      -6.9      3.573      7.040
REMARK  Name = 
REMARK  4 active torsions:
REMARK  status: ('A' for Active; 'I' for Inactive)
REMARK    1  A    between atoms: C_2  and  C_22
REMARK    2  A    between atoms: N_3  and  C_4
REMARK    3  A    between atoms: C_8  and  C_9
REMARK    4  A    between atoms: C_27  and  N_28
REMARK                            x       y       z     vdW  Elec       q    Type
REMARK                         _______ _______ _______ _____ _____    ______ ____
ROOT
ATOM      1  C   UNL     1      -0.279  13.645  18.807  0.00  0.00    +0.000 A 
ATOM      2  S   UNL     1      -0.248  15.333  18.671  0.00  0.00    +0.000 S 
ATOM      3  C   UNL     1       1.414  15.381  19.026  0.00  0.00    +0.000 A 
ATOM      4  C   UNL     1       1.971  14.118  19.145  0.00  0.00    +0.000 A 
ATOM      5  C   UNL     1       0.969  13.089  19.038  0.00  0.00    +0.000 A 
ATOM      6  C   UNL     1       3.458  13.935  19.294  0.00  0.00    +0.000 C 
ATOM      7  C   UNL     1       4.156  15.220  19.764  0.00  0.00    +0.000 C 
ATOM      8  C   UNL     1       3.667  16.454  18.996  0.00  0.00    +0.000 C 
ATOM      9  C   UNL     1       2.157  16.674  19.167  0.00  0.00    +0.000 C 
ENDROOT
BRANCH   5  10
ATOM     10  C   UNL     1       1.244  11.617  19.063  0.00  0.00    +0.000 A 
ATOM     11  N   UNL     1       1.762  10.914  18.075  0.00  0.00    +0.000 NA
ATOM     12  C   UNL     1       1.868   9.627  18.545  0.00  0.00    +0.000 A 
ATOM     13  C   UNL     1       2.407   8.486  17.941  0.00  0.00    +0.000 A 
ATOM     14  C   UNL     1       2.401   7.281  18.657  0.00  0.00    +0.000 A 
ATOM     15  C   UNL     1       1.862   7.211  19.944  0.00  0.00    +0.000 A 
ATOM     16  C   UNL     1       1.315   8.339  20.563  0.00  0.00    +0.000 A 
ATOM     17  C   UNL     1       1.357   9.527  19.835  0.00  0.00    +0.000 A 
ATOM     18  N   UNL     1       0.965  10.799  20.128  0.00  0.00    +0.000 N 
ATOM     19  H   UNL     1       0.564  11.110  20.993  0.00  0.00    +0.000 HD
ENDBRANCH   5  10
BRANCH   1  22
ATOM     20  O   UNL     1      -1.901  12.380  20.737  0.00  0.00    +0.000 OA
ATOM     21  C   UNL     1      -2.250  12.518  19.579  0.00  0.00    +0.000 C 
ATOM     22  N   UNL     1      -1.510  13.079  18.537  0.00  0.00    +0.000 N 
ATOM     23  H   UNL     1      -2.078  13.623  17.896  0.00  0.00    +0.000 HD
BRANCH  21  24
ATOM     24  C   UNL     1      -3.560  11.973  19.142  0.00  0.00    +0.000 A 
ATOM     25  C   UNL     1      -4.701  12.327  19.878  0.00  0.00    +0.000 A 
ATOM     26  C   UNL     1      -5.971  11.913  19.468  0.00  0.00    +0.000 A 
ATOM     27  C   UNL     1      -6.118  11.149  18.310  0.00  0.00    +0.000 A 
ATOM     28  C   UNL     1      -4.999  10.794  17.560  0.00  0.00    +0.000 A 
ATOM     29  C   UNL     1      -3.723  11.217  17.980  0.00  0.00    +0.000 A 
BRANCH  29  30
ATOM     30  N   UNL     1      -2.582  10.746  17.227  0.00  0.00    +0.000 N 
ATOM     31  O   UNL     1      -1.881   9.882  17.768  0.00  0.00    +0.000 OA
ATOM     32  O   UNL     1      -2.465  11.160  16.064  0.00  0.00    +0.000 OA
ENDBRANCH  29  30
ENDBRANCH  21  24
ENDBRANCH   1  22
TORSDOF 4
ENDMDL
MODEL 5
REMARK VINA RESULT:      -6.8      3.541      5.145
REMARK  Name = 
REMARK  4 active torsions:
REMARK  status: ('A' for Active; 'I' for Inactive)
REMARK    1  A    between atoms: C_2  and  C_22
REMARK    2  A    between atoms: N_3  and  C_4
REMARK    3  A    between atoms: C_8  and  C_9
REMARK    4  A    between atoms: C_27  and  N_28
REMARK                            x       y       z     vdW  Elec       q    Type
REMARK                         _______ _______ _______ _____ _____    ______ ____
ROOT
ATOM      1  C   UNL     1       1.373  13.352  19.103  0.00  0.00    +0.000 A 
ATOM      2  S   UNL     1       2.583  14.183  18.259  0.00  0.00    +0.000 S 
ATOM      3  C   UNL     1       1.734  15.651  18.387  0.00  0.00    +0.000 A 
ATOM      4  C   UNL     1       0.587  15.539  19.155  0.00  0.00    +0.000 A 
ATOM      5  C   UNL     1       0.358  14.175  19.562  0.00  0.00    +0.000 A 
ATOM      6  C   UNL     1      -0.221  16.753  19.529  0.00  0.00    +0.000 C 
ATOM      7  C   UNL     1       0.076  17.950  18.614  0.00  0.00    +0.000 C 
ATOM      8  C   UNL     1       1.581  18.141  18.387  0.00  0.00    +0.000 C 
ATOM      9  C   UNL     1       2.224  16.908  17.736  0.00  0.00    +0.000 C 
ENDROOT
BRANCH   5  10
ATOM     10  C   UNL     1      -0.760  13.721  20.449  0.00  0.00    +0.000 A 
ATOM     11  N   UNL     1      -0.623  13.163  21.636  0.00  0.00    +0.000 NA
ATOM     12  C   UNL     1      -1.899  12.944  22.098  0.00  0.00    +0.000 A 
ATOM     13  C   UNL     1      -2.340  12.435  23.324  0.00  0.00    +0.000 A 
ATOM     14  C   UNL     1      -3.720  12.326  23.547  0.00  0.00    +0.000 A 
ATOM     15  C   UNL     1      -4.640  12.705  22.567  0.00  0.00    +0.000 A 
ATOM     16  C   UNL     1      -4.218  13.211  21.335  0.00  0.00    +0.000 A 
ATOM     17  C   UNL     1      -2.842  13.331  21.151  0.00  0.00    +0.000 A 
ATOM     18  N   UNL     1      -2.089  13.809  20.121  0.00  0.00    +0.000 N 
ATOM     19  H   UNL     1      -2.438  14.197  19.264  0.00  0.00    +0.000 HD
ENDBRANCH   5  10
BRANCH   1  22
ATOM     20  O   UNL     1      -0.244  11.233  18.180  0.00  0.00    +0.000 OA
ATOM     21  C   UNL     1       0.802  11.046  18.773  0.00  0.00    +0.000 C 
ATOM     22  N   UNL     1       1.648  12.015  19.316  0.00  0.00    +0.000 N 
ATOM     23  H   UNL     1       2.630  11.780  19.221  0.00  0.00    +0.000 HD
BRANCH  21  24
ATOM     24  C   UNL     1       1.239   9.657  19.062  0.00  0.00    +0.000 A 
ATOM     25  C   UNL     1       1.843   8.926  18.028  0.00  0.00    +0.000 A 
ATOM     26  C   UNL     1       2.349   7.644  18.261  0.00  0.00    +0.000 A 
ATOM     27  C   UNL     1       2.268   7.081  19.534  0.00  0.00    +0.000 A 
ATOM     28  C   UNL     1       1.680   7.794  20.578  0.00  0.00    +0.000 A 
ATOM     29  C   UNL     1       1.174   9.085  20.334  0.00  0.00    +0.000 A 
BRANCH  29  30
ATOM     30  N   UNL     1       0.487   9.749  21.419  0.00  0.00    +0.000 N 
ATOM     31  O   UNL     1      -0.689   9.419  21.612  0.00  0.00    +0.000 OA
ATOM     32  O   UNL     1       1.161  10.505  22.135  0.00  0.00    +0.000 OA
ENDBRANCH  29  30
ENDBRANCH  21  24
ENDBRANCH   1  22
TORSDOF 4
ENDMDL
MODEL 6
REMARK VINA RESULT:      -6.8      3.980      4.858
REMARK  Name = 
REMARK  4 active torsions:
REMARK  status: ('A' for Active; 'I' for Inactive)
REMARK    1  A    between atoms: C_2  and  C_22
REMARK    2  A    between atoms: N_3  and  C_4
REMARK    3  A    between atoms: C_8  and  C_9
REMARK    4  A    between atoms: C_27  and  N_28
REMARK                            x       y       z     vdW  Elec       q    Type
REMARK                         _______ _______ _______ _____ _____    ______ ____
ROOT
ATOM      1  C   UNL     1       1.206  12.307  19.740  0.00  0.00    +0.000 A 
ATOM      2  S   UNL     1       2.431  13.230  20.460  0.00  0.00    +0.000 S 
ATOM      3  C   UNL     1       1.684  14.682  19.986  0.00  0.00    +0.000 A 
ATOM      4  C   UNL     1       0.457  14.477  19.375  0.00  0.00    +0.000 A 
ATOM      5  C   UNL     1       0.181  13.072  19.207  0.00  0.00    +0.000 A 
ATOM      6  C   UNL     1      -0.442  15.633  19.028  0.00  0.00    +0.000 C 
ATOM      7  C   UNL     1       0.321  16.965  18.978  0.00  0.00    +0.000 C 
ATOM      8  C   UNL     1       1.263  17.134  20.177  0.00  0.00    +0.000 C 
ATOM      9  C   UNL     1       2.314  16.016  20.241  0.00  0.00    +0.000 C 
ENDROOT
BRANCH   5  10
ATOM     10  C   UNL     1      -1.083  12.508  18.637  0.00  0.00    +0.000 A 
ATOM     11  N   UNL     1      -2.227  12.382  19.279  0.00  0.00    +0.000 NA
ATOM     12  C   UNL     1      -3.114  11.856  18.368  0.00  0.00    +0.000 A 
ATOM     13  C   UNL     1      -4.478  11.578  18.493  0.00  0.00    +0.000 A 
ATOM     14  C   UNL     1      -5.159  11.048  17.388  0.00  0.00    +0.000 A 
ATOM     15  C   UNL     1      -4.492  10.790  16.188  0.00  0.00    +0.000 A 
ATOM     16  C   UNL     1      -3.128  11.058  16.045  0.00  0.00    +0.000 A 
ATOM     17  C   UNL     1      -2.484  11.607  17.153  0.00  0.00    +0.000 A 
ATOM     18  N   UNL     1      -1.203  12.022  17.360  0.00  0.00    +0.000 N 
ATOM     19  H   UNL     1      -0.461  12.011  16.684  0.00  0.00    +0.000 HD
ENDBRANCH   5  10
BRANCH   1  22
ATOM     20  O   UNL     1       1.702  10.491  17.638  0.00  0.00    +0.000 OA
ATOM     21  C   UNL     1       1.641  10.142  18.803  0.00  0.00    +0.000 C 
ATOM     22  N   UNL     1       1.352  10.943  19.909  0.00  0.00    +0.000 N 
ATOM     23  H   UNL     1       1.887  10.690  20.732  0.00  0.00    +0.000 HD
BRANCH  21  24
ATOM     24  C   UNL     1       1.795   8.706  19.144  0.00  0.00    +0.000 A 
ATOM     25  C   UNL     1       2.348   7.853  18.176  0.00  0.00    +0.000 A 
ATOM     26  C   UNL     1       2.593   6.508  18.466  0.00  0.00    +0.000 A 
ATOM     27  C   UNL     1       2.300   6.000  19.731  0.00  0.00    +0.000 A 
ATOM     28  C   UNL     1       1.759   6.833  20.710  0.00  0.00    +0.000 A 
ATOM     29  C   UNL     1       1.516   8.186  20.409  0.00  0.00    +0.000 A 
BRANCH  29  30
ATOM     30  N   UNL     1       0.865   8.989  21.421  0.00  0.00    +0.000 N 
ATOM     31  O   UNL     1      -0.371   9.024  21.387  0.00  0.00    +0.000 OA
ATOM     32  O   UNL     1       1.587   9.480  22.301  0.00  0.00    +0.000 OA
ENDBRANCH  29  30
ENDBRANCH  21  24
ENDBRANCH   1  22
TORSDOF 4
ENDMDL
MODEL 7
REMARK VINA RESULT:      -6.8      6.605      9.967
REMARK  Name = 
REMARK  4 active torsions:
REMARK  status: ('A' for Active; 'I' for Inactive)
REMARK    1  A    between atoms: C_2  and  C_22
REMARK    2  A    between atoms: N_3  and  C_4
REMARK    3  A    between atoms: C_8  and  C_9
REMARK    4  A    between atoms: C_27  and  N_28
REMARK                            x       y       z     vdW  Elec       q    Type
REMARK                         _______ _______ _______ _____ _____    ______ ____
ROOT
ATOM      1  C   UNL     1       2.772   8.046  17.953  0.00  0.00    +0.000 A 
ATOM      2  S   UNL     1       2.799   9.726  17.736  0.00  0.00    +0.000 S 
ATOM      3  C   UNL     1       1.660   9.954  18.978  0.00  0.00    +0.000 A 
ATOM      4  C   UNL     1       1.335   8.774  19.628  0.00  0.00    +0.000 A 
ATOM      5  C   UNL     1       1.975   7.640  19.009  0.00  0.00    +0.000 A 
ATOM      6  C   UNL     1       0.472   8.777  20.861  0.00  0.00    +0.000 C 
ATOM      7  C   UNL     1      -0.340  10.073  20.996  0.00  0.00    +0.000 C 
ATOM      8  C   UNL     1       0.514  11.318  20.724  0.00  0.00    +0.000 C 
ATOM      9  C   UNL     1       1.109  11.307  19.309  0.00  0.00    +0.000 C 
ENDROOT
BRANCH   5  10
ATOM     10  C   UNL     1       1.881   6.229  19.501  0.00  0.00    +0.000 A 
ATOM     11  N   UNL     1       1.449   5.198  18.802  0.00  0.00    +0.000 NA
ATOM     12  C   UNL     1       1.568   4.106  19.629  0.00  0.00    +0.000 A 
ATOM     13  C   UNL     1       1.315   2.753  19.382  0.00  0.00    +0.000 A 
ATOM     14  C   UNL     1       1.535   1.829  20.412  0.00  0.00    +0.000 A 
ATOM     15  C   UNL     1       1.989   2.245  21.667  0.00  0.00    +0.000 A 
ATOM     16  C   UNL     1       2.244   3.593  21.934  0.00  0.00    +0.000 A 
ATOM     17  C   UNL     1       2.038   4.484  20.883  0.00  0.00    +0.000 A 
ATOM     18  N   UNL     1       2.218   5.830  20.769  0.00  0.00    +0.000 N 
ATOM     19  H   UNL     1       2.570   6.442  21.482  0.00  0.00    +0.000 HD
ENDBRANCH   5  10
BRANCH   1  22
ATOM     20  O   UNL     1       4.698   6.204  18.879  0.00  0.00    +0.000 OA
ATOM     21  C   UNL     1       4.528   6.433  17.695  0.00  0.00    +0.000 C 
ATOM     22  N   UNL     1       3.646   7.357  17.133  0.00  0.00    +0.000 N 
ATOM     23  H   UNL     1       3.224   7.027  16.272  0.00  0.00    +0.000 HD
BRANCH  21  24
ATOM     24  C   UNL     1       5.385   5.753  16.691  0.00  0.00    +0.000 A 
ATOM     25  C   UNL     1       4.773   4.857  15.800  0.00  0.00    +0.000 A 
ATOM     26  C   UNL     1       5.512   4.250  14.781  0.00  0.00    +0.000 A 
ATOM     27  C   UNL     1       6.868   4.538  14.631  0.00  0.00    +0.000 A 
ATOM     28  C   UNL     1       7.492   5.432  15.500  0.00  0.00    +0.000 A 
ATOM     29  C   UNL     1       6.740   6.040  16.523  0.00  0.00    +0.000 A 
BRANCH  29  30
ATOM     30  N   UNL     1       7.448   6.886  17.459  0.00  0.00    +0.000 N 
ATOM     31  O   UNL     1       7.935   6.327  18.449  0.00  0.00    +0.000 OA
ATOM     32  O   UNL     1       7.606   8.073  17.139  0.00  0.00    +0.000 OA
ENDBRANCH  29  30
ENDBRANCH  21  24
ENDBRANCH   1  22
TORSDOF 4
ENDMDL
MODEL 8
REMARK VINA RESULT:      -6.8      3.675      4.951
REMARK  Name = 
REMARK  4 active torsions:
REMARK  status: ('A' for Active; 'I' for Inactive)
REMARK    1  A    between atoms: C_2  and  C_22
REMARK    2  A    between atoms: N_3  and  C_4
REMARK    3  A    between atoms: C_8  and  C_9
REMARK    4  A    between atoms: C_27  and  N_28
REMARK                            x       y       z     vdW  Elec       q    Type
REMARK                         _______ _______ _______ _____ _____    ______ ____
ROOT
ATOM      1  C   UNL     1       1.133  12.409  19.300  0.00  0.00    +0.000 A 
ATOM      2  S   UNL     1       2.552  13.303  19.537  0.00  0.00    +0.000 S 
ATOM      3  C   UNL     1       1.766  14.753  19.127  0.00  0.00    +0.000 A 
ATOM      4  C   UNL     1       0.408  14.583  18.911  0.00  0.00    +0.000 A 
ATOM      5  C   UNL     1       0.034  13.193  18.991  0.00  0.00    +0.000 A 
ATOM      6  C   UNL     1      -0.500  15.764  18.698  0.00  0.00    +0.000 C 
ATOM      7  C   UNL     1       0.275  17.023  18.282  0.00  0.00    +0.000 C 
ATOM      8  C   UNL     1       1.527  17.237  19.142  0.00  0.00    +0.000 C 
ATOM      9  C   UNL     1       2.502  16.055  19.038  0.00  0.00    +0.000 C 
ENDROOT
BRANCH   5  10
ATOM     10  C   UNL     1      -1.365  12.673  18.866  0.00  0.00    +0.000 A 
ATOM     11  N   UNL     1      -1.784  11.803  17.969  0.00  0.00    +0.000 NA
ATOM     12  C   UNL     1      -3.114  11.589  18.245  0.00  0.00    +0.000 A 
ATOM     13  C   UNL     1      -4.032  10.718  17.650  0.00  0.00    +0.000 A 
ATOM     14  C   UNL     1      -5.344  10.688  18.141  0.00  0.00    +0.000 A 
ATOM     15  C   UNL     1      -5.738  11.515  19.196  0.00  0.00    +0.000 A 
ATOM     16  C   UNL     1      -4.836  12.395  19.801  0.00  0.00    +0.000 A 
ATOM     17  C   UNL     1      -3.533  12.385  19.307  0.00  0.00    +0.000 A 
ATOM     18  N   UNL     1      -2.406  13.061  19.670  0.00  0.00    +0.000 N 
ATOM     19  H   UNL     1      -2.328  13.719  20.424  0.00  0.00    +0.000 HD
ENDBRANCH   5  10
BRANCH   1  22
ATOM     20  O   UNL     1       1.871  10.458  17.401  0.00  0.00    +0.000 OA
ATOM     21  C   UNL     1       1.677  10.190  18.572  0.00  0.00    +0.000 C 
ATOM     22  N   UNL     1       1.260  11.062  19.579  0.00  0.00    +0.000 N 
ATOM     23  H   UNL     1       1.697  10.870  20.474  0.00  0.00    +0.000 HD
BRANCH  21  24
ATOM     24  C   UNL     1       1.792   8.781  19.026  0.00  0.00    +0.000 A 
ATOM     25  C   UNL     1       2.377   7.852  18.153  0.00  0.00    +0.000 A 
ATOM     26  C   UNL     1       2.588   6.529  18.555  0.00  0.00    +0.000 A 
ATOM     27  C   UNL     1       2.228   6.122  19.839  0.00  0.00    +0.000 A 
ATOM     28  C   UNL     1       1.654   7.032  20.725  0.00  0.00    +0.000 A 
ATOM     29  C   UNL     1       1.446   8.362  20.312  0.00  0.00    +0.000 A 
BRANCH  29  30
ATOM     30  N   UNL     1       0.761   9.247  21.228  0.00  0.00    +0.000 N 
ATOM     31  O   UNL     1      -0.463   9.351  21.084  0.00  0.00    +0.000 OA
ATOM     32  O   UNL     1       1.432   9.736  22.149  0.00  0.00    +0.000 OA
ENDBRANCH  29  30
ENDBRANCH  21  24
ENDBRANCH   1  22
TORSDOF 4
ENDMDL
MODEL 9
REMARK VINA RESULT:      -6.7      2.869      3.980
REMARK  Name = 
REMARK  4 active torsions:
REMARK  status: ('A' for Active; 'I' for Inactive)
REMARK    1  A    between atoms: C_2  and  C_22
REMARK    2  A    between atoms: N_3  and  C_4
REMARK    3  A    between atoms: C_8  and  C_9
REMARK    4  A    between atoms: C_27  and  N_28
REMARK                            x       y       z     vdW  Elec       q    Type
REMARK                         _______ _______ _______ _____ _____    ______ ____
ROOT
ATOM      1  C   UNL     1      -3.248  13.768  21.249  0.00  0.00    +0.000 A 
ATOM      2  S   UNL     1      -3.764  14.322  22.765  0.00  0.00    +0.000 S 
ATOM      3  C   UNL     1      -5.275  13.564  22.583  0.00  0.00    +0.000 A 
ATOM      4  C   UNL     1      -5.357  12.807  21.426  0.00  0.00    +0.000 A 
ATOM      5  C   UNL     1      -4.168  12.942  20.623  0.00  0.00    +0.000 A 
ATOM      6  C   UNL     1      -6.547  11.924  21.156  0.00  0.00    +0.000 C 
ATOM      7  C   UNL     1      -7.767  12.325  21.998  0.00  0.00    +0.000 C 
ATOM      8  C   UNL     1      -7.394  12.585  23.463  0.00  0.00    +0.000 C 
ATOM      9  C   UNL     1      -6.364  13.715  23.600  0.00  0.00    +0.000 C 
ENDROOT
BRANCH   5  10
ATOM     10  C   UNL     1      -3.909  12.211  19.342  0.00  0.00    +0.000 A 
ATOM     11  N   UNL     1      -4.688  12.224  18.279  0.00  0.00    +0.000 NA
ATOM     12  C   UNL     1      -4.050  11.452  17.336  0.00  0.00    +0.000 A 
ATOM     13  C   UNL     1      -4.396  11.176  16.010  0.00  0.00    +0.000 A 
ATOM     14  C   UNL     1      -3.550  10.355  15.252  0.00  0.00    +0.000 A 
ATOM     15  C   UNL     1      -2.388   9.813  15.806  0.00  0.00    +0.000 A 
ATOM     16  C   UNL     1      -2.027  10.074  17.131  0.00  0.00    +0.000 A 
ATOM     17  C   UNL     1      -2.875  10.912  17.852  0.00  0.00    +0.000 A 
ATOM     18  N   UNL     1      -2.821  11.405  19.121  0.00  0.00    +0.000 N 
ATOM     19  H   UNL     1      -2.091  11.240  19.789  0.00  0.00    +0.000 HD
ENDBRANCH   5  10
BRANCH   1  22
ATOM     20  O   UNL     1      -0.964  12.478  22.286  0.00  0.00    +0.000 OA
ATOM     21  C   UNL     1      -0.892  13.377  21.469  0.00  0.00    +0.000 C 
ATOM     22  N   UNL     1      -1.949  14.115  20.933  0.00  0.00    +0.000 N 
ATOM     23  H   UNL     1      -1.815  14.344  19.954  0.00  0.00    +0.000 HD
BRANCH  21  24
ATOM     24  C   UNL     1       0.441  13.850  21.020  0.00  0.00    +0.000 A 
ATOM     25  C   UNL     1       1.183  14.661  21.892  0.00  0.00    +0.000 A 
ATOM     26  C   UNL     1       2.478  15.069  21.559  0.00  0.00    +0.000 A 
ATOM     27  C   UNL     1       3.052  14.662  20.356  0.00  0.00    +0.000 A 
ATOM     28  C   UNL     1       2.336  13.849  19.479  0.00  0.00    +0.000 A 
ATOM     29  C   UNL     1       1.032  13.442  19.823  0.00  0.00    +0.000 A 
BRANCH  29  30
ATOM     30  N   UNL     1       0.290  12.680  18.843  0.00  0.00    +0.000 N 
ATOM     31  O   UNL     1      -0.451  13.322  18.090  0.00  0.00    +0.000 OA
ATOM     32  O   UNL     1       0.542  11.468  18.763  0.00  0.00    +0.000 OA
ENDBRANCH  29  30
ENDBRANCH  21  24
ENDBRANCH   1  22
TORSDOF 4
ENDMDL
