MODEL 1
REMARK VINA RESULT:      -8.9      0.000      0.000
REMARK  Name = 
REMARK  5 active torsions:
REMARK  status: ('A' for Active; 'I' for Inactive)
REMARK    1  A    between atoms: C_1  and  C_2
REMARK    2  A    between atoms: C_5  and  C_6
REMARK    3  A    between atoms: N_8  and  C_9
REMARK    4  A    between atoms: C_14  and  C_15
REMARK    5  A    between atoms: C_17  and  C_18
REMARK                            x       y       z     vdW  Elec       q    Type
REMARK                         _______ _______ _______ _____ _____    ______ ____
ROOT
ATOM      1  C   UNL     1       3.453   3.864  19.307  0.00  0.00    +0.000 A 
ATOM      2  C   UNL     1       3.549   2.638  19.983  0.00  0.00    +0.000 A 
ATOM      3  C   UNL     1       2.902   2.441  21.203  0.00  0.00    +0.000 A 
ATOM      4  C   UNL     1       2.177   3.477  21.775  0.00  0.00    +0.000 A 
ATOM      5  C   UNL     1       2.069   4.700  21.110  0.00  0.00    +0.000 A 
ATOM      6  C   UNL     1       2.680   4.906  19.855  0.00  0.00    +0.000 A 
ENDROOT
BRANCH   6   7
ATOM      7  C   UNL     1       2.527   6.196  19.182  0.00  0.00    +0.000 A 
ATOM      8  N   UNL     1       1.794   7.225  19.563  0.00  0.00    +0.000 NA
ATOM      9  C   UNL     1       2.102   8.216  18.653  0.00  0.00    +0.000 A 
ATOM     10  N   UNL     1       2.925   7.812  17.674  0.00  0.00    +0.000 NA
ATOM     11  N   UNL     1       3.161   6.542  18.021  0.00  0.00    +0.000 N 
ATOM     12  H   UNL     1       3.777   5.980  17.447  0.00  0.00    +0.000 HD
BRANCH   9  13
ATOM     13  C   UNL     1       1.620   9.589  18.794  0.00  0.00    +0.000 A 
ATOM     14  C   UNL     1       0.551   9.878  19.651  0.00  0.00    +0.000 A 
ATOM     15  C   UNL     1       0.125  11.197  19.831  0.00  0.00    +0.000 A 
ATOM     16  C   UNL     1       0.765  12.237  19.156  0.00  0.00    +0.000 A 
ATOM     17  C   UNL     1       1.825  11.961  18.295  0.00  0.00    +0.000 A 
ATOM     18  C   UNL     1       2.250  10.643  18.114  0.00  0.00    +0.000 A 
ENDBRANCH   9  13
ENDBRANCH   6   7
BRANCH   1  21
ATOM     19  C   UNL     1       5.487   4.321  18.004  0.00  0.00    +0.000 C 
ATOM     20  O   UNL     1       6.238   4.439  18.971  0.00  0.00    +0.000 OA
ATOM     21  N   UNL     1       4.131   4.043  18.079  0.00  0.00    +0.000 N 
ATOM     22  H   UNL     1       3.573   4.314  17.267  0.00  0.00    +0.000 HD
BRANCH  19  27
ATOM     23  C   UNL     1       7.762   5.129  12.871  0.00  0.00    +0.000 C 
ATOM     24  C   UNL     1       7.132   4.930  14.214  0.00  0.00    +0.000 A 
ATOM     25  C   UNL     1       6.112   4.002  14.414  0.00  0.00    +0.000 A 
ATOM     26  N   UNL     1       5.528   3.785  15.620  0.00  0.00    +0.000 NA
ATOM     27  C   UNL     1       6.026   4.535  16.638  0.00  0.00    +0.000 A 
ATOM     28  C   UNL     1       7.034   5.469  16.445  0.00  0.00    +0.000 A 
ATOM     29  N   UNL     1       7.604   5.689  15.232  0.00  0.00    +0.000 NA
ENDBRANCH  19  27
ENDBRANCH   1  21
TORSDOF 4
ENDMDL
MODEL 2
REMARK VINA RESULT:      -8.6      3.502      6.854
REMARK  Name = 
REMARK  5 active torsions:
REMARK  status: ('A' for Active; 'I' for Inactive)
REMARK    1  A    between atoms: C_1  and  C_2
REMARK    2  A    between atoms: C_5  and  C_6
REMARK    3  A    between atoms: N_8  and  C_9
REMARK    4  A    between atoms: C_14  and  C_15
REMARK    5  A    between atoms: C_17  and  C_18
REMARK                            x       y       z     vdW  Elec       q    Type
REMARK                         _______ _______ _______ _____ _____    ______ ____
ROOT
ATOM      1  C   UNL     1       5.225   5.737  16.227  0.00  0.00    +0.000 A 
ATOM      2  C   UNL     1       4.577   4.843  15.361  0.00  0.00    +0.000 A 
ATOM      3  C   UNL     1       5.308   3.991  14.533  0.00  0.00    +0.000 A 
ATOM      4  C   UNL     1       6.695   4.046  14.538  0.00  0.00    +0.000 A 
ATOM      5  C   UNL     1       7.352   4.927  15.400  0.00  0.00    +0.000 A 
ATOM      6  C   UNL     1       6.633   5.767  16.275  0.00  0.00    +0.000 A 
ENDROOT
BRANCH   6   7
ATOM      7  C   UNL     1       7.359   6.663  17.175  0.00  0.00    +0.000 A 
ATOM      8  N   UNL     1       7.671   7.930  16.977  0.00  0.00    +0.000 NA
ATOM      9  C   UNL     1       8.233   8.332  18.171  0.00  0.00    +0.000 A 
ATOM     10  N   UNL     1       8.364   7.340  19.066  0.00  0.00    +0.000 NA
ATOM     11  N   UNL     1       7.825   6.307  18.411  0.00  0.00    +0.000 N 
ATOM     12  H   UNL     1       7.780   5.403  18.865  0.00  0.00    +0.000 HD
BRANCH   9  13
ATOM     13  C   UNL     1       8.587   9.723  18.443  0.00  0.00    +0.000 A 
ATOM     14  C   UNL     1       9.365  10.049  19.561  0.00  0.00    +0.000 A 
ATOM     15  C   UNL     1       9.752  11.372  19.793  0.00  0.00    +0.000 A 
ATOM     16  C   UNL     1       9.367  12.379  18.908  0.00  0.00    +0.000 A 
ATOM     17  C   UNL     1       8.587  12.069  17.796  0.00  0.00    +0.000 A 
ATOM     18  C   UNL     1       8.198  10.747  17.564  0.00  0.00    +0.000 A 
ENDBRANCH   9  13
ENDBRANCH   6   7
BRANCH   1  21
ATOM     19  C   UNL     1       3.412   6.152  17.834  0.00  0.00    +0.000 C 
ATOM     20  O   UNL     1       3.037   4.983  17.914  0.00  0.00    +0.000 OA
ATOM     21  N   UNL     1       4.460   6.600  17.045  0.00  0.00    +0.000 N 
ATOM     22  H   UNL     1       4.444   7.592  16.800  0.00  0.00    +0.000 HD
BRANCH  19  27
ATOM     23  C   UNL     1       0.473  10.184  20.533  0.00  0.00    +0.000 C 
ATOM     24  C   UNL     1       1.275   9.127  19.842  0.00  0.00    +0.000 A 
ATOM     25  C   UNL     1       1.616   7.933  20.477  0.00  0.00    +0.000 A 
ATOM     26  N   UNL     1       2.329   6.947  19.876  0.00  0.00    +0.000 NA
ATOM     27  C   UNL     1       2.680   7.200  18.588  0.00  0.00    +0.000 A 
ATOM     28  C   UNL     1       2.355   8.390  17.952  0.00  0.00    +0.000 A 
ATOM     29  N   UNL     1       1.651   9.377  18.564  0.00  0.00    +0.000 NA
ENDBRANCH  19  27
ENDBRANCH   1  21
TORSDOF 4
ENDMDL
MODEL 3
REMARK VINA RESULT:      -8.4      3.357      6.831
REMARK  Name = 
REMARK  5 active torsions:
REMARK  status: ('A' for Active; 'I' for Inactive)
REMARK    1  A    between atoms: C_1  and  C_2
REMARK    2  A    between atoms: C_5  and  C_6
REMARK    3  A    between atoms: N_8  and  C_9
REMARK    4  A    between atoms: C_14  and  C_15
REMARK    5  A    between atoms: C_17  and  C_18
REMARK                            x       y       z     vdW  Elec       q    Type
REMARK                         _______ _______ _______ _____ _____    ______ ____
ROOT
ATOM      1  C   UNL     1       5.264   5.467  16.001  0.00  0.00    +0.000 A 
ATOM      2  C   UNL     1       4.674   4.613  15.056  0.00  0.00    +0.000 A 
ATOM      3  C   UNL     1       5.455   3.929  14.125  0.00  0.00    +0.000 A 
ATOM      4  C   UNL     1       6.830   4.115  14.106  0.00  0.00    +0.000 A 
ATOM      5  C   UNL     1       7.430   4.958  15.045  0.00  0.00    +0.000 A 
ATOM      6  C   UNL     1       6.664   5.626  16.023  0.00  0.00    +0.000 A 
ENDROOT
BRANCH   6   7
ATOM      7  C   UNL     1       7.332   6.485  17.000  0.00  0.00    +0.000 A 
ATOM      8  N   UNL     1       7.736   7.731  16.838  0.00  0.00    +0.000 NA
ATOM      9  C   UNL     1       8.180   8.109  18.089  0.00  0.00    +0.000 A 
ATOM     10  N   UNL     1       8.151   7.118  18.993  0.00  0.00    +0.000 NA
ATOM     11  N   UNL     1       7.633   6.112  18.280  0.00  0.00    +0.000 N 
ATOM     12  H   UNL     1       7.486   5.215  18.726  0.00  0.00    +0.000 HD
BRANCH   9  13
ATOM     13  C   UNL     1       8.579   9.480  18.399  0.00  0.00    +0.000 A 
ATOM     14  C   UNL     1       8.219  10.532  17.548  0.00  0.00    +0.000 A 
ATOM     15  C   UNL     1       8.551  11.850  17.871  0.00  0.00    +0.000 A 
ATOM     16  C   UNL     1       9.244  12.128  19.049  0.00  0.00    +0.000 A 
ATOM     17  C   UNL     1       9.614  11.090  19.902  0.00  0.00    +0.000 A 
ATOM     18  C   UNL     1       9.284   9.772  19.578  0.00  0.00    +0.000 A 
ENDBRANCH   9  13
ENDBRANCH   6   7
BRANCH   1  21
ATOM     19  C   UNL     1       3.823   5.533  17.992  0.00  0.00    +0.000 C 
ATOM     20  O   UNL     1       3.905   4.333  18.252  0.00  0.00    +0.000 OA
ATOM     21  N   UNL     1       4.449   6.160  16.926  0.00  0.00    +0.000 N 
ATOM     22  H   UNL     1       4.036   7.044  16.621  0.00  0.00    +0.000 HD
BRANCH  19  27
ATOM     23  C   UNL     1       0.643   8.776  21.390  0.00  0.00    +0.000 C 
ATOM     24  C   UNL     1       1.456   7.921  20.470  0.00  0.00    +0.000 A 
ATOM     25  C   UNL     1       1.978   8.418  19.277  0.00  0.00    +0.000 A 
ATOM     26  N   UNL     1       2.731   7.676  18.426  0.00  0.00    +0.000 NA
ATOM     27  C   UNL     1       2.959   6.400  18.832  0.00  0.00    +0.000 A 
ATOM     28  C   UNL     1       2.435   5.893  20.013  0.00  0.00    +0.000 A 
ATOM     29  N   UNL     1       1.671   6.639  20.853  0.00  0.00    +0.000 NA
ENDBRANCH  19  27
ENDBRANCH   1  21
TORSDOF 4
ENDMDL
MODEL 4
REMARK VINA RESULT:      -8.3      5.741      9.687
REMARK  Name = 
REMARK  5 active torsions:
REMARK  status: ('A' for Active; 'I' for Inactive)
REMARK    1  A    between atoms: C_1  and  C_2
REMARK    2  A    between atoms: C_5  and  C_6
REMARK    3  A    between atoms: N_8  and  C_9
REMARK    4  A    between atoms: C_14  and  C_15
REMARK    5  A    between atoms: C_17  and  C_18
REMARK                            x       y       z     vdW  Elec       q    Type
REMARK                         _______ _______ _______ _____ _____    ______ ____
ROOT
ATOM      1  C   UNL     1      -2.098  13.608  21.148  0.00  0.00    +0.000 A 
ATOM      2  C   UNL     1      -2.620  14.885  21.407  0.00  0.00    +0.000 A 
ATOM      3  C   UNL     1      -2.508  15.462  22.672  0.00  0.00    +0.000 A 
ATOM      4  C   UNL     1      -1.900  14.756  23.701  0.00  0.00    +0.000 A 
ATOM      5  C   UNL     1      -1.371  13.487  23.456  0.00  0.00    +0.000 A 
ATOM      6  C   UNL     1      -1.437  12.903  22.174  0.00  0.00    +0.000 A 
ENDROOT
BRANCH   6   7
ATOM      7  C   UNL     1      -0.855  11.579  21.953  0.00  0.00    +0.000 A 
ATOM      8  N   UNL     1      -0.330  11.101  20.841  0.00  0.00    +0.000 NA
ATOM      9  C   UNL     1       0.180   9.872  21.206  0.00  0.00    +0.000 A 
ATOM     10  N   UNL     1      -0.090   9.533  22.476  0.00  0.00    +0.000 NA
ATOM     11  N   UNL     1      -0.751  10.611  22.913  0.00  0.00    +0.000 N 
ATOM     12  H   UNL     1      -1.076  10.636  23.871  0.00  0.00    +0.000 HD
BRANCH   9  13
ATOM     13  C   UNL     1       0.990   9.058  20.303  0.00  0.00    +0.000 A 
ATOM     14  C   UNL     1       1.499   7.824  20.728  0.00  0.00    +0.000 A 
ATOM     15  C   UNL     1       2.227   7.018  19.848  0.00  0.00    +0.000 A 
ATOM     16  C   UNL     1       2.450   7.437  18.536  0.00  0.00    +0.000 A 
ATOM     17  C   UNL     1       1.954   8.665  18.104  0.00  0.00    +0.000 A 
ATOM     18  C   UNL     1       1.228   9.473  18.983  0.00  0.00    +0.000 A 
ENDBRANCH   9  13
ENDBRANCH   6   7
BRANCH   1  21
ATOM     19  C   UNL     1      -3.378  12.359  19.462  0.00  0.00    +0.000 C 
ATOM     20  O   UNL     1      -4.374  12.178  20.161  0.00  0.00    +0.000 OA
ATOM     21  N   UNL     1      -2.238  13.040  19.861  0.00  0.00    +0.000 N 
ATOM     22  H   UNL     1      -1.383  12.823  19.346  0.00  0.00    +0.000 HD
BRANCH  19  27
ATOM     23  C   UNL     1      -3.111   9.951  14.333  0.00  0.00    +0.000 C 
ATOM     24  C   UNL     1      -3.184  10.617  15.671  0.00  0.00    +0.000 A 
ATOM     25  C   UNL     1      -4.358  11.213  16.129  0.00  0.00    +0.000 A 
ATOM     26  N   UNL     1      -4.465  11.814  17.342  0.00  0.00    +0.000 NA
ATOM     27  C   UNL     1      -3.336  11.778  18.097  0.00  0.00    +0.000 A 
ATOM     28  C   UNL     1      -2.160  11.197  17.644  0.00  0.00    +0.000 A 
ATOM     29  N   UNL     1      -2.058  10.609  16.424  0.00  0.00    +0.000 NA
ENDBRANCH  19  27
ENDBRANCH   1  21
TORSDOF 4
ENDMDL
MODEL 5
REMARK VINA RESULT:      -8.2      7.205     11.115
REMARK  Name = 
REMARK  5 active torsions:
REMARK  status: ('A' for Active; 'I' for Inactive)
REMARK    1  A    between atoms: C_1  and  C_2
REMARK    2  A    between atoms: C_5  and  C_6
REMARK    3  A    between atoms: N_8  and  C_9
REMARK    4  A    between atoms: C_14  and  C_15
REMARK    5  A    between atoms: C_17  and  C_18
REMARK                            x       y       z     vdW  Elec       q    Type
REMARK                         _______ _______ _______ _____ _____    ______ ____
ROOT
ATOM      1  C   UNL     1      -5.261  13.193  22.589  0.00  0.00    +0.000 A 
ATOM      2  C   UNL     1      -5.497  13.988  23.721  0.00  0.00    +0.000 A 
ATOM      3  C   UNL     1      -6.593  14.848  23.777  0.00  0.00    +0.000 A 
ATOM      4  C   UNL     1      -7.450  14.945  22.689  0.00  0.00    +0.000 A 
ATOM      5  C   UNL     1      -7.231  14.155  21.559  0.00  0.00    +0.000 A 
ATOM      6  C   UNL     1      -6.152  13.248  21.499  0.00  0.00    +0.000 A 
ENDROOT
BRANCH   6   7
ATOM      7  C   UNL     1      -5.968  12.425  20.304  0.00  0.00    +0.000 A 
ATOM      8  N   UNL     1      -4.963  12.454  19.449  0.00  0.00    +0.000 NA
ATOM      9  C   UNL     1      -5.216  11.403  18.591  0.00  0.00    +0.000 A 
ATOM     10  N   UNL     1      -6.383  10.784  18.828  0.00  0.00    +0.000 NA
ATOM     11  N   UNL     1      -6.838  11.454  19.892  0.00  0.00    +0.000 N 
ATOM     12  H   UNL     1      -7.723  11.186  20.302  0.00  0.00    +0.000 HD
BRANCH   9  13
ATOM     13  C   UNL     1      -4.262  10.976  17.569  0.00  0.00    +0.000 A 
ATOM     14  C   UNL     1      -3.147  10.206  17.920  0.00  0.00    +0.000 A 
ATOM     15  C   UNL     1      -2.264   9.749  16.938  0.00  0.00    +0.000 A 
ATOM     16  C   UNL     1      -2.490  10.058  15.596  0.00  0.00    +0.000 A 
ATOM     17  C   UNL     1      -3.593  10.829  15.235  0.00  0.00    +0.000 A 
ATOM     18  C   UNL     1      -4.474  11.288  16.217  0.00  0.00    +0.000 A 
ENDBRANCH   9  13
ENDBRANCH   6   7
BRANCH   1  21
ATOM     19  C   UNL     1      -2.858  12.797  22.259  0.00  0.00    +0.000 C 
ATOM     20  O   UNL     1      -2.566  13.966  22.008  0.00  0.00    +0.000 OA
ATOM     21  N   UNL     1      -4.134  12.341  22.552  0.00  0.00    +0.000 N 
ATOM     22  H   UNL     1      -4.300  11.345  22.395  0.00  0.00    +0.000 HD
BRANCH  19  27
ATOM     23  C   UNL     1       1.334   8.986  21.970  0.00  0.00    +0.000 C 
ATOM     24  C   UNL     1       0.205   9.965  22.047  0.00  0.00    +0.000 A 
ATOM     25  C   UNL     1      -0.562  10.110  23.202  0.00  0.00    +0.000 A 
ATOM     26  N   UNL     1      -1.583  10.997  23.313  0.00  0.00    +0.000 NA
ATOM     27  C   UNL     1      -1.798  11.758  22.208  0.00  0.00    +0.000 A 
ATOM     28  C   UNL     1      -1.047  11.613  21.050  0.00  0.00    +0.000 A 
ATOM     29  N   UNL     1      -0.035  10.714  20.944  0.00  0.00    +0.000 NA
ENDBRANCH  19  27
ENDBRANCH   1  21
TORSDOF 4
ENDMDL
MODEL 6
REMARK VINA RESULT:      -8.1      2.172      3.093
REMARK  Name = 
REMARK  5 active torsions:
REMARK  status: ('A' for Active; 'I' for Inactive)
REMARK    1  A    between atoms: C_1  and  C_2
REMARK    2  A    between atoms: C_5  and  C_6
REMARK    3  A    between atoms: N_8  and  C_9
REMARK    4  A    between atoms: C_14  and  C_15
REMARK    5  A    between atoms: C_17  and  C_18
REMARK                            x       y       z     vdW  Elec       q    Type
REMARK                         _______ _______ _______ _____ _____    ______ ____
ROOT
ATOM      1  C   UNL     1       3.613   4.239  18.216  0.00  0.00    +0.000 A 
ATOM      2  C   UNL     1       3.845   2.997  17.606  0.00  0.00    +0.000 A 
ATOM      3  C   UNL     1       2.932   1.952  17.739  0.00  0.00    +0.000 A 
ATOM      4  C   UNL     1       1.790   2.126  18.510  0.00  0.00    +0.000 A 
ATOM      5  C   UNL     1       1.544   3.359  19.117  0.00  0.00    +0.000 A 
ATOM      6  C   UNL     1       2.434   4.442  18.961  0.00  0.00    +0.000 A 
ENDROOT
BRANCH   6   7
ATOM      7  C   UNL     1       2.130   5.723  19.599  0.00  0.00    +0.000 A 
ATOM      8  N   UNL     1       2.108   6.919  19.041  0.00  0.00    +0.000 NA
ATOM      9  C   UNL     1       1.646   7.751  20.040  0.00  0.00    +0.000 A 
ATOM     10  N   UNL     1       1.469   7.132  21.218  0.00  0.00    +0.000 NA
ATOM     11  N   UNL     1       1.795   5.871  20.916  0.00  0.00    +0.000 N 
ATOM     12  H   UNL     1       1.742   5.161  21.636  0.00  0.00    +0.000 HD
BRANCH   9  13
ATOM     13  C   UNL     1       1.323   9.157  19.805  0.00  0.00    +0.000 A 
ATOM     14  C   UNL     1       1.628   9.757  18.577  0.00  0.00    +0.000 A 
ATOM     15  C   UNL     1       1.270  11.085  18.329  0.00  0.00    +0.000 A 
ATOM     16  C   UNL     1       0.603  11.823  19.307  0.00  0.00    +0.000 A 
ATOM     17  C   UNL     1       0.299  11.240  20.535  0.00  0.00    +0.000 A 
ATOM     18  C   UNL     1       0.659   9.913  20.784  0.00  0.00    +0.000 A 
ENDBRANCH   9  13
ENDBRANCH   6   7
BRANCH   1  21
ATOM     19  C   UNL     1       5.905   5.112  18.379  0.00  0.00    +0.000 C 
ATOM     20  O   UNL     1       6.413   4.069  18.787  0.00  0.00    +0.000 OA
ATOM     21  N   UNL     1       4.562   5.278  18.078  0.00  0.00    +0.000 N 
ATOM     22  H   UNL     1       4.215   6.239  18.092  0.00  0.00    +0.000 HD
BRANCH  19  27
ATOM     23  C   UNL     1       8.950   9.863  17.808  0.00  0.00    +0.000 C 
ATOM     24  C   UNL     1       8.174   8.592  17.945  0.00  0.00    +0.000 A 
ATOM     25  C   UNL     1       8.523   7.617  18.878  0.00  0.00    +0.000 A 
ATOM     26  N   UNL     1       7.834   6.459  19.040  0.00  0.00    +0.000 NA
ATOM     27  C   UNL     1       6.752   6.321  18.230  0.00  0.00    +0.000 A 
ATOM     28  C   UNL     1       6.403   7.282  17.290  0.00  0.00    +0.000 A 
ATOM     29  N   UNL     1       7.106   8.432  17.126  0.00  0.00    +0.000 NA
ENDBRANCH  19  27
ENDBRANCH   1  21
TORSDOF 4
ENDMDL
MODEL 7
REMARK VINA RESULT:      -8.1      1.769      7.039
REMARK  Name = 
REMARK  5 active torsions:
REMARK  status: ('A' for Active; 'I' for Inactive)
REMARK    1  A    between atoms: C_1  and  C_2
REMARK    2  A    between atoms: C_5  and  C_6
REMARK    3  A    between atoms: N_8  and  C_9
REMARK    4  A    between atoms: C_14  and  C_15
REMARK    5  A    between atoms: C_17  and  C_18
REMARK                            x       y       z     vdW  Elec       q    Type
REMARK                         _______ _______ _______ _____ _____    ______ ____
ROOT
ATOM      1  C   UNL     1       2.038   4.626  19.100  0.00  0.00    +0.000 A 
ATOM      2  C   UNL     1       1.138   4.050  20.009  0.00  0.00    +0.000 A 
ATOM      3  C   UNL     1       1.167   2.682  20.276  0.00  0.00    +0.000 A 
ATOM      4  C   UNL     1       2.076   1.868  19.614  0.00  0.00    +0.000 A 
ATOM      5  C   UNL     1       2.982   2.430  18.712  0.00  0.00    +0.000 A 
ATOM      6  C   UNL     1       2.997   3.817  18.459  0.00  0.00    +0.000 A 
ENDROOT
BRANCH   6   7
ATOM      7  C   UNL     1       3.975   4.368  17.520  0.00  0.00    +0.000 A 
ATOM      8  N   UNL     1       4.498   3.782  16.460  0.00  0.00    +0.000 NA
ATOM      9  C   UNL     1       5.253   4.770  15.863  0.00  0.00    +0.000 A 
ATOM     10  N   UNL     1       5.290   5.916  16.562  0.00  0.00    +0.000 NA
ATOM     11  N   UNL     1       4.496   5.630  17.599  0.00  0.00    +0.000 N 
ATOM     12  H   UNL     1       4.330   6.338  18.303  0.00  0.00    +0.000 HD
BRANCH   9  13
ATOM     13  C   UNL     1       5.893   4.592  14.562  0.00  0.00    +0.000 A 
ATOM     14  C   UNL     1       7.092   5.253  14.266  0.00  0.00    +0.000 A 
ATOM     15  C   UNL     1       7.735   5.040  13.044  0.00  0.00    +0.000 A 
ATOM     16  C   UNL     1       7.185   4.164  12.107  0.00  0.00    +0.000 A 
ATOM     17  C   UNL     1       5.990   3.506  12.386  0.00  0.00    +0.000 A 
ATOM     18  C   UNL     1       5.345   3.719  13.607  0.00  0.00    +0.000 A 
ENDBRANCH   9  13
ENDBRANCH   6   7
BRANCH   1  21
ATOM     19  C   UNL     1       1.874   6.965  19.840  0.00  0.00    +0.000 C 
ATOM     20  O   UNL     1       1.827   6.718  21.044  0.00  0.00    +0.000 OA
ATOM     21  N   UNL     1       1.978   6.014  18.836  0.00  0.00    +0.000 N 
ATOM     22  H   UNL     1       1.661   6.305  17.909  0.00  0.00    +0.000 HD
BRANCH  19  27
ATOM     23  C   UNL     1       1.530  12.416  18.307  0.00  0.00    +0.000 C 
ATOM     24  C   UNL     1       1.598  10.970  18.686  0.00  0.00    +0.000 A 
ATOM     25  C   UNL     1       2.223  10.028  17.870  0.00  0.00    +0.000 A 
ATOM     26  N   UNL     1       2.317   8.711  18.188  0.00  0.00    +0.000 NA
ATOM     27  C   UNL     1       1.766   8.373  19.383  0.00  0.00    +0.000 A 
ATOM     28  C   UNL     1       1.133   9.303  20.197  0.00  0.00    +0.000 A 
ATOM     29  N   UNL     1       1.032  10.615  19.865  0.00  0.00    +0.000 NA
ENDBRANCH  19  27
ENDBRANCH   1  21
TORSDOF 4
ENDMDL
MODEL 8
REMARK VINA RESULT:      -8.1      1.760      7.039
REMARK  Name = 
REMARK  5 active torsions:
REMARK  status: ('A' for Active; 'I' for Inactive)
REMARK    1  A    between atoms: C_1  and  C_2
REMARK    2  A    between atoms: C_5  and  C_6
REMARK    3  A    between atoms: N_8  and  C_9
REMARK    4  A    between atoms: C_14  and  C_15
REMARK    5  A    between atoms: C_17  and  C_18
REMARK                            x       y       z     vdW  Elec       q    Type
REMARK                         _______ _______ _______ _____ _____    ______ ____
ROOT
ATOM      1  C   UNL     1       2.122   4.554  18.884  0.00  0.00    +0.000 A 
ATOM      2  C   UNL     1       1.234   3.935  19.777  0.00  0.00    +0.000 A 
ATOM      3  C   UNL     1       1.263   2.554  19.974  0.00  0.00    +0.000 A 
ATOM      4  C   UNL     1       2.159   1.774  19.256  0.00  0.00    +0.000 A 
ATOM      5  C   UNL     1       3.052   2.378  18.369  0.00  0.00    +0.000 A 
ATOM      6  C   UNL     1       3.067   3.777  18.187  0.00  0.00    +0.000 A 
ENDROOT
BRANCH   6   7
ATOM      7  C   UNL     1       4.031   4.373  17.262  0.00  0.00    +0.000 A 
ATOM      8  N   UNL     1       4.686   3.779  16.283  0.00  0.00    +0.000 NA
ATOM      9  C   UNL     1       5.356   4.806  15.650  0.00  0.00    +0.000 A 
ATOM     10  N   UNL     1       5.213   5.995  16.255  0.00  0.00    +0.000 NA
ATOM     11  N   UNL     1       4.394   5.691  17.267  0.00  0.00    +0.000 N 
ATOM     12  H   UNL     1       4.101   6.423  17.902  0.00  0.00    +0.000 HD
BRANCH   9  13
ATOM     13  C   UNL     1       6.095   4.612  14.404  0.00  0.00    +0.000 A 
ATOM     14  C   UNL     1       5.625   3.715  13.436  0.00  0.00    +0.000 A 
ATOM     15  C   UNL     1       6.299   3.569  12.220  0.00  0.00    +0.000 A 
ATOM     16  C   UNL     1       7.446   4.320  11.961  0.00  0.00    +0.000 A 
ATOM     17  C   UNL     1       7.926   5.211  12.918  0.00  0.00    +0.000 A 
ATOM     18  C   UNL     1       7.255   5.356  14.135  0.00  0.00    +0.000 A 
ENDBRANCH   9  13
ENDBRANCH   6   7
BRANCH   1  21
ATOM     19  C   UNL     1       1.895   6.848  19.739  0.00  0.00    +0.000 C 
ATOM     20  O   UNL     1       1.787   6.536  20.924  0.00  0.00    +0.000 OA
ATOM     21  N   UNL     1       2.061   5.954  18.692  0.00  0.00    +0.000 N 
ATOM     22  H   UNL     1       1.790   6.292  17.767  0.00  0.00    +0.000 HD
BRANCH  19  27
ATOM     23  C   UNL     1       1.451  12.247  18.056  0.00  0.00    +0.000 C 
ATOM     24  C   UNL     1       1.590  10.833  18.525  0.00  0.00    +0.000 A 
ATOM     25  C   UNL     1       1.072  10.412  19.749  0.00  0.00    +0.000 A 
ATOM     26  N   UNL     1       1.167   9.135  20.199  0.00  0.00    +0.000 NA
ATOM     27  C   UNL     1       1.797   8.278  19.354  0.00  0.00    +0.000 A 
ATOM     28  C   UNL     1       2.326   8.691  18.139  0.00  0.00    +0.000 A 
ATOM     29  N   UNL     1       2.238   9.973  17.701  0.00  0.00    +0.000 NA
ENDBRANCH  19  27
ENDBRANCH   1  21
TORSDOF 4
ENDMDL
MODEL 9
REMARK VINA RESULT:      -8.0      0.930      1.313
REMARK  Name = 
REMARK  5 active torsions:
REMARK  status: ('A' for Active; 'I' for Inactive)
REMARK    1  A    between atoms: C_1  and  C_2
REMARK    2  A    between atoms: C_5  and  C_6
REMARK    3  A    between atoms: N_8  and  C_9
REMARK    4  A    between atoms: C_14  and  C_15
REMARK    5  A    between atoms: C_17  and  C_18
REMARK                            x       y       z     vdW  Elec       q    Type
REMARK                         _______ _______ _______ _____ _____    ______ ____
ROOT
ATOM      1  C   UNL     1       3.695   4.191  19.396  0.00  0.00    +0.000 A 
ATOM      2  C   UNL     1       3.816   2.945  20.030  0.00  0.00    +0.000 A 
ATOM      3  C   UNL     1       3.031   2.626  21.138  0.00  0.00    +0.000 A 
ATOM      4  C   UNL     1       2.139   3.561  21.644  0.00  0.00    +0.000 A 
ATOM      5  C   UNL     1       2.005   4.802  21.019  0.00  0.00    +0.000 A 
ATOM      6  C   UNL     1       2.758   5.129  19.872  0.00  0.00    +0.000 A 
ENDROOT
BRANCH   6   7
ATOM      7  C   UNL     1       2.575   6.434  19.236  0.00  0.00    +0.000 A 
ATOM      8  N   UNL     1       1.745   7.397  19.591  0.00  0.00    +0.000 NA
ATOM      9  C   UNL     1       2.059   8.444  18.749  0.00  0.00    +0.000 A 
ATOM     10  N   UNL     1       2.987   8.135  17.829  0.00  0.00    +0.000 NA
ATOM     11  N   UNL     1       3.277   6.869  18.147  0.00  0.00    +0.000 N 
ATOM     12  H   UNL     1       3.975   6.372  17.608  0.00  0.00    +0.000 HD
BRANCH   9  13
ATOM     13  C   UNL     1       1.477   9.775  18.899  0.00  0.00    +0.000 A 
ATOM     14  C   UNL     1       2.078  10.883  18.289  0.00  0.00    +0.000 A 
ATOM     15  C   UNL     1       1.492  12.148  18.384  0.00  0.00    +0.000 A 
ATOM     16  C   UNL     1       0.299  12.316  19.088  0.00  0.00    +0.000 A 
ATOM     17  C   UNL     1      -0.305  11.223  19.704  0.00  0.00    +0.000 A 
ATOM     18  C   UNL     1       0.281   9.958  19.612  0.00  0.00    +0.000 A 
ENDBRANCH   9  13
ENDBRANCH   6   7
BRANCH   1  21
ATOM     19  C   UNL     1       4.257   4.011  17.010  0.00  0.00    +0.000 C 
ATOM     20  O   UNL     1       3.313   3.283  16.707  0.00  0.00    +0.000 OA
ATOM     21  N   UNL     1       4.513   4.495  18.284  0.00  0.00    +0.000 N 
ATOM     22  H   UNL     1       5.477   4.778  18.470  0.00  0.00    +0.000 HD
BRANCH  19  27
ATOM     23  C   UNL     1       8.214   5.392  13.187  0.00  0.00    +0.000 C 
ATOM     24  C   UNL     1       7.147   5.046  14.177  0.00  0.00    +0.000 A 
ATOM     25  C   UNL     1       6.096   4.189  13.853  0.00  0.00    +0.000 A 
ATOM     26  N   UNL     1       5.119   3.842  14.729  0.00  0.00    +0.000 NA
ATOM     27  C   UNL     1       5.248   4.382  15.969  0.00  0.00    +0.000 A 
ATOM     28  C   UNL     1       6.285   5.245  16.297  0.00  0.00    +0.000 A 
ATOM     29  N   UNL     1       7.251   5.597  15.411  0.00  0.00    +0.000 NA
ENDBRANCH  19  27
ENDBRANCH   1  21
TORSDOF 4
ENDMDL
