MODEL 1
REMARK VINA RESULT:      -9.2      0.000      0.000
REMARK  Name = 
REMARK  7 active torsions:
REMARK  status: ('A' for Active; 'I' for Inactive)
REMARK    1  A    between atoms: C_1  and  C_2
REMARK    2  A    between atoms: C_6  and  N_7
REMARK    3  A    between atoms: N_10  and  CA_11
REMARK    4  A    between atoms: CA_11  and  CB_12
REMARK    5  A    between atoms: CA_11  and  C_22
REMARK    6  A    between atoms: CB_12  and  CG_13
REMARK    7  A    between atoms: C_22  and  OXT_24
REMARK                            x       y       z     vdW  Elec       q    Type
REMARK                         _______ _______ _______ _____ _____    ______ ____
ROOT
ATOM      1  CA  TRP A   1       6.357   6.376  17.185  0.00  0.00    +0.000 C 
ENDROOT
BRANCH   1   5
ATOM      2  N   UNK A   0       8.213   9.534  17.718  0.00  0.00    +0.000 N 
ATOM      3  C   UNK A   0       7.917   8.197  17.873  0.00  0.00    +0.000 C 
ATOM      4  O   UNK A   0       8.457   7.409  18.660  0.00  0.00    +0.000 OA
ATOM      5  N   TRP A   1       6.879   7.755  17.098  0.00  0.00    +0.000 N 
ATOM      6  H   UNK A   0       7.609  10.067  17.106  0.00  0.00    +0.000 HD
ATOM      7  H   TRP A   1       6.578   8.298  16.291  0.00  0.00    +0.000 HD
BRANCH   2  13
ATOM      8  C   UNK A   0      12.036  12.749  17.913  0.00  0.00    +0.000 C 
ATOM      9  C   UNK A   0      10.990  11.906  18.589  0.00  0.00    +0.000 A 
ATOM     10  C   UNK A   0      10.835  11.999  19.975  0.00  0.00    +0.000 A 
ATOM     11  C   UNK A   0       9.888  11.215  20.620  0.00  0.00    +0.000 A 
ATOM     12  C   UNK A   0       9.072  10.354  19.888  0.00  0.00    +0.000 A 
ATOM     13  C   UNK A   0       9.152  10.279  18.495  0.00  0.00    +0.000 A 
ATOM     14  C   UNK A   0      10.144  11.045  17.853  0.00  0.00    +0.000 A 
ENDBRANCH   2  13
ENDBRANCH   1   5
BRANCH   1  15
ATOM     15  C   TRP A   1       7.269   5.429  16.398  0.00  0.00    +0.000 C 
ATOM     16  O   TRP A   1       7.384   5.470  15.182  0.00  0.00    +0.000 OA
BRANCH  15  17
ATOM     17  OXT TRP A   1       7.948   4.533  17.152  0.00  0.00    +0.000 OA
ATOM     18  HXT TRP A   1       7.646   4.444  18.075  0.00  0.00    +0.000 HD
ENDBRANCH  15  17
ENDBRANCH   1  15
BRANCH   1  19
ATOM     19  CB  TRP A   1       4.927   6.214  16.642  0.00  0.00    +0.000 C 
BRANCH  19  20
ATOM     20  CG  TRP A   1       4.141   5.107  17.285  0.00  0.00    +0.000 A 
ATOM     21  CD1 TRP A   1       4.179   3.756  17.000  0.00  0.00    +0.000 A 
ATOM     22  NE1 TRP A   1       3.399   3.106  17.924  0.00  0.00    +0.000 N 
ATOM     23  CE2 TRP A   1       2.821   4.013  18.780  0.00  0.00    +0.000 A 
ATOM     24  CZ2 TRP A   1       2.015   3.815  19.907  0.00  0.00    +0.000 A 
ATOM     25  CH2 TRP A   1       1.621   4.949  20.627  0.00  0.00    +0.000 A 
ATOM     26  CZ3 TRP A   1       1.984   6.228  20.215  0.00  0.00    +0.000 A 
ATOM     27  CE3 TRP A   1       2.770   6.408  19.077  0.00  0.00    +0.000 A 
ATOM     28  CD2 TRP A   1       3.226   5.280  18.367  0.00  0.00    +0.000 A 
ATOM     29  HE1 TRP A   1       3.295   2.103  17.996  0.00  0.00    +0.000 HD
ENDBRANCH  19  20
ENDBRANCH   1  19
TORSDOF 6
ENDMDL
MODEL 2
REMARK VINA RESULT:      -9.2      1.018      1.720
REMARK  Name = 
REMARK  7 active torsions:
REMARK  status: ('A' for Active; 'I' for Inactive)
REMARK    1  A    between atoms: C_1  and  C_2
REMARK    2  A    between atoms: C_6  and  N_7
REMARK    3  A    between atoms: N_10  and  CA_11
REMARK    4  A    between atoms: CA_11  and  CB_12
REMARK    5  A    between atoms: CA_11  and  C_22
REMARK    6  A    between atoms: CB_12  and  CG_13
REMARK    7  A    between atoms: C_22  and  OXT_24
REMARK                            x       y       z     vdW  Elec       q    Type
REMARK                         _______ _______ _______ _____ _____    ______ ____
ROOT
ATOM      1  CA  TRP A   1       6.245   6.400  17.206  0.00  0.00    +0.000 C 
ENDROOT
BRANCH   1   5
ATOM      2  N   UNK A   0       8.186   9.517  17.681  0.00  0.00    +0.000 N 
ATOM      3  C   UNK A   0       7.850   8.192  17.866  0.00  0.00    +0.000 C 
ATOM      4  O   UNK A   0       8.360   7.409  18.677  0.00  0.00    +0.000 OA
ATOM      5  N   TRP A   1       6.807   7.761  17.091  0.00  0.00    +0.000 N 
ATOM      6  H   UNK A   0       7.604  10.051  17.049  0.00  0.00    +0.000 HD
ATOM      7  H   TRP A   1       6.530   8.293  16.268  0.00  0.00    +0.000 HD
BRANCH   2  13
ATOM      8  C   UNK A   0      11.992  12.753  17.843  0.00  0.00    +0.000 C 
ATOM      9  C   UNK A   0      10.969  11.891  18.528  0.00  0.00    +0.000 A 
ATOM     10  C   UNK A   0      10.846  11.957  19.919  0.00  0.00    +0.000 A 
ATOM     11  C   UNK A   0       9.921  11.155  20.572  0.00  0.00    +0.000 A 
ATOM     12  C   UNK A   0       9.093  10.302  19.844  0.00  0.00    +0.000 A 
ATOM     13  C   UNK A   0       9.139  10.253  18.448  0.00  0.00    +0.000 A 
ATOM     14  C   UNK A   0      10.111  11.037  17.797  0.00  0.00    +0.000 A 
ENDBRANCH   2  13
ENDBRANCH   1   5
BRANCH   1  15
ATOM     15  C   TRP A   1       7.131   5.410  16.443  0.00  0.00    +0.000 C 
ATOM     16  O   TRP A   1       7.574   5.634  15.327  0.00  0.00    +0.000 OA
BRANCH  15  17
ATOM     17  OXT TRP A   1       7.394   4.256  17.101  0.00  0.00    +0.000 OA
ATOM     18  HXT TRP A   1       7.575   4.346  18.054  0.00  0.00    +0.000 HD
ENDBRANCH  15  17
ENDBRANCH   1  15
BRANCH   1  19
ATOM     19  CB  TRP A   1       4.812   6.268  16.663  0.00  0.00    +0.000 C 
BRANCH  19  20
ATOM     20  CG  TRP A   1       3.778   5.960  17.708  0.00  0.00    +0.000 A 
ATOM     21  CD1 TRP A   1       3.184   6.828  18.604  0.00  0.00    +0.000 A 
ATOM     22  NE1 TRP A   1       2.203   6.140  19.273  0.00  0.00    +0.000 N 
ATOM     23  CE2 TRP A   1       2.175   4.829  18.859  0.00  0.00    +0.000 A 
ATOM     24  CZ2 TRP A   1       1.311   3.784  19.204  0.00  0.00    +0.000 A 
ATOM     25  CH2 TRP A   1       1.494   2.555  18.561  0.00  0.00    +0.000 A 
ATOM     26  CZ3 TRP A   1       2.522   2.367  17.641  0.00  0.00    +0.000 A 
ATOM     27  CE3 TRP A   1       3.388   3.414  17.325  0.00  0.00    +0.000 A 
ATOM     28  CD2 TRP A   1       3.189   4.677  17.917  0.00  0.00    +0.000 A 
ATOM     29  HE1 TRP A   1       1.563   6.542  19.944  0.00  0.00    +0.000 HD
ENDBRANCH  19  20
ENDBRANCH   1  19
TORSDOF 6
ENDMDL
MODEL 3
REMARK VINA RESULT:      -9.1      1.288      1.420
REMARK  Name = 
REMARK  7 active torsions:
REMARK  status: ('A' for Active; 'I' for Inactive)
REMARK    1  A    between atoms: C_1  and  C_2
REMARK    2  A    between atoms: C_6  and  N_7
REMARK    3  A    between atoms: N_10  and  CA_11
REMARK    4  A    between atoms: CA_11  and  CB_12
REMARK    5  A    between atoms: CA_11  and  C_22
REMARK    6  A    between atoms: CB_12  and  CG_13
REMARK    7  A    between atoms: C_22  and  OXT_24
REMARK                            x       y       z     vdW  Elec       q    Type
REMARK                         _______ _______ _______ _____ _____    ______ ____
ROOT
ATOM      1  CA  TRP A   1       6.512   6.351  17.322  0.00  0.00    +0.000 C 
ENDROOT
BRANCH   1   5
ATOM      2  N   UNK A   0       8.219   9.597  17.823  0.00  0.00    +0.000 N 
ATOM      3  C   UNK A   0       8.007   8.242  17.964  0.00  0.00    +0.000 C 
ATOM      4  O   UNK A   0       8.632   7.470  18.701  0.00  0.00    +0.000 OA
ATOM      5  N   TRP A   1       6.952   7.758  17.237  0.00  0.00    +0.000 N 
ATOM      6  H   UNK A   0       7.554  10.107  17.257  0.00  0.00    +0.000 HD
ATOM      7  H   TRP A   1       6.577   8.300  16.461  0.00  0.00    +0.000 HD
BRANCH   2  13
ATOM      8  C   UNK A   0      11.986  12.883  17.866  0.00  0.00    +0.000 C 
ATOM      9  C   UNK A   0      10.968  12.040  18.582  0.00  0.00    +0.000 A 
ATOM     10  C   UNK A   0      10.837  12.164  19.968  0.00  0.00    +0.000 A 
ATOM     11  C   UNK A   0       9.917  11.380  20.650  0.00  0.00    +0.000 A 
ATOM     12  C   UNK A   0       9.103  10.486  19.955  0.00  0.00    +0.000 A 
ATOM     13  C   UNK A   0       9.159  10.378  18.563  0.00  0.00    +0.000 A 
ATOM     14  C   UNK A   0      10.125  11.145  17.884  0.00  0.00    +0.000 A 
ENDBRANCH   2  13
ENDBRANCH   1   5
BRANCH   1  15
ATOM     15  C   TRP A   1       6.655   5.682  15.950  0.00  0.00    +0.000 C 
ATOM     16  O   TRP A   1       5.939   5.952  14.998  0.00  0.00    +0.000 OA
BRANCH  15  17
ATOM     17  OXT TRP A   1       7.645   4.762  15.865  0.00  0.00    +0.000 OA
ATOM     18  HXT TRP A   1       7.368   3.834  15.980  0.00  0.00    +0.000 HD
ENDBRANCH  15  17
ENDBRANCH   1  15
BRANCH   1  19
ATOM     19  CB  TRP A   1       5.054   6.179  17.781  0.00  0.00    +0.000 C 
BRANCH  19  20
ATOM     20  CG  TRP A   1       4.745   4.834  18.374  0.00  0.00    +0.000 A 
ATOM     21  CD1 TRP A   1       5.586   4.000  19.085  0.00  0.00    +0.000 A 
ATOM     22  NE1 TRP A   1       4.844   2.943  19.548  0.00  0.00    +0.000 N 
ATOM     23  CE2 TRP A   1       3.543   3.051  19.116  0.00  0.00    +0.000 A 
ATOM     24  CZ2 TRP A   1       2.424   2.257  19.391  0.00  0.00    +0.000 A 
ATOM     25  CH2 TRP A   1       1.198   2.658  18.848  0.00  0.00    +0.000 A 
ATOM     26  CZ3 TRP A   1       1.102   3.783  18.033  0.00  0.00    +0.000 A 
ATOM     27  CE3 TRP A   1       2.232   4.550  17.752  0.00  0.00    +0.000 A 
ATOM     28  CD2 TRP A   1       3.467   4.199  18.331  0.00  0.00    +0.000 A 
ATOM     29  HE1 TRP A   1       5.187   2.210  20.154  0.00  0.00    +0.000 HD
ENDBRANCH  19  20
ENDBRANCH   1  19
TORSDOF 6
ENDMDL
MODEL 4
REMARK VINA RESULT:      -8.8      1.315      1.930
REMARK  Name = 
REMARK  7 active torsions:
REMARK  status: ('A' for Active; 'I' for Inactive)
REMARK    1  A    between atoms: C_1  and  C_2
REMARK    2  A    between atoms: C_6  and  N_7
REMARK    3  A    between atoms: N_10  and  CA_11
REMARK    4  A    between atoms: CA_11  and  CB_12
REMARK    5  A    between atoms: CA_11  and  C_22
REMARK    6  A    between atoms: CB_12  and  CG_13
REMARK    7  A    between atoms: C_22  and  OXT_24
REMARK                            x       y       z     vdW  Elec       q    Type
REMARK                         _______ _______ _______ _____ _____    ______ ____
ROOT
ATOM      1  CA  TRP A   1       6.663   6.394  17.387  0.00  0.00    +0.000 C 
ENDROOT
BRANCH   1   5
ATOM      2  N   UNK A   0       8.280   9.710  17.701  0.00  0.00    +0.000 N 
ATOM      3  C   UNK A   0       8.083   8.368  17.947  0.00  0.00    +0.000 C 
ATOM      4  O   UNK A   0       8.676   7.677  18.785  0.00  0.00    +0.000 OA
ATOM      5  N   TRP A   1       7.082   7.799  17.205  0.00  0.00    +0.000 N 
ATOM      6  H   UNK A   0       7.641  10.154  17.055  0.00  0.00    +0.000 HD
ATOM      7  H   TRP A   1       6.745   8.263  16.364  0.00  0.00    +0.000 HD
BRANCH   2  13
ATOM      8  C   UNK A   0       9.436  12.094  21.939  0.00  0.00    +0.000 C 
ATOM      9  C   UNK A   0       9.757  11.693  20.526  0.00  0.00    +0.000 A 
ATOM     10  C   UNK A   0      11.004  12.027  19.992  0.00  0.00    +0.000 A 
ATOM     11  C   UNK A   0      11.312  11.682  18.683  0.00  0.00    +0.000 A 
ATOM     12  C   UNK A   0      10.391  10.981  17.906  0.00  0.00    +0.000 A 
ATOM     13  C   UNK A   0       9.159  10.573  18.423  0.00  0.00    +0.000 A 
ATOM     14  C   UNK A   0       8.838  10.964  19.737  0.00  0.00    +0.000 A 
ENDBRANCH   2  13
ENDBRANCH   1   5
BRANCH   1  15
ATOM     15  C   TRP A   1       6.904   5.612  16.091  0.00  0.00    +0.000 C 
ATOM     16  O   TRP A   1       6.300   5.839  15.053  0.00  0.00    +0.000 OA
BRANCH  15  17
ATOM     17  OXT TRP A   1       7.844   4.642  16.177  0.00  0.00    +0.000 OA
ATOM     18  HXT TRP A   1       8.553   4.683  15.509  0.00  0.00    +0.000 HD
ENDBRANCH  15  17
ENDBRANCH   1  15
BRANCH   1  19
ATOM     19  CB  TRP A   1       5.183   6.229  17.770  0.00  0.00    +0.000 C 
BRANCH  19  20
ATOM     20  CG  TRP A   1       4.842   4.894  18.369  0.00  0.00    +0.000 A 
ATOM     21  CD1 TRP A   1       5.659   4.051  19.097  0.00  0.00    +0.000 A 
ATOM     22  NE1 TRP A   1       4.892   3.011  19.558  0.00  0.00    +0.000 N 
ATOM     23  CE2 TRP A   1       3.599   3.139  19.110  0.00  0.00    +0.000 A 
ATOM     24  CZ2 TRP A   1       2.462   2.368  19.376  0.00  0.00    +0.000 A 
ATOM     25  CH2 TRP A   1       1.250   2.787  18.816  0.00  0.00    +0.000 A 
ATOM     26  CZ3 TRP A   1       1.184   3.908  17.992  0.00  0.00    +0.000 A 
ATOM     27  CE3 TRP A   1       2.332   4.652  17.719  0.00  0.00    +0.000 A 
ATOM     28  CD2 TRP A   1       3.553   4.283  18.316  0.00  0.00    +0.000 A 
ATOM     29  HE1 TRP A   1       5.215   2.276  20.173  0.00  0.00    +0.000 HD
ENDBRANCH  19  20
ENDBRANCH   1  19
TORSDOF 6
ENDMDL
MODEL 5
REMARK VINA RESULT:      -8.7      1.094      2.285
REMARK  Name = 
REMARK  7 active torsions:
REMARK  status: ('A' for Active; 'I' for Inactive)
REMARK    1  A    between atoms: C_1  and  C_2
REMARK    2  A    between atoms: C_6  and  N_7
REMARK    3  A    between atoms: N_10  and  CA_11
REMARK    4  A    between atoms: CA_11  and  CB_12
REMARK    5  A    between atoms: CA_11  and  C_22
REMARK    6  A    between atoms: CB_12  and  CG_13
REMARK    7  A    between atoms: C_22  and  OXT_24
REMARK                            x       y       z     vdW  Elec       q    Type
REMARK                         _______ _______ _______ _____ _____    ______ ____
ROOT
ATOM      1  CA  TRP A   1       6.406   6.565  17.236  0.00  0.00    +0.000 C 
ENDROOT
BRANCH   1   5
ATOM      2  N   UNK A   0       8.301   9.727  17.578  0.00  0.00    +0.000 N 
ATOM      3  C   UNK A   0       7.959   8.419  17.848  0.00  0.00    +0.000 C 
ATOM      4  O   UNK A   0       8.419   7.708  18.750  0.00  0.00    +0.000 OA
ATOM      5  N   TRP A   1       6.969   7.918  17.046  0.00  0.00    +0.000 N 
ATOM      6  H   UNK A   0       7.758  10.204  16.870  0.00  0.00    +0.000 HD
ATOM      7  H   TRP A   1       6.743   8.379  16.167  0.00  0.00    +0.000 HD
BRANCH   2  13
ATOM      8  C   UNK A   0       9.485  11.913  21.915  0.00  0.00    +0.000 C 
ATOM      9  C   UNK A   0       9.809  11.552  20.492  0.00  0.00    +0.000 A 
ATOM     10  C   UNK A   0      11.075  11.861  19.985  0.00  0.00    +0.000 A 
ATOM     11  C   UNK A   0      11.387  11.554  18.668  0.00  0.00    +0.000 A 
ATOM     12  C   UNK A   0      10.453  10.915  17.855  0.00  0.00    +0.000 A 
ATOM     13  C   UNK A   0       9.201  10.532  18.342  0.00  0.00    +0.000 A 
ATOM     14  C   UNK A   0       8.876  10.886  19.665  0.00  0.00    +0.000 A 
ENDBRANCH   2  13
ENDBRANCH   1   5
BRANCH   1  15
ATOM     15  C   TRP A   1       7.345   5.524  16.619  0.00  0.00    +0.000 C 
ATOM     16  O   TRP A   1       7.851   4.617  17.262  0.00  0.00    +0.000 OA
BRANCH  15  17
ATOM     17  OXT TRP A   1       7.577   5.680  15.294  0.00  0.00    +0.000 OA
ATOM     18  HXT TRP A   1       7.625   6.601  14.980  0.00  0.00    +0.000 HD
ENDBRANCH  15  17
ENDBRANCH   1  15
BRANCH   1  19
ATOM     19  CB  TRP A   1       5.014   6.376  16.610  0.00  0.00    +0.000 C 
BRANCH  19  20
ATOM     20  CG  TRP A   1       3.923   6.083  17.600  0.00  0.00    +0.000 A 
ATOM     21  CD1 TRP A   1       3.265   6.967  18.433  0.00  0.00    +0.000 A 
ATOM     22  NE1 TRP A   1       2.255   6.285  19.063  0.00  0.00    +0.000 N 
ATOM     23  CE2 TRP A   1       2.268   4.963  18.687  0.00  0.00    +0.000 A 
ATOM     24  CZ2 TRP A   1       1.398   3.915  19.012  0.00  0.00    +0.000 A 
ATOM     25  CH2 TRP A   1       1.635   2.671  18.417  0.00  0.00    +0.000 A 
ATOM     26  CZ3 TRP A   1       2.719   2.471  17.566  0.00  0.00    +0.000 A 
ATOM     27  CE3 TRP A   1       3.589   3.521  17.271  0.00  0.00    +0.000 A 
ATOM     28  CD2 TRP A   1       3.339   4.798  17.813  0.00  0.00    +0.000 A 
ATOM     29  HE1 TRP A   1       1.571   6.698  19.683  0.00  0.00    +0.000 HD
ENDBRANCH  19  20
ENDBRANCH   1  19
TORSDOF 6
ENDMDL
MODEL 6
REMARK VINA RESULT:      -8.7      0.410      1.518
REMARK  Name = 
REMARK  7 active torsions:
REMARK  status: ('A' for Active; 'I' for Inactive)
REMARK    1  A    between atoms: C_1  and  C_2
REMARK    2  A    between atoms: C_6  and  N_7
REMARK    3  A    between atoms: N_10  and  CA_11
REMARK    4  A    between atoms: CA_11  and  CB_12
REMARK    5  A    between atoms: CA_11  and  C_22
REMARK    6  A    between atoms: CB_12  and  CG_13
REMARK    7  A    between atoms: C_22  and  OXT_24
REMARK                            x       y       z     vdW  Elec       q    Type
REMARK                         _______ _______ _______ _____ _____    ______ ____
ROOT
ATOM      1  CA  TRP A   1       6.466   6.396  17.278  0.00  0.00    +0.000 C 
ENDROOT
BRANCH   1   5
ATOM      2  N   UNK A   0       8.251   9.623  17.608  0.00  0.00    +0.000 N 
ATOM      3  C   UNK A   0       7.962   8.301  17.875  0.00  0.00    +0.000 C 
ATOM      4  O   UNK A   0       8.463   7.602  18.765  0.00  0.00    +0.000 OA
ATOM      5  N   TRP A   1       6.977   7.770  17.087  0.00  0.00    +0.000 N 
ATOM      6  H   UNK A   0       7.679  10.084  16.913  0.00  0.00    +0.000 HD
ATOM      7  H   TRP A   1       6.719   8.227  16.216  0.00  0.00    +0.000 HD
BRANCH   2  13
ATOM      8  C   UNK A   0       9.438  11.813  21.942  0.00  0.00    +0.000 C 
ATOM      9  C   UNK A   0       9.747  11.479  20.509  0.00  0.00    +0.000 A 
ATOM     10  C   UNK A   0      10.989  11.842  19.980  0.00  0.00    +0.000 A 
ATOM     11  C   UNK A   0      11.286  11.560  18.654  0.00  0.00    +0.000 A 
ATOM     12  C   UNK A   0      10.360  10.891  17.853  0.00  0.00    +0.000 A 
ATOM     13  C   UNK A   0       9.134  10.455  18.362  0.00  0.00    +0.000 A 
ATOM     14  C   UNK A   0       8.824  10.784  19.695  0.00  0.00    +0.000 A 
ENDBRANCH   2  13
ENDBRANCH   1   5
BRANCH   1  15
ATOM     15  C   TRP A   1       7.372   5.403  16.543  0.00  0.00    +0.000 C 
ATOM     16  O   TRP A   1       7.959   4.491  17.106  0.00  0.00    +0.000 OA
BRANCH  15  17
ATOM     17  OXT TRP A   1       7.477   5.607  15.209  0.00  0.00    +0.000 OA
ATOM     18  HXT TRP A   1       6.655   5.488  14.698  0.00  0.00    +0.000 HD
ENDBRANCH  15  17
ENDBRANCH   1  15
BRANCH   1  19
ATOM     19  CB  TRP A   1       5.029   6.189  16.771  0.00  0.00    +0.000 C 
BRANCH  19  20
ATOM     20  CG  TRP A   1       4.312   5.027  17.398  0.00  0.00    +0.000 A 
ATOM     21  CD1 TRP A   1       4.451   3.683  17.111  0.00  0.00    +0.000 A 
ATOM     22  NE1 TRP A   1       3.704   2.976  18.019  0.00  0.00    +0.000 N 
ATOM     23  CE2 TRP A   1       3.047   3.837  18.866  0.00  0.00    +0.000 A 
ATOM     24  CZ2 TRP A   1       2.236   3.579  19.977  0.00  0.00    +0.000 A 
ATOM     25  CH2 TRP A   1       1.749   4.679  20.692  0.00  0.00    +0.000 A 
ATOM     26  CZ3 TRP A   1       2.027   5.982  20.289  0.00  0.00    +0.000 A 
ATOM     27  CE3 TRP A   1       2.819   6.221  19.165  0.00  0.00    +0.000 A 
ATOM     28  CD2 TRP A   1       3.367   5.130  18.462  0.00  0.00    +0.000 A 
ATOM     29  HE1 TRP A   1       3.669   1.968  18.087  0.00  0.00    +0.000 HD
ENDBRANCH  19  20
ENDBRANCH   1  19
TORSDOF 6
ENDMDL
MODEL 7
REMARK VINA RESULT:      -8.6      1.430      2.359
REMARK  Name = 
REMARK  7 active torsions:
REMARK  status: ('A' for Active; 'I' for Inactive)
REMARK    1  A    between atoms: C_1  and  C_2
REMARK    2  A    between atoms: C_6  and  N_7
REMARK    3  A    between atoms: N_10  and  CA_11
REMARK    4  A    between atoms: CA_11  and  CB_12
REMARK    5  A    between atoms: CA_11  and  C_22
REMARK    6  A    between atoms: CB_12  and  CG_13
REMARK    7  A    between atoms: C_22  and  OXT_24
REMARK                            x       y       z     vdW  Elec       q    Type
REMARK                         _______ _______ _______ _____ _____    ______ ____
ROOT
ATOM      1  CA  TRP A   1       6.402   6.495  17.312  0.00  0.00    +0.000 C 
ENDROOT
BRANCH   1   5
ATOM      2  N   UNK A   0       8.237   9.696  17.608  0.00  0.00    +0.000 N 
ATOM      3  C   UNK A   0       7.937   8.378  17.878  0.00  0.00    +0.000 C 
ATOM      4  O   UNK A   0       8.451   7.669  18.752  0.00  0.00    +0.000 OA
ATOM      5  N   TRP A   1       6.925   7.862  17.113  0.00  0.00    +0.000 N 
ATOM      6  H   UNK A   0       7.654  10.167  16.928  0.00  0.00    +0.000 HD
ATOM      7  H   TRP A   1       6.652   8.326  16.250  0.00  0.00    +0.000 HD
BRANCH   2  13
ATOM      8  C   UNK A   0       9.526  11.910  21.900  0.00  0.00    +0.000 C 
ATOM      9  C   UNK A   0       9.811  11.549  20.469  0.00  0.00    +0.000 A 
ATOM     10  C   UNK A   0      11.057  11.871  19.923  0.00  0.00    +0.000 A 
ATOM     11  C   UNK A   0      11.333  11.563  18.598  0.00  0.00    +0.000 A 
ATOM     12  C   UNK A   0      10.382  10.910  17.816  0.00  0.00    +0.000 A 
ATOM     13  C   UNK A   0       9.150  10.514  18.342  0.00  0.00    +0.000 A 
ATOM     14  C   UNK A   0       8.862  10.869  19.673  0.00  0.00    +0.000 A 
ENDBRANCH   2  13
ENDBRANCH   1   5
BRANCH   1  15
ATOM     15  C   TRP A   1       7.186   5.510  16.439  0.00  0.00    +0.000 C 
ATOM     16  O   TRP A   1       7.706   5.825  15.379  0.00  0.00    +0.000 OA
BRANCH  15  17
ATOM     17  OXT TRP A   1       7.267   4.251  16.931  0.00  0.00    +0.000 OA
ATOM     18  HXT TRP A   1       6.746   4.080  17.736  0.00  0.00    +0.000 HD
ENDBRANCH  15  17
ENDBRANCH   1  15
BRANCH   1  19
ATOM     19  CB  TRP A   1       4.909   6.343  16.971  0.00  0.00    +0.000 C 
BRANCH  19  20
ATOM     20  CG  TRP A   1       3.998   6.340  18.165  0.00  0.00    +0.000 A 
ATOM     21  CD1 TRP A   1       3.980   5.452  19.224  0.00  0.00    +0.000 A 
ATOM     22  NE1 TRP A   1       3.076   5.912  20.148  0.00  0.00    +0.000 N 
ATOM     23  CE2 TRP A   1       2.474   7.061  19.692  0.00  0.00    +0.000 A 
ATOM     24  CZ2 TRP A   1       1.551   7.913  20.310  0.00  0.00    +0.000 A 
ATOM     25  CH2 TRP A   1       1.160   9.059  19.610  0.00  0.00    +0.000 A 
ATOM     26  CZ3 TRP A   1       1.639   9.323  18.330  0.00  0.00    +0.000 A 
ATOM     27  CE3 TRP A   1       2.541   8.452  17.720  0.00  0.00    +0.000 A 
ATOM     28  CD2 TRP A   1       2.994   7.320  18.426  0.00  0.00    +0.000 A 
ATOM     29  HE1 TRP A   1       2.904   5.496  21.052  0.00  0.00    +0.000 HD
ENDBRANCH  19  20
ENDBRANCH   1  19
TORSDOF 6
ENDMDL
MODEL 8
REMARK VINA RESULT:      -8.5      1.159      2.223
REMARK  Name = 
REMARK  7 active torsions:
REMARK  status: ('A' for Active; 'I' for Inactive)
REMARK    1  A    between atoms: C_1  and  C_2
REMARK    2  A    between atoms: C_6  and  N_7
REMARK    3  A    between atoms: N_10  and  CA_11
REMARK    4  A    between atoms: CA_11  and  CB_12
REMARK    5  A    between atoms: CA_11  and  C_22
REMARK    6  A    between atoms: CB_12  and  CG_13
REMARK    7  A    between atoms: C_22  and  OXT_24
REMARK                            x       y       z     vdW  Elec       q    Type
REMARK                         _______ _______ _______ _____ _____    ______ ____
ROOT
ATOM      1  CA  TRP A   1       6.511   6.379  17.334  0.00  0.00    +0.000 C 
ENDROOT
BRANCH   1   5
ATOM      2  N   UNK A   0       8.280   9.619  17.617  0.00  0.00    +0.000 N 
ATOM      3  C   UNK A   0       7.992   8.302  17.909  0.00  0.00    +0.000 C 
ATOM      4  O   UNK A   0       8.485   7.624  18.819  0.00  0.00    +0.000 OA
ATOM      5  N   TRP A   1       7.019   7.750  17.120  0.00  0.00    +0.000 N 
ATOM      6  H   UNK A   0       7.715  10.062  16.905  0.00  0.00    +0.000 HD
ATOM      7  H   TRP A   1       6.770   8.188  16.236  0.00  0.00    +0.000 HD
BRANCH   2  13
ATOM      8  C   UNK A   0       9.448  11.845  21.937  0.00  0.00    +0.000 C 
ATOM      9  C   UNK A   0       9.756  11.512  20.504  0.00  0.00    +0.000 A 
ATOM     10  C   UNK A   0      10.987  11.897  19.967  0.00  0.00    +0.000 A 
ATOM     11  C   UNK A   0      11.282  11.617  18.640  0.00  0.00    +0.000 A 
ATOM     12  C   UNK A   0      10.366  10.928  17.846  0.00  0.00    +0.000 A 
ATOM     13  C   UNK A   0       9.151  10.470  18.363  0.00  0.00    +0.000 A 
ATOM     14  C   UNK A   0       8.841  10.797  19.697  0.00  0.00    +0.000 A 
ENDBRANCH   2  13
ENDBRANCH   1   5
BRANCH   1  15
ATOM     15  C   TRP A   1       7.371   5.382  16.550  0.00  0.00    +0.000 C 
ATOM     16  O   TRP A   1       7.949   4.442  17.075  0.00  0.00    +0.000 OA
BRANCH  15  17
ATOM     17  OXT TRP A   1       7.445   5.617  15.219  0.00  0.00    +0.000 OA
ATOM     18  HXT TRP A   1       7.758   6.505  14.965  0.00  0.00    +0.000 HD
ENDBRANCH  15  17
ENDBRANCH   1  15
BRANCH   1  19
ATOM     19  CB  TRP A   1       5.047   6.182  16.904  0.00  0.00    +0.000 C 
BRANCH  19  20
ATOM     20  CG  TRP A   1       4.070   6.107  18.042  0.00  0.00    +0.000 A 
ATOM     21  CD1 TRP A   1       3.142   7.053  18.434  0.00  0.00    +0.000 A 
ATOM     22  NE1 TRP A   1       2.375   6.506  19.431  0.00  0.00    +0.000 N 
ATOM     23  CE2 TRP A   1       2.813   5.235  19.725  0.00  0.00    +0.000 A 
ATOM     24  CZ2 TRP A   1       2.303   4.278  20.610  0.00  0.00    +0.000 A 
ATOM     25  CH2 TRP A   1       2.936   3.031  20.648  0.00  0.00    +0.000 A 
ATOM     26  CZ3 TRP A   1       4.055   2.765  19.864  0.00  0.00    +0.000 A 
ATOM     27  CE3 TRP A   1       4.563   3.738  19.004  0.00  0.00    +0.000 A 
ATOM     28  CD2 TRP A   1       3.910   4.983  18.906  0.00  0.00    +0.000 A 
ATOM     29  HE1 TRP A   1       1.576   6.950  19.863  0.00  0.00    +0.000 HD
ENDBRANCH  19  20
ENDBRANCH   1  19
TORSDOF 6
ENDMDL
MODEL 9
REMARK VINA RESULT:      -8.4      4.548      7.554
REMARK  Name = 
REMARK  7 active torsions:
REMARK  status: ('A' for Active; 'I' for Inactive)
REMARK    1  A    between atoms: C_1  and  C_2
REMARK    2  A    between atoms: C_6  and  N_7
REMARK    3  A    between atoms: N_10  and  CA_11
REMARK    4  A    between atoms: CA_11  and  CB_12
REMARK    5  A    between atoms: CA_11  and  C_22
REMARK    6  A    between atoms: CB_12  and  CG_13
REMARK    7  A    between atoms: C_22  and  OXT_24
REMARK                            x       y       z     vdW  Elec       q    Type
REMARK                         _______ _______ _______ _____ _____    ______ ____
ROOT
ATOM      1  CA  TRP A   1       2.768   3.699  20.098  0.00  0.00    +0.000 C 
ENDROOT
BRANCH   1   5
ATOM      2  N   UNK A   0       2.143   7.278  20.810  0.00  0.00    +0.000 N 
ATOM      3  C   UNK A   0       1.823   5.972  20.504  0.00  0.00    +0.000 C 
ATOM      4  O   UNK A   0       0.704   5.538  20.205  0.00  0.00    +0.000 OA
ATOM      5  N   TRP A   1       2.894   5.119  20.488  0.00  0.00    +0.000 N 
ATOM      6  H   UNK A   0       3.124   7.491  20.931  0.00  0.00    +0.000 HD
ATOM      7  H   TRP A   1       3.762   5.383  20.947  0.00  0.00    +0.000 HD
BRANCH   2  13
ATOM      8  C   UNK A   0      -0.948  10.403  23.192  0.00  0.00    +0.000 C 
ATOM      9  C   UNK A   0      -0.222   9.963  21.952  0.00  0.00    +0.000 A 
ATOM     10  C   UNK A   0      -0.293  10.758  20.804  0.00  0.00    +0.000 A 
ATOM     11  C   UNK A   0       0.354  10.359  19.643  0.00  0.00    +0.000 A 
ATOM     12  C   UNK A   0       1.099   9.180  19.623  0.00  0.00    +0.000 A 
ATOM     13  C   UNK A   0       1.248   8.391  20.766  0.00  0.00    +0.000 A 
ATOM     14  C   UNK A   0       0.553   8.780  21.927  0.00  0.00    +0.000 A 
ENDBRANCH   2  13
ENDBRANCH   1   5
BRANCH   1  15
ATOM     15  C   TRP A   1       2.275   2.878  21.294  0.00  0.00    +0.000 C 
ATOM     16  O   TRP A   1       3.029   2.328  22.082  0.00  0.00    +0.000 OA
BRANCH  15  17
ATOM     17  OXT TRP A   1       0.929   2.804  21.418  0.00  0.00    +0.000 OA
ATOM     18  HXT TRP A   1       0.491   2.131  20.865  0.00  0.00    +0.000 HD
ENDBRANCH  15  17
ENDBRANCH   1  15
BRANCH   1  19
ATOM     19  CB  TRP A   1       4.081   3.070  19.601  0.00  0.00    +0.000 C 
BRANCH  19  20
ATOM     20  CG  TRP A   1       4.626   3.684  18.343  0.00  0.00    +0.000 A 
ATOM     21  CD1 TRP A   1       4.156   3.544  17.052  0.00  0.00    +0.000 A 
ATOM     22  NE1 TRP A   1       4.875   4.389  16.245  0.00  0.00    +0.000 N 
ATOM     23  CE2 TRP A   1       5.833   5.047  16.980  0.00  0.00    +0.000 A 
ATOM     24  CZ2 TRP A   1       6.743   6.042  16.606  0.00  0.00    +0.000 A 
ATOM     25  CH2 TRP A   1       7.567   6.573  17.606  0.00  0.00    +0.000 A 
ATOM     26  CZ3 TRP A   1       7.511   6.101  18.914  0.00  0.00    +0.000 A 
ATOM     27  CE3 TRP A   1       6.613   5.092  19.264  0.00  0.00    +0.000 A 
ATOM     28  CD2 TRP A   1       5.735   4.581  18.288  0.00  0.00    +0.000 A 
ATOM     29  HE1 TRP A   1       4.704   4.542  15.261  0.00  0.00    +0.000 HD
ENDBRANCH  19  20
ENDBRANCH   1  19
TORSDOF 6
ENDMDL
