MODEL 1
REMARK VINA RESULT:      -8.7      0.000      0.000
REMARK  Name = 
REMARK  5 active torsions:
REMARK  status: ('A' for Active; 'I' for Inactive)
REMARK    1  A    between atoms: C_1  and  C_2
REMARK    2  A    between atoms: C_7  and  N_8
REMARK    3  A    between atoms: C_9  and  C_11
REMARK    4  A    between atoms: C_11  and  C_12
REMARK    5  A    between atoms: C_12  and  C_13
REMARK                            x       y       z     vdW  Elec       q    Type
REMARK                         _______ _______ _______ _____ _____    ______ ____
ROOT
ATOM      1  N   UNL     1       2.984   6.033  20.018  0.00  0.00    +0.000 N 
ATOM      2  C   UNL     1       2.550   4.771  19.671  0.00  0.00    +0.000 C 
ATOM      3  O   UNL     1       1.482   4.530  19.111  0.00  0.00    +0.000 OA
ATOM      4  H   UNL     1       3.721   6.102  20.709  0.00  0.00    +0.000 HD
ENDROOT
BRANCH   1  11
ATOM      5  C   UNL     1      -1.069  12.531  18.829  0.00  0.00    +0.000 C 
ATOM      6  C   UNL     1      -0.663  11.115  19.211  0.00  0.00    +0.000 C 
ATOM      7  O   UNL     1       0.458  10.749  18.412  0.00  0.00    +0.000 OA
ATOM      8  C   UNL     1       1.063   9.596  18.839  0.00  0.00    +0.000 A 
ATOM      9  C   UNL     1       1.859   8.926  17.921  0.00  0.00    +0.000 A 
ATOM     10  C   UNL     1       2.509   7.752  18.303  0.00  0.00    +0.000 A 
ATOM     11  C   UNL     1       2.368   7.235  19.600  0.00  0.00    +0.000 A 
ATOM     12  C   UNL     1       1.616   7.948  20.538  0.00  0.00    +0.000 A 
ATOM     13  C   UNL     1       0.959   9.117  20.149  0.00  0.00    +0.000 A 
ATOM     14  N   UNL     1       0.244   9.859  21.096  0.00  0.00    +0.000 N 
ATOM     15  C   UNL     1      -0.461  10.980  20.730  0.00  0.00    +0.000 C 
ATOM     16  O   UNL     1      -0.960  11.718  21.574  0.00  0.00    +0.000 OA
ATOM     17  H   UNL     1       0.299   9.651  22.082  0.00  0.00    +0.000 HD
ENDBRANCH   1  11
BRANCH   2  18
ATOM     18  C   UNL     1       3.490   3.643  20.071  0.00  0.00    +0.000 C 
BRANCH  18  19
ATOM     19  C   UNL     1       4.081   3.102  18.772  0.00  0.00    +0.000 C 
BRANCH  19  20
ATOM     20  C   UNL     1       5.023   3.928  17.939  0.00  0.00    +0.000 A 
ATOM     21  C   UNL     1       6.148   4.625  18.422  0.00  0.00    +0.000 A 
ATOM     22  C   UNL     1       7.046   5.228  17.525  0.00  0.00    +0.000 A 
ATOM     23  C   UNL     1       6.805   5.091  16.173  0.00  0.00    +0.000 A 
ATOM     24  C   UNL     1       5.683   4.455  15.704  0.00  0.00    +0.000 A 
ATOM     25  C   UNL     1       4.766   3.895  16.554  0.00  0.00    +0.000 A 
ATOM     26  O   UNL     1       5.644   4.385  14.348  0.00  0.00    +0.000 OA
ATOM     27  C   UNL     1       6.985   4.815  14.048  0.00  0.00    +0.000 C 
ATOM     28  O   UNL     1       7.618   5.489  15.158  0.00  0.00    +0.000 OA
ENDBRANCH  19  20
ENDBRANCH  18  19
ENDBRANCH   2  18
TORSDOF 4
ENDMDL
MODEL 2
REMARK VINA RESULT:      -8.6      1.234      1.855
REMARK  Name = 
REMARK  5 active torsions:
REMARK  status: ('A' for Active; 'I' for Inactive)
REMARK    1  A    between atoms: C_1  and  C_2
REMARK    2  A    between atoms: C_7  and  N_8
REMARK    3  A    between atoms: C_9  and  C_11
REMARK    4  A    between atoms: C_11  and  C_12
REMARK    5  A    between atoms: C_12  and  C_13
REMARK                            x       y       z     vdW  Elec       q    Type
REMARK                         _______ _______ _______ _____ _____    ______ ____
ROOT
ATOM      1  N   UNL     1       2.850   6.020  20.024  0.00  0.00    +0.000 N 
ATOM      2  C   UNL     1       2.493   4.783  19.530  0.00  0.00    +0.000 C 
ATOM      3  O   UNL     1       1.507   4.570  18.827  0.00  0.00    +0.000 OA
ATOM      4  H   UNL     1       3.497   6.046  20.803  0.00  0.00    +0.000 HD
ENDROOT
BRANCH   1  11
ATOM      5  C   UNL     1      -1.028  12.649  18.988  0.00  0.00    +0.000 C 
ATOM      6  C   UNL     1      -0.655  11.221  19.357  0.00  0.00    +0.000 C 
ATOM      7  O   UNL     1       0.419  10.816  18.512  0.00  0.00    +0.000 OA
ATOM      8  C   UNL     1       1.002   9.644  18.916  0.00  0.00    +0.000 A 
ATOM      9  C   UNL     1       1.734   8.945  17.968  0.00  0.00    +0.000 A 
ATOM     10  C   UNL     1       2.360   7.751  18.325  0.00  0.00    +0.000 A 
ATOM     11  C   UNL     1       2.257   7.242  19.629  0.00  0.00    +0.000 A 
ATOM     12  C   UNL     1       1.571   7.981  20.595  0.00  0.00    +0.000 A 
ATOM     13  C   UNL     1       0.938   9.172  20.232  0.00  0.00    +0.000 A 
ATOM     14  N   UNL     1       0.290   9.939  21.205  0.00  0.00    +0.000 N 
ATOM     15  C   UNL     1      -0.392  11.082  20.867  0.00  0.00    +0.000 C 
ATOM     16  O   UNL     1      -0.829  11.839  21.729  0.00  0.00    +0.000 OA
ATOM     17  H   UNL     1       0.380   9.731  22.189  0.00  0.00    +0.000 HD
ENDBRANCH   1  11
BRANCH   2  18
ATOM     18  C   UNL     1       3.408   3.642  19.952  0.00  0.00    +0.000 C 
BRANCH  18  19
ATOM     19  C   UNL     1       4.216   3.265  18.714  0.00  0.00    +0.000 C 
BRANCH  19  20
ATOM     20  C   UNL     1       5.041   4.285  17.978  0.00  0.00    +0.000 A 
ATOM     21  C   UNL     1       4.725   4.846  16.726  0.00  0.00    +0.000 A 
ATOM     22  C   UNL     1       5.486   5.909  16.213  0.00  0.00    +0.000 A 
ATOM     23  C   UNL     1       6.523   6.396  16.982  0.00  0.00    +0.000 A 
ATOM     24  C   UNL     1       6.862   5.819  18.180  0.00  0.00    +0.000 A 
ATOM     25  C   UNL     1       6.166   4.752  18.685  0.00  0.00    +0.000 A 
ATOM     26  O   UNL     1       7.879   6.464  18.808  0.00  0.00    +0.000 OA
ATOM     27  C   UNL     1       7.952   7.648  17.992  0.00  0.00    +0.000 C 
ATOM     28  O   UNL     1       7.286   7.492  16.719  0.00  0.00    +0.000 OA
ENDBRANCH  19  20
ENDBRANCH  18  19
ENDBRANCH   2  18
TORSDOF 4
ENDMDL
MODEL 3
REMARK VINA RESULT:      -8.5      5.354      7.867
REMARK  Name = 
REMARK  5 active torsions:
REMARK  status: ('A' for Active; 'I' for Inactive)
REMARK    1  A    between atoms: C_1  and  C_2
REMARK    2  A    between atoms: C_7  and  N_8
REMARK    3  A    between atoms: C_9  and  C_11
REMARK    4  A    between atoms: C_11  and  C_12
REMARK    5  A    between atoms: C_12  and  C_13
REMARK                            x       y       z     vdW  Elec       q    Type
REMARK                         _______ _______ _______ _____ _____    ______ ____
ROOT
ATOM      1  N   UNL     1       7.248   6.180  18.489  0.00  0.00    +0.000 N 
ATOM      2  C   UNL     1       7.440   7.419  17.916  0.00  0.00    +0.000 C 
ATOM      3  O   UNL     1       6.728   7.899  17.036  0.00  0.00    +0.000 OA
ATOM      4  H   UNL     1       8.027   5.765  18.985  0.00  0.00    +0.000 HD
ENDROOT
BRANCH   1  11
ATOM      5  C   UNL     1       0.659   2.102  18.659  0.00  0.00    +0.000 C 
ATOM      6  C   UNL     1       1.986   2.746  19.036  0.00  0.00    +0.000 C 
ATOM      7  O   UNL     1       2.716   2.980  17.835  0.00  0.00    +0.000 OA
ATOM      8  C   UNL     1       3.814   3.778  18.026  0.00  0.00    +0.000 A 
ATOM      9  C   UNL     1       4.809   3.719  17.062  0.00  0.00    +0.000 A 
ATOM     10  C   UNL     1       5.945   4.518  17.198  0.00  0.00    +0.000 A 
ATOM     11  C   UNL     1       6.099   5.377  18.297  0.00  0.00    +0.000 A 
ATOM     12  C   UNL     1       5.065   5.478  19.231  0.00  0.00    +0.000 A 
ATOM     13  C   UNL     1       3.934   4.670  19.097  0.00  0.00    +0.000 A 
ATOM     14  N   UNL     1       2.876   4.801  20.003  0.00  0.00    +0.000 N 
ATOM     15  C   UNL     1       1.778   3.979  19.931  0.00  0.00    +0.000 C 
ATOM     16  O   UNL     1       0.783   4.187  20.620  0.00  0.00    +0.000 OA
ATOM     17  H   UNL     1       2.843   5.556  20.672  0.00  0.00    +0.000 HD
ENDBRANCH   1  11
BRANCH   2  18
ATOM     18  C   UNL     1       8.657   8.175  18.431  0.00  0.00    +0.000 C 
BRANCH  18  19
ATOM     19  C   UNL     1       8.460   9.630  18.014  0.00  0.00    +0.000 C 
BRANCH  19  20
ATOM     20  C   UNL     1       9.170  10.749  18.724  0.00  0.00    +0.000 A 
ATOM     21  C   UNL     1       9.613  10.722  20.060  0.00  0.00    +0.000 A 
ATOM     22  C   UNL     1      10.408  11.765  20.565  0.00  0.00    +0.000 A 
ATOM     23  C   UNL     1      10.758  12.788  19.708  0.00  0.00    +0.000 A 
ATOM     24  C   UNL     1      10.287  12.841  18.420  0.00  0.00    +0.000 A 
ATOM     25  C   UNL     1       9.473  11.861  17.913  0.00  0.00    +0.000 A 
ATOM     26  O   UNL     1      10.775  13.898  17.721  0.00  0.00    +0.000 OA
ATOM     27  C   UNL     1      11.795  14.339  18.637  0.00  0.00    +0.000 C 
ATOM     28  O   UNL     1      11.617  13.810  19.970  0.00  0.00    +0.000 OA
ENDBRANCH  19  20
ENDBRANCH  18  19
ENDBRANCH   2  18
TORSDOF 4
ENDMDL
MODEL 4
REMARK VINA RESULT:      -8.5      5.423      7.877
REMARK  Name = 
REMARK  5 active torsions:
REMARK  status: ('A' for Active; 'I' for Inactive)
REMARK    1  A    between atoms: C_1  and  C_2
REMARK    2  A    between atoms: C_7  and  N_8
REMARK    3  A    between atoms: C_9  and  C_11
REMARK    4  A    between atoms: C_11  and  C_12
REMARK    5  A    between atoms: C_12  and  C_13
REMARK                            x       y       z     vdW  Elec       q    Type
REMARK                         _______ _______ _______ _____ _____    ______ ____
ROOT
ATOM      1  N   UNL     1       6.346   7.642  17.360  0.00  0.00    +0.000 N 
ATOM      2  C   UNL     1       7.598   7.701  17.934  0.00  0.00    +0.000 C 
ATOM      3  O   UNL     1       8.073   6.833  18.664  0.00  0.00    +0.000 OA
ATOM      4  H   UNL     1       5.944   8.506  17.018  0.00  0.00    +0.000 HD
ENDROOT
BRANCH   1  11
ATOM      5  C   UNL     1       1.463   1.741  18.550  0.00  0.00    +0.000 C 
ATOM      6  C   UNL     1       2.516   2.824  18.740  0.00  0.00    +0.000 C 
ATOM      7  O   UNL     1       3.094   3.101  17.467  0.00  0.00    +0.000 OA
ATOM      8  C   UNL     1       3.876   4.227  17.471  0.00  0.00    +0.000 A 
ATOM      9  C   UNL     1       4.807   4.349  16.451  0.00  0.00    +0.000 A 
ATOM     10  C   UNL     1       5.622   5.480  16.397  0.00  0.00    +0.000 A 
ATOM     11  C   UNL     1       5.518   6.495  17.361  0.00  0.00    +0.000 A 
ATOM     12  C   UNL     1       4.535   6.395  18.349  0.00  0.00    +0.000 A 
ATOM     13  C   UNL     1       3.727   5.257  18.405  0.00  0.00    +0.000 A 
ATOM     14  N   UNL     1       2.711   5.174  19.363  0.00  0.00    +0.000 N 
ATOM     15  C   UNL     1       1.941   4.042  19.481  0.00  0.00    +0.000 C 
ATOM     16  O   UNL     1       0.954   4.021  20.210  0.00  0.00    +0.000 OA
ATOM     17  H   UNL     1       2.452   5.969  19.930  0.00  0.00    +0.000 HD
ENDBRANCH   1  11
BRANCH   2  18
ATOM     18  C   UNL     1       8.377   8.973  17.628  0.00  0.00    +0.000 C 
BRANCH  18  19
ATOM     19  C   UNL     1       8.935   9.460  18.962  0.00  0.00    +0.000 C 
BRANCH  19  20
ATOM     20  C   UNL     1       9.688  10.758  19.067  0.00  0.00    +0.000 A 
ATOM     21  C   UNL     1      10.198  11.316  20.255  0.00  0.00    +0.000 A 
ATOM     22  C   UNL     1      11.025  12.450  20.207  0.00  0.00    +0.000 A 
ATOM     23  C   UNL     1      11.338  12.975  18.969  0.00  0.00    +0.000 A 
ATOM     24  C   UNL     1      10.801  12.462  17.815  0.00  0.00    +0.000 A 
ATOM     25  C   UNL     1       9.957  11.383  17.834  0.00  0.00    +0.000 A 
ATOM     26  O   UNL     1      11.261  13.083  16.698  0.00  0.00    +0.000 OA
ATOM     27  C   UNL     1      12.329  13.856  17.276  0.00  0.00    +0.000 C 
ATOM     28  O   UNL     1      12.216  13.981  18.711  0.00  0.00    +0.000 OA
ENDBRANCH  19  20
ENDBRANCH  18  19
ENDBRANCH   2  18
TORSDOF 4
ENDMDL
MODEL 5
REMARK VINA RESULT:      -8.5      1.090      1.176
REMARK  Name = 
REMARK  5 active torsions:
REMARK  status: ('A' for Active; 'I' for Inactive)
REMARK    1  A    between atoms: C_1  and  C_2
REMARK    2  A    between atoms: C_7  and  N_8
REMARK    3  A    between atoms: C_9  and  C_11
REMARK    4  A    between atoms: C_11  and  C_12
REMARK    5  A    between atoms: C_12  and  C_13
REMARK                            x       y       z     vdW  Elec       q    Type
REMARK                         _______ _______ _______ _____ _____    ______ ____
ROOT
ATOM      1  N   UNL     1       2.653   5.161  19.213  0.00  0.00    +0.000 N 
ATOM      2  C   UNL     1       2.183   4.267  18.275  0.00  0.00    +0.000 C 
ATOM      3  O   UNL     1       1.231   4.478  17.525  0.00  0.00    +0.000 OA
ATOM      4  H   UNL     1       3.239   4.799  19.955  0.00  0.00    +0.000 HD
ENDROOT
BRANCH   1  11
ATOM      5  C   UNL     1      -0.156  12.204  20.819  0.00  0.00    +0.000 C 
ATOM      6  C   UNL     1      -0.000  10.699  20.654  0.00  0.00    +0.000 C 
ATOM      7  O   UNL     1       0.957  10.468  19.624  0.00  0.00    +0.000 OA
ATOM      8  C   UNL     1       1.362   9.160  19.558  0.00  0.00    +0.000 A 
ATOM      9  C   UNL     1       1.932   8.738  18.366  0.00  0.00    +0.000 A 
ATOM     10  C   UNL     1       2.374   7.421  18.244  0.00  0.00    +0.000 A 
ATOM     11  C   UNL     1       2.247   6.513  19.307  0.00  0.00    +0.000 A 
ATOM     12  C   UNL     1       1.730   6.961  20.525  0.00  0.00    +0.000 A 
ATOM     13  C   UNL     1       1.280   8.278  20.640  0.00  0.00    +0.000 A 
ATOM     14  N   UNL     1       0.805   8.743  21.871  0.00  0.00    +0.000 N 
ATOM     15  C   UNL     1       0.300  10.015  21.998  0.00  0.00    +0.000 C 
ATOM     16  O   UNL     1       0.027  10.481  23.101  0.00  0.00    +0.000 OA
ATOM     17  H   UNL     1       0.902   8.200  22.716  0.00  0.00    +0.000 HD
ENDBRANCH   1  11
BRANCH   2  18
ATOM     18  C   UNL     1       2.915   2.933  18.245  0.00  0.00    +0.000 C 
BRANCH  18  19
ATOM     19  C   UNL     1       4.374   3.243  18.572  0.00  0.00    +0.000 C 
BRANCH  19  20
ATOM     20  C   UNL     1       5.229   4.054  17.638  0.00  0.00    +0.000 A 
ATOM     21  C   UNL     1       6.265   4.926  18.024  0.00  0.00    +0.000 A 
ATOM     22  C   UNL     1       7.101   5.505  17.056  0.00  0.00    +0.000 A 
ATOM     23  C   UNL     1       6.891   5.172  15.733  0.00  0.00    +0.000 A 
ATOM     24  C   UNL     1       5.852   4.362  15.352  0.00  0.00    +0.000 A 
ATOM     25  C   UNL     1       4.992   3.818  16.270  0.00  0.00    +0.000 A 
ATOM     26  O   UNL     1       5.836   4.116  14.016  0.00  0.00    +0.000 OA
ATOM     27  C   UNL     1       7.125   4.650  13.659  0.00  0.00    +0.000 C 
ATOM     28  O   UNL     1       7.668   5.525  14.672  0.00  0.00    +0.000 OA
ENDBRANCH  19  20
ENDBRANCH  18  19
ENDBRANCH   2  18
TORSDOF 4
ENDMDL
MODEL 6
REMARK VINA RESULT:      -8.4      1.225      1.923
REMARK  Name = 
REMARK  5 active torsions:
REMARK  status: ('A' for Active; 'I' for Inactive)
REMARK    1  A    between atoms: C_1  and  C_2
REMARK    2  A    between atoms: C_7  and  N_8
REMARK    3  A    between atoms: C_9  and  C_11
REMARK    4  A    between atoms: C_11  and  C_12
REMARK    5  A    between atoms: C_12  and  C_13
REMARK                            x       y       z     vdW  Elec       q    Type
REMARK                         _______ _______ _______ _____ _____    ______ ____
ROOT
ATOM      1  N   UNL     1       2.440   5.804  20.778  0.00  0.00    +0.000 N 
ATOM      2  C   UNL     1       1.721   4.632  20.685  0.00  0.00    +0.000 C 
ATOM      3  O   UNL     1       0.584   4.545  20.225  0.00  0.00    +0.000 OA
ATOM      4  H   UNL     1       3.230   5.822  21.412  0.00  0.00    +0.000 HD
ENDROOT
BRANCH   1  11
ATOM      5  C   UNL     1      -0.411  12.646  18.515  0.00  0.00    +0.000 C 
ATOM      6  C   UNL     1      -0.270  11.241  19.082  0.00  0.00    +0.000 C 
ATOM      7  O   UNL     1       0.843  10.621  18.443  0.00  0.00    +0.000 OA
ATOM      8  C   UNL     1       1.218   9.449  19.047  0.00  0.00    +0.000 A 
ATOM      9  C   UNL     1       1.971   8.564  18.289  0.00  0.00    +0.000 A 
ATOM     10  C   UNL     1       2.391   7.360  18.855  0.00  0.00    +0.000 A 
ATOM     11  C   UNL     1       2.061   7.027  20.178  0.00  0.00    +0.000 A 
ATOM     12  C   UNL     1       1.356   7.950  20.955  0.00  0.00    +0.000 A 
ATOM     13  C   UNL     1       0.929   9.150  20.382  0.00  0.00    +0.000 A 
ATOM     14  N   UNL     1       0.264  10.096  21.169  0.00  0.00    +0.000 N 
ATOM     15  C   UNL     1      -0.221  11.258  20.619  0.00  0.00    +0.000 C 
ATOM     16  O   UNL     1      -0.665  12.157  21.327  0.00  0.00    +0.000 OA
ATOM     17  H   UNL     1       0.201  10.000  22.172  0.00  0.00    +0.000 HD
ENDBRANCH   1  11
BRANCH   2  18
ATOM     18  C   UNL     1       2.431   3.405  21.240  0.00  0.00    +0.000 C 
BRANCH  18  19
ATOM     19  C   UNL     1       2.847   2.572  20.031  0.00  0.00    +0.000 C 
BRANCH  19  20
ATOM     20  C   UNL     1       3.699   3.153  18.937  0.00  0.00    +0.000 A 
ATOM     21  C   UNL     1       3.290   3.372  17.608  0.00  0.00    +0.000 A 
ATOM     22  C   UNL     1       4.121   4.071  16.716  0.00  0.00    +0.000 A 
ATOM     23  C   UNL     1       5.324   4.553  17.192  0.00  0.00    +0.000 A 
ATOM     24  C   UNL     1       5.745   4.298  18.472  0.00  0.00    +0.000 A 
ATOM     25  C   UNL     1       4.976   3.581  19.351  0.00  0.00    +0.000 A 
ATOM     26  O   UNL     1       6.931   4.891  18.766  0.00  0.00    +0.000 OA
ATOM     27  C   UNL     1       7.062   5.747  17.616  0.00  0.00    +0.000 C 
ATOM     28  O   UNL     1       6.198   5.355  16.526  0.00  0.00    +0.000 OA
ENDBRANCH  19  20
ENDBRANCH  18  19
ENDBRANCH   2  18
TORSDOF 4
ENDMDL
MODEL 7
REMARK VINA RESULT:      -8.4      1.583      2.213
REMARK  Name = 
REMARK  5 active torsions:
REMARK  status: ('A' for Active; 'I' for Inactive)
REMARK    1  A    between atoms: C_1  and  C_2
REMARK    2  A    between atoms: C_7  and  N_8
REMARK    3  A    between atoms: C_9  and  C_11
REMARK    4  A    between atoms: C_11  and  C_12
REMARK    5  A    between atoms: C_12  and  C_13
REMARK                            x       y       z     vdW  Elec       q    Type
REMARK                         _______ _______ _______ _____ _____    ______ ____
ROOT
ATOM      1  N   UNL     1       2.510   4.948  18.936  0.00  0.00    +0.000 N 
ATOM      2  C   UNL     1       1.967   4.161  17.943  0.00  0.00    +0.000 C 
ATOM      3  O   UNL     1       1.006   4.480  17.246  0.00  0.00    +0.000 OA
ATOM      4  H   UNL     1       3.099   4.496  19.625  0.00  0.00    +0.000 HD
ENDROOT
BRANCH   1  11
ATOM      5  C   UNL     1       0.117  11.954  21.227  0.00  0.00    +0.000 C 
ATOM      6  C   UNL     1       0.191  10.463  20.933  0.00  0.00    +0.000 C 
ATOM      7  O   UNL     1       1.097  10.275  19.849  0.00  0.00    +0.000 OA
ATOM      8  C   UNL     1       1.434   8.960  19.659  0.00  0.00    +0.000 A 
ATOM      9  C   UNL     1       1.937   8.613  18.414  0.00  0.00    +0.000 A 
ATOM     10  C   UNL     1       2.308   7.291  18.167  0.00  0.00    +0.000 A 
ATOM     11  C   UNL     1       2.176   6.305  19.156  0.00  0.00    +0.000 A 
ATOM     12  C   UNL     1       1.727   6.672  20.427  0.00  0.00    +0.000 A 
ATOM     13  C   UNL     1       1.348   7.995  20.668  0.00  0.00    +0.000 A 
ATOM     14  N   UNL     1       0.944   8.377  21.952  0.00  0.00    +0.000 N 
ATOM     15  C   UNL     1       0.508   9.656  22.204  0.00  0.00    +0.000 C 
ATOM     16  O   UNL     1       0.300  10.040  23.351  0.00  0.00    +0.000 OA
ATOM     17  H   UNL     1       1.045   7.761  22.745  0.00  0.00    +0.000 HD
ENDBRANCH   1  11
BRANCH   2  18
ATOM     18  C   UNL     1       2.631   2.801  17.776  0.00  0.00    +0.000 C 
BRANCH  18  19
ATOM     19  C   UNL     1       4.040   2.943  18.345  0.00  0.00    +0.000 C 
BRANCH  19  20
ATOM     20  C   UNL     1       5.070   3.808  17.671  0.00  0.00    +0.000 A 
ATOM     21  C   UNL     1       5.214   3.979  16.281  0.00  0.00    +0.000 A 
ATOM     22  C   UNL     1       6.107   4.938  15.774  0.00  0.00    +0.000 A 
ATOM     23  C   UNL     1       6.809   5.713  16.676  0.00  0.00    +0.000 A 
ATOM     24  C   UNL     1       6.706   5.513  18.029  0.00  0.00    +0.000 A 
ATOM     25  C   UNL     1       5.876   4.556  18.552  0.00  0.00    +0.000 A 
ATOM     26  O   UNL     1       7.438   6.400  18.752  0.00  0.00    +0.000 OA
ATOM     27  C   UNL     1       7.792   7.325  17.706  0.00  0.00    +0.000 C 
ATOM     28  O   UNL     1       7.616   6.769  16.384  0.00  0.00    +0.000 OA
ENDBRANCH  19  20
ENDBRANCH  18  19
ENDBRANCH   2  18
TORSDOF 4
ENDMDL
MODEL 8
REMARK VINA RESULT:      -8.4      2.101      4.312
REMARK  Name = 
REMARK  5 active torsions:
REMARK  status: ('A' for Active; 'I' for Inactive)
REMARK    1  A    between atoms: C_1  and  C_2
REMARK    2  A    between atoms: C_7  and  N_8
REMARK    3  A    between atoms: C_9  and  C_11
REMARK    4  A    between atoms: C_11  and  C_12
REMARK    5  A    between atoms: C_12  and  C_13
REMARK                            x       y       z     vdW  Elec       q    Type
REMARK                         _______ _______ _______ _____ _____    ______ ____
ROOT
ATOM      1  N   UNL     1       3.050   6.467  17.584  0.00  0.00    +0.000 N 
ATOM      2  C   UNL     1       4.387   6.475  17.245  0.00  0.00    +0.000 C 
ATOM      3  O   UNL     1       5.118   7.461  17.318  0.00  0.00    +0.000 OA
ATOM      4  H   UNL     1       2.481   5.707  17.231  0.00  0.00    +0.000 HD
ENDROOT
BRANCH   1  11
ATOM      5  C   UNL     1      -0.608  11.449  22.258  0.00  0.00    +0.000 C 
ATOM      6  C   UNL     1      -0.154  10.184  21.545  0.00  0.00    +0.000 C 
ATOM      7  O   UNL     1       0.365  10.561  20.272  0.00  0.00    +0.000 OA
ATOM      8  C   UNL     1       1.028   9.539  19.644  0.00  0.00    +0.000 A 
ATOM      9  C   UNL     1       1.188   9.644  18.271  0.00  0.00    +0.000 A 
ATOM     10  C   UNL     1       1.866   8.639  17.579  0.00  0.00    +0.000 A 
ATOM     11  C   UNL     1       2.385   7.522  18.251  0.00  0.00    +0.000 A 
ATOM     12  C   UNL     1       2.275   7.453  19.642  0.00  0.00    +0.000 A 
ATOM     13  C   UNL     1       1.588   8.456  20.329  0.00  0.00    +0.000 A 
ATOM     14  N   UNL     1       1.517   8.415  21.726  0.00  0.00    +0.000 N 
ATOM     15  C   UNL     1       0.797   9.354  22.424  0.00  0.00    +0.000 C 
ATOM     16  O   UNL     1       0.856   9.416  23.649  0.00  0.00    +0.000 OA
ATOM     17  H   UNL     1       2.061   7.758  22.265  0.00  0.00    +0.000 HD
ENDBRANCH   1  11
BRANCH   2  18
ATOM     18  C   UNL     1       4.918   5.149  16.719  0.00  0.00    +0.000 C 
BRANCH  18  19
ATOM     19  C   UNL     1       3.808   4.127  16.946  0.00  0.00    +0.000 C 
BRANCH  19  20
ATOM     20  C   UNL     1       3.631   3.448  18.276  0.00  0.00    +0.000 A 
ATOM     21  C   UNL     1       4.671   3.005  19.115  0.00  0.00    +0.000 A 
ATOM     22  C   UNL     1       4.387   2.531  20.407  0.00  0.00    +0.000 A 
ATOM     23  C   UNL     1       3.073   2.542  20.828  0.00  0.00    +0.000 A 
ATOM     24  C   UNL     1       2.054   2.927  19.994  0.00  0.00    +0.000 A 
ATOM     25  C   UNL     1       2.295   3.352  18.714  0.00  0.00    +0.000 A 
ATOM     26  O   UNL     1       0.839   2.910  20.602  0.00  0.00    +0.000 OA
ATOM     27  C   UNL     1       1.257   2.724  21.967  0.00  0.00    +0.000 C 
ATOM     28  O   UNL     1       2.617   2.247  22.076  0.00  0.00    +0.000 OA
ENDBRANCH  19  20
ENDBRANCH  18  19
ENDBRANCH   2  18
TORSDOF 4
ENDMDL
MODEL 9
REMARK VINA RESULT:      -8.2      5.543      7.995
REMARK  Name = 
REMARK  5 active torsions:
REMARK  status: ('A' for Active; 'I' for Inactive)
REMARK    1  A    between atoms: C_1  and  C_2
REMARK    2  A    between atoms: C_7  and  N_8
REMARK    3  A    between atoms: C_9  and  C_11
REMARK    4  A    between atoms: C_11  and  C_12
REMARK    5  A    between atoms: C_12  and  C_13
REMARK                            x       y       z     vdW  Elec       q    Type
REMARK                         _______ _______ _______ _____ _____    ______ ____
ROOT
ATOM      1  N   UNL     1       6.316   7.514  17.237  0.00  0.00    +0.000 N 
ATOM      2  C   UNL     1       7.544   7.544  17.864  0.00  0.00    +0.000 C 
ATOM      3  O   UNL     1       7.937   6.702  18.669  0.00  0.00    +0.000 OA
ATOM      4  H   UNL     1       5.979   8.374  16.822  0.00  0.00    +0.000 HD
ENDROOT
BRANCH   1  11
ATOM      5  C   UNL     1       1.127   1.923  18.609  0.00  0.00    +0.000 C 
ATOM      6  C   UNL     1       2.241   2.948  18.763  0.00  0.00    +0.000 C 
ATOM      7  O   UNL     1       2.818   3.165  17.478  0.00  0.00    +0.000 OA
ATOM      8  C   UNL     1       3.661   4.246  17.449  0.00  0.00    +0.000 A 
ATOM      9  C   UNL     1       4.586   4.294  16.416  0.00  0.00    +0.000 A 
ATOM     10  C   UNL     1       5.462   5.376  16.329  0.00  0.00    +0.000 A 
ATOM     11  C   UNL     1       5.425   6.415  17.272  0.00  0.00    +0.000 A 
ATOM     12  C   UNL     1       4.451   6.392  18.272  0.00  0.00    +0.000 A 
ATOM     13  C   UNL     1       3.582   5.302  18.362  0.00  0.00    +0.000 A 
ATOM     14  N   UNL     1       2.575   5.297  19.333  0.00  0.00    +0.000 N 
ATOM     15  C   UNL     1       1.744   4.212  19.484  0.00  0.00    +0.000 C 
ATOM     16  O   UNL     1       0.766   4.261  20.224  0.00  0.00    +0.000 OA
ATOM     17  H   UNL     1       2.367   6.116  19.886  0.00  0.00    +0.000 HD
ENDBRANCH   1  11
BRANCH   2  18
ATOM     18  C   UNL     1       8.406   8.749  17.515  0.00  0.00    +0.000 C 
BRANCH  18  19
ATOM     19  C   UNL     1       8.757   9.418  18.841  0.00  0.00    +0.000 C 
BRANCH  19  20
ATOM     20  C   UNL     1       9.582  10.675  18.887  0.00  0.00    +0.000 A 
ATOM     21  C   UNL     1      10.173  11.309  17.778  0.00  0.00    +0.000 A 
ATOM     22  C   UNL     1      10.784  12.566  17.922  0.00  0.00    +0.000 A 
ATOM     23  C   UNL     1      10.761  13.160  19.168  0.00  0.00    +0.000 A 
ATOM     24  C   UNL     1      10.230  12.521  20.260  0.00  0.00    +0.000 A 
ATOM     25  C   UNL     1       9.666  11.276  20.159  0.00  0.00    +0.000 A 
ATOM     26  O   UNL     1      10.261  13.282  21.384  0.00  0.00    +0.000 OA
ATOM     27  C   UNL     1      10.630  14.548  20.806  0.00  0.00    +0.000 C 
ATOM     28  O   UNL     1      11.182  14.417  19.477  0.00  0.00    +0.000 OA
ENDBRANCH  19  20
ENDBRANCH  18  19
ENDBRANCH   2  18
TORSDOF 4
ENDMDL
