MODEL 1
REMARK VINA RESULT:      -8.7      0.000      0.000
REMARK  Name = 
REMARK  4 active torsions:
REMARK  status: ('A' for Active; 'I' for Inactive)
REMARK    1  A    between atoms: C_1  and  N_2
REMARK    2  A    between atoms: N_2  and  C_3
REMARK    3  A    between atoms: C_3  and  C_4
REMARK    4  A    between atoms: C_15  and  C_17
REMARK                            x       y       z     vdW  Elec       q    Type
REMARK                         _______ _______ _______ _____ _____    ______ ____
ROOT
ATOM      1  C   UNL     1       7.923   7.168  18.160  0.00  0.00    +0.000 C 
ATOM      2  N   UNL     1       6.698   6.400  17.987  0.00  0.00    +0.000 N 
ATOM      3  C   UNL     1       6.408   5.450  18.986  0.00  0.00    +0.000 C 
ATOM      4  O   UNL     1       7.156   5.286  19.955  0.00  0.00    +0.000 OA
ENDROOT
BRANCH   3   5
ATOM      5  C   UNL     1       5.155   4.627  18.944  0.00  0.00    +0.000 A 
ATOM      6  C   UNL     1       5.137   3.506  18.122  0.00  0.00    +0.000 A 
ATOM      7  C   UNL     1       3.983   2.734  18.083  0.00  0.00    +0.000 A 
ATOM      8  C   UNL     1       2.876   3.105  18.851  0.00  0.00    +0.000 A 
ATOM      9  C   UNL     1       1.691   2.351  18.847  0.00  0.00    +0.000 A 
ATOM     10  C   UNL     1       0.600   2.748  19.618  0.00  0.00    +0.000 A 
ATOM     11  C   UNL     1       0.692   3.897  20.396  0.00  0.00    +0.000 A 
ATOM     12  C   UNL     1       1.872   4.644  20.401  0.00  0.00    +0.000 A 
ATOM     13  C   UNL     1       2.975   4.271  19.644  0.00  0.00    +0.000 A 
ATOM     14  N   UNL     1       4.091   5.017  19.689  0.00  0.00    +0.000 NA
ENDBRANCH   3   5
BRANCH   2  15
ATOM     15  C   UNL     1       5.862   6.579  16.784  0.00  0.00    +0.000 C 
BRANCH  15  16
ATOM     16  C   UNL     1       6.208   5.799  15.519  0.00  0.00    +0.000 A 
ATOM     17  N   UNL     1       5.336   5.039  14.938  0.00  0.00    +0.000 NA
ATOM     18  C   UNL     1       5.734   4.348  13.780  0.00  0.00    +0.000 A 
ATOM     19  C   UNL     1       4.862   3.417  13.210  0.00  0.00    +0.000 A 
ATOM     20  C   UNL     1       5.213   2.743  12.037  0.00  0.00    +0.000 A 
ATOM     21  C   UNL     1       6.433   3.005  11.412  0.00  0.00    +0.000 A 
ATOM     22  C   UNL     1       7.320   3.922  11.977  0.00  0.00    +0.000 A 
ATOM     23  C   UNL     1       6.969   4.563  13.167  0.00  0.00    +0.000 A 
ATOM     24  C   UNL     1       7.911   5.468  13.848  0.00  0.00    +0.000 A 
ATOM     25  O   UNL     1       8.984   5.793  13.357  0.00  0.00    +0.000 OA
ATOM     26  N   UNL     1       7.497   5.937  15.066  0.00  0.00    +0.000 N 
ATOM     27  H   UNL     1       8.141   6.554  15.545  0.00  0.00    +0.000 HD
ENDBRANCH  15  16
ENDBRANCH   2  15
TORSDOF 3
ENDMDL
MODEL 2
REMARK VINA RESULT:      -8.6      1.674      6.760
REMARK  Name = 
REMARK  4 active torsions:
REMARK  status: ('A' for Active; 'I' for Inactive)
REMARK    1  A    between atoms: C_1  and  N_2
REMARK    2  A    between atoms: N_2  and  C_3
REMARK    3  A    between atoms: C_3  and  C_4
REMARK    4  A    between atoms: C_15  and  C_17
REMARK                            x       y       z     vdW  Elec       q    Type
REMARK                         _______ _______ _______ _____ _____    ______ ____
ROOT
ATOM      1  C   UNL     1       8.155   6.685  19.291  0.00  0.00    +0.000 C 
ATOM      2  N   UNL     1       7.512   5.840  18.294  0.00  0.00    +0.000 N 
ATOM      3  C   UNL     1       7.261   6.433  17.041  0.00  0.00    +0.000 C 
ATOM      4  O   UNL     1       7.574   7.605  16.809  0.00  0.00    +0.000 OA
ENDROOT
BRANCH   3   5
ATOM      5  C   UNL     1       6.644   5.656  15.917  0.00  0.00    +0.000 A 
ATOM      6  C   UNL     1       5.312   5.276  16.039  0.00  0.00    +0.000 A 
ATOM      7  C   UNL     1       4.730   4.563  15.000  0.00  0.00    +0.000 A 
ATOM      8  C   UNL     1       5.492   4.235  13.874  0.00  0.00    +0.000 A 
ATOM      9  C   UNL     1       4.943   3.520  12.797  0.00  0.00    +0.000 A 
ATOM     10  C   UNL     1       5.728   3.202  11.689  0.00  0.00    +0.000 A 
ATOM     11  C   UNL     1       7.060   3.599  11.656  0.00  0.00    +0.000 A 
ATOM     12  C   UNL     1       7.603   4.313  12.727  0.00  0.00    +0.000 A 
ATOM     13  C   UNL     1       6.844   4.645  13.841  0.00  0.00    +0.000 A 
ATOM     14  N   UNL     1       7.409   5.340  14.843  0.00  0.00    +0.000 NA
ENDBRANCH   3   5
BRANCH   2  15
ATOM     15  C   UNL     1       7.096   4.465  18.628  0.00  0.00    +0.000 C 
BRANCH  15  16
ATOM     16  C   UNL     1       5.645   4.207  19.024  0.00  0.00    +0.000 A 
ATOM     17  N   UNL     1       4.862   5.176  19.378  0.00  0.00    +0.000 NA
ATOM     18  C   UNL     1       3.541   4.856  19.735  0.00  0.00    +0.000 A 
ATOM     19  C   UNL     1       2.714   5.856  20.251  0.00  0.00    +0.000 A 
ATOM     20  C   UNL     1       1.385   5.579  20.578  0.00  0.00    +0.000 A 
ATOM     21  C   UNL     1       0.861   4.301  20.375  0.00  0.00    +0.000 A 
ATOM     22  C   UNL     1       1.678   3.288  19.873  0.00  0.00    +0.000 A 
ATOM     23  C   UNL     1       3.014   3.572  19.582  0.00  0.00    +0.000 A 
ATOM     24  C   UNL     1       3.936   2.513  19.138  0.00  0.00    +0.000 A 
ATOM     25  O   UNL     1       3.562   1.375  18.890  0.00  0.00    +0.000 OA
ATOM     26  N   UNL     1       5.245   2.894  19.003  0.00  0.00    +0.000 N 
ATOM     27  H   UNL     1       5.888   2.171  18.705  0.00  0.00    +0.000 HD
ENDBRANCH  15  16
ENDBRANCH   2  15
TORSDOF 3
ENDMDL
MODEL 3
REMARK VINA RESULT:      -8.2      3.566      7.588
REMARK  Name = 
REMARK  4 active torsions:
REMARK  status: ('A' for Active; 'I' for Inactive)
REMARK    1  A    between atoms: C_1  and  N_2
REMARK    2  A    between atoms: N_2  and  C_3
REMARK    3  A    between atoms: C_3  and  C_4
REMARK    4  A    between atoms: C_15  and  C_17
REMARK                            x       y       z     vdW  Elec       q    Type
REMARK                         _______ _______ _______ _____ _____    ______ ____
ROOT
ATOM      1  C   UNL     1       0.964   3.512  20.516  0.00  0.00    +0.000 C 
ATOM      2  N   UNL     1       2.187   4.025  19.914  0.00  0.00    +0.000 N 
ATOM      3  C   UNL     1       2.746   3.252  18.878  0.00  0.00    +0.000 C 
ATOM      4  O   UNL     1       2.220   2.199  18.504  0.00  0.00    +0.000 OA
ENDROOT
BRANCH   3   5
ATOM      5  C   UNL     1       3.980   3.695  18.150  0.00  0.00    +0.000 A 
ATOM      6  C   UNL     1       5.083   4.078  18.905  0.00  0.00    +0.000 A 
ATOM      7  C   UNL     1       6.232   4.482  18.239  0.00  0.00    +0.000 A 
ATOM      8  C   UNL     1       6.249   4.506  16.841  0.00  0.00    +0.000 A 
ATOM      9  C   UNL     1       7.391   4.903  16.126  0.00  0.00    +0.000 A 
ATOM     10  C   UNL     1       7.378   4.923  14.732  0.00  0.00    +0.000 A 
ATOM     11  C   UNL     1       6.225   4.548  14.051  0.00  0.00    +0.000 A 
ATOM     12  C   UNL     1       5.091   4.151  14.765  0.00  0.00    +0.000 A 
ATOM     13  C   UNL     1       5.077   4.119  16.153  0.00  0.00    +0.000 A 
ATOM     14  N   UNL     1       3.965   3.722  16.794  0.00  0.00    +0.000 NA
ENDBRANCH   3   5
BRANCH   2  15
ATOM     15  C   UNL     1       2.821   5.254  20.430  0.00  0.00    +0.000 C 
BRANCH  15  16
ATOM     16  C   UNL     1       2.226   6.607  20.055  0.00  0.00    +0.000 A 
ATOM     17  N   UNL     1       1.544   7.301  20.909  0.00  0.00    +0.000 NA
ATOM     18  C   UNL     1       1.022   8.536  20.485  0.00  0.00    +0.000 A 
ATOM     19  C   UNL     1       0.170   9.243  21.336  0.00  0.00    +0.000 A 
ATOM     20  C   UNL     1      -0.333  10.491  20.959  0.00  0.00    +0.000 A 
ATOM     21  C   UNL     1       0.026  11.055  19.733  0.00  0.00    +0.000 A 
ATOM     22  C   UNL     1       0.865  10.354  18.867  0.00  0.00    +0.000 A 
ATOM     23  C   UNL     1       1.334   9.094  19.244  0.00  0.00    +0.000 A 
ATOM     24  C   UNL     1       2.147   8.279  18.324  0.00  0.00    +0.000 A 
ATOM     25  O   UNL     1       2.548   8.704  17.248  0.00  0.00    +0.000 OA
ATOM     26  N   UNL     1       2.439   7.015  18.762  0.00  0.00    +0.000 N 
ATOM     27  H   UNL     1       2.992   6.446  18.133  0.00  0.00    +0.000 HD
ENDBRANCH  15  16
ENDBRANCH   2  15
TORSDOF 3
ENDMDL
MODEL 4
REMARK VINA RESULT:      -8.2      0.722      1.454
REMARK  Name = 
REMARK  4 active torsions:
REMARK  status: ('A' for Active; 'I' for Inactive)
REMARK    1  A    between atoms: C_1  and  N_2
REMARK    2  A    between atoms: N_2  and  C_3
REMARK    3  A    between atoms: C_3  and  C_4
REMARK    4  A    between atoms: C_15  and  C_17
REMARK                            x       y       z     vdW  Elec       q    Type
REMARK                         _______ _______ _______ _____ _____    ______ ____
ROOT
ATOM      1  C   UNL     1       7.876   6.764  17.945  0.00  0.00    +0.000 C 
ATOM      2  N   UNL     1       6.517   6.241  17.928  0.00  0.00    +0.000 N 
ATOM      3  C   UNL     1       6.098   5.553  19.083  0.00  0.00    +0.000 C 
ATOM      4  O   UNL     1       6.847   5.408  20.054  0.00  0.00    +0.000 OA
ENDROOT
BRANCH   3   5
ATOM      5  C   UNL     1       4.707   5.005  19.205  0.00  0.00    +0.000 A 
ATOM      6  C   UNL     1       3.727   5.824  19.754  0.00  0.00    +0.000 A 
ATOM      7  C   UNL     1       2.436   5.326  19.864  0.00  0.00    +0.000 A 
ATOM      8  C   UNL     1       2.157   4.025  19.437  0.00  0.00    +0.000 A 
ATOM      9  C   UNL     1       0.864   3.483  19.525  0.00  0.00    +0.000 A 
ATOM     10  C   UNL     1       0.616   2.180  19.097  0.00  0.00    +0.000 A 
ATOM     11  C   UNL     1       1.657   1.417  18.582  0.00  0.00    +0.000 A 
ATOM     12  C   UNL     1       2.942   1.959  18.493  0.00  0.00    +0.000 A 
ATOM     13  C   UNL     1       3.217   3.254  18.909  0.00  0.00    +0.000 A 
ATOM     14  N   UNL     1       4.467   3.734  18.796  0.00  0.00    +0.000 NA
ENDBRANCH   3   5
BRANCH   2  15
ATOM     15  C   UNL     1       5.673   6.379  16.725  0.00  0.00    +0.000 C 
BRANCH  15  16
ATOM     16  C   UNL     1       6.069   5.633  15.454  0.00  0.00    +0.000 A 
ATOM     17  N   UNL     1       5.228   4.869  14.834  0.00  0.00    +0.000 NA
ATOM     18  C   UNL     1       5.671   4.211  13.673  0.00  0.00    +0.000 A 
ATOM     19  C   UNL     1       4.834   3.275  13.060  0.00  0.00    +0.000 A 
ATOM     20  C   UNL     1       5.230   2.634  11.883  0.00  0.00    +0.000 A 
ATOM     21  C   UNL     1       6.460   2.934  11.296  0.00  0.00    +0.000 A 
ATOM     22  C   UNL     1       7.313   3.856  11.904  0.00  0.00    +0.000 A 
ATOM     23  C   UNL     1       6.917   4.465  13.098  0.00  0.00    +0.000 A 
ATOM     24  C   UNL     1       7.822   5.374  13.823  0.00  0.00    +0.000 A 
ATOM     25  O   UNL     1       8.900   5.731  13.367  0.00  0.00    +0.000 OA
ATOM     26  N   UNL     1       7.366   5.808  15.039  0.00  0.00    +0.000 N 
ATOM     27  H   UNL     1       7.984   6.427  15.548  0.00  0.00    +0.000 HD
ENDBRANCH  15  16
ENDBRANCH   2  15
TORSDOF 3
ENDMDL
MODEL 5
REMARK VINA RESULT:      -8.0      3.682      7.636
REMARK  Name = 
REMARK  4 active torsions:
REMARK  status: ('A' for Active; 'I' for Inactive)
REMARK    1  A    between atoms: C_1  and  N_2
REMARK    2  A    between atoms: N_2  and  C_3
REMARK    3  A    between atoms: C_3  and  C_4
REMARK    4  A    between atoms: C_15  and  C_17
REMARK                            x       y       z     vdW  Elec       q    Type
REMARK                         _______ _______ _______ _____ _____    ______ ____
ROOT
ATOM      1  C   UNL     1       0.891   2.926  20.031  0.00  0.00    +0.000 C 
ATOM      2  N   UNL     1       1.985   3.860  19.804  0.00  0.00    +0.000 N 
ATOM      3  C   UNL     1       2.743   3.663  18.633  0.00  0.00    +0.000 C 
ATOM      4  O   UNL     1       2.485   2.748  17.845  0.00  0.00    +0.000 OA
ENDROOT
BRANCH   3   5
ATOM      5  C   UNL     1       3.868   4.584  18.265  0.00  0.00    +0.000 A 
ATOM      6  C   UNL     1       3.736   5.350  17.112  0.00  0.00    +0.000 A 
ATOM      7  C   UNL     1       4.770   6.210  16.769  0.00  0.00    +0.000 A 
ATOM      8  C   UNL     1       5.911   6.276  17.573  0.00  0.00    +0.000 A 
ATOM      9  C   UNL     1       6.979   7.136  17.266  0.00  0.00    +0.000 A 
ATOM     10  C   UNL     1       8.108   7.177  18.083  0.00  0.00    +0.000 A 
ATOM     11  C   UNL     1       8.172   6.360  19.206  0.00  0.00    +0.000 A 
ATOM     12  C   UNL     1       7.108   5.507  19.511  0.00  0.00    +0.000 A 
ATOM     13  C   UNL     1       5.970   5.448  18.716  0.00  0.00    +0.000 A 
ATOM     14  N   UNL     1       4.969   4.618  19.055  0.00  0.00    +0.000 NA
ENDBRANCH   3   5
BRANCH   2  15
ATOM     15  C   UNL     1       2.303   4.902  20.799  0.00  0.00    +0.000 C 
BRANCH  15  16
ATOM     16  C   UNL     1       1.931   6.351  20.499  0.00  0.00    +0.000 A 
ATOM     17  N   UNL     1       2.244   6.905  19.371  0.00  0.00    +0.000 NA
ATOM     18  C   UNL     1       1.872   8.246  19.173  0.00  0.00    +0.000 A 
ATOM     19  C   UNL     1       2.314   8.912  18.028  0.00  0.00    +0.000 A 
ATOM     20  C   UNL     1       1.928  10.233  17.783  0.00  0.00    +0.000 A 
ATOM     21  C   UNL     1       1.081  10.897  18.672  0.00  0.00    +0.000 A 
ATOM     22  C   UNL     1       0.643  10.249  19.827  0.00  0.00    +0.000 A 
ATOM     23  C   UNL     1       1.063   8.940  20.075  0.00  0.00    +0.000 A 
ATOM     24  C   UNL     1       0.702   8.250  21.325  0.00  0.00    +0.000 A 
ATOM     25  O   UNL     1      -0.070   8.732  22.144  0.00  0.00    +0.000 OA
ATOM     26  N   UNL     1       1.276   7.019  21.503  0.00  0.00    +0.000 N 
ATOM     27  H   UNL     1       1.038   6.540  22.363  0.00  0.00    +0.000 HD
ENDBRANCH  15  16
ENDBRANCH   2  15
TORSDOF 3
ENDMDL
MODEL 6
REMARK VINA RESULT:      -7.9      1.502      6.605
REMARK  Name = 
REMARK  4 active torsions:
REMARK  status: ('A' for Active; 'I' for Inactive)
REMARK    1  A    between atoms: C_1  and  N_2
REMARK    2  A    between atoms: N_2  and  C_3
REMARK    3  A    between atoms: C_3  and  C_4
REMARK    4  A    between atoms: C_15  and  C_17
REMARK                            x       y       z     vdW  Elec       q    Type
REMARK                         _______ _______ _______ _____ _____    ______ ____
ROOT
ATOM      1  C   UNL     1       8.080   6.675  19.274  0.00  0.00    +0.000 C 
ATOM      2  N   UNL     1       7.415   5.838  18.285  0.00  0.00    +0.000 N 
ATOM      3  C   UNL     1       7.277   6.386  16.994  0.00  0.00    +0.000 C 
ATOM      4  O   UNL     1       7.703   7.513  16.724  0.00  0.00    +0.000 OA
ENDROOT
BRANCH   3   5
ATOM      5  C   UNL     1       6.648   5.607  15.877  0.00  0.00    +0.000 A 
ATOM      6  C   UNL     1       5.313   5.242  16.006  0.00  0.00    +0.000 A 
ATOM      7  C   UNL     1       4.721   4.528  14.973  0.00  0.00    +0.000 A 
ATOM      8  C   UNL     1       5.475   4.186  13.847  0.00  0.00    +0.000 A 
ATOM      9  C   UNL     1       4.915   3.469  12.776  0.00  0.00    +0.000 A 
ATOM     10  C   UNL     1       5.693   3.136  11.668  0.00  0.00    +0.000 A 
ATOM     11  C   UNL     1       7.029   3.519  11.628  0.00  0.00    +0.000 A 
ATOM     12  C   UNL     1       7.583   4.234  12.693  0.00  0.00    +0.000 A 
ATOM     13  C   UNL     1       6.832   4.581  13.807  0.00  0.00    +0.000 A 
ATOM     14  N   UNL     1       7.406   5.277  14.803  0.00  0.00    +0.000 NA
ENDBRANCH   3   5
BRANCH   2  15
ATOM     15  C   UNL     1       6.862   4.523  18.662  0.00  0.00    +0.000 C 
BRANCH  15  16
ATOM     16  C   UNL     1       5.368   4.401  18.943  0.00  0.00    +0.000 A 
ATOM     17  N   UNL     1       4.776   3.249  18.947  0.00  0.00    +0.000 NA
ATOM     18  C   UNL     1       3.396   3.220  19.208  0.00  0.00    +0.000 A 
ATOM     19  C   UNL     1       2.704   2.013  19.084  0.00  0.00    +0.000 A 
ATOM     20  C   UNL     1       1.340   1.944  19.375  0.00  0.00    +0.000 A 
ATOM     21  C   UNL     1       0.654   3.079  19.811  0.00  0.00    +0.000 A 
ATOM     22  C   UNL     1       1.327   4.295  19.927  0.00  0.00    +0.000 A 
ATOM     23  C   UNL     1       2.684   4.355  19.601  0.00  0.00    +0.000 A 
ATOM     24  C   UNL     1       3.413   5.635  19.619  0.00  0.00    +0.000 A 
ATOM     25  O   UNL     1       2.911   6.674  20.029  0.00  0.00    +0.000 OA
ATOM     26  N   UNL     1       4.703   5.582  19.162  0.00  0.00    +0.000 N 
ATOM     27  H   UNL     1       5.210   6.458  19.165  0.00  0.00    +0.000 HD
ENDBRANCH  15  16
ENDBRANCH   2  15
TORSDOF 3
ENDMDL
MODEL 7
REMARK VINA RESULT:      -7.9      3.603      7.613
REMARK  Name = 
REMARK  4 active torsions:
REMARK  status: ('A' for Active; 'I' for Inactive)
REMARK    1  A    between atoms: C_1  and  N_2
REMARK    2  A    between atoms: N_2  and  C_3
REMARK    3  A    between atoms: C_3  and  C_4
REMARK    4  A    between atoms: C_15  and  C_17
REMARK                            x       y       z     vdW  Elec       q    Type
REMARK                         _______ _______ _______ _____ _____    ______ ____
ROOT
ATOM      1  C   UNL     1       0.651   3.388  20.324  0.00  0.00    +0.000 C 
ATOM      2  N   UNL     1       1.933   3.889  19.848  0.00  0.00    +0.000 N 
ATOM      3  C   UNL     1       2.487   3.229  18.734  0.00  0.00    +0.000 C 
ATOM      4  O   UNL     1       1.910   2.280  18.194  0.00  0.00    +0.000 OA
ENDROOT
BRANCH   3   5
ATOM      5  C   UNL     1       3.782   3.678  18.123  0.00  0.00    +0.000 A 
ATOM      6  C   UNL     1       4.828   4.008  18.978  0.00  0.00    +0.000 A 
ATOM      7  C   UNL     1       6.032   4.417  18.420  0.00  0.00    +0.000 A 
ATOM      8  C   UNL     1       6.159   4.498  17.030  0.00  0.00    +0.000 A 
ATOM      9  C   UNL     1       7.360   4.902  16.423  0.00  0.00    +0.000 A 
ATOM     10  C   UNL     1       7.456   4.980  15.035  0.00  0.00    +0.000 A 
ATOM     11  C   UNL     1       6.354   4.655  14.252  0.00  0.00    +0.000 A 
ATOM     12  C   UNL     1       5.162   4.251  14.857  0.00  0.00    +0.000 A 
ATOM     13  C   UNL     1       5.038   4.162  16.237  0.00  0.00    +0.000 A 
ATOM     14  N   UNL     1       3.873   3.761  16.773  0.00  0.00    +0.000 NA
ENDBRANCH   3   5
BRANCH   2  15
ATOM     15  C   UNL     1       2.623   4.983  20.558  0.00  0.00    +0.000 C 
BRANCH  15  16
ATOM     16  C   UNL     1       2.172   6.421  20.318  0.00  0.00    +0.000 A 
ATOM     17  N   UNL     1       2.376   7.009  19.182  0.00  0.00    +0.000 NA
ATOM     18  C   UNL     1       1.938   8.337  19.042  0.00  0.00    +0.000 A 
ATOM     19  C   UNL     1       2.264   9.042  17.881  0.00  0.00    +0.000 A 
ATOM     20  C   UNL     1       1.809  10.350  17.695  0.00  0.00    +0.000 A 
ATOM     21  C   UNL     1       1.007  10.961  18.660  0.00  0.00    +0.000 A 
ATOM     22  C   UNL     1       0.684  10.275  19.830  0.00  0.00    +0.000 A 
ATOM     23  C   UNL     1       1.173   8.980  20.017  0.00  0.00    +0.000 A 
ATOM     24  C   UNL     1       0.936   8.252  21.276  0.00  0.00    +0.000 A 
ATOM     25  O   UNL     1       0.210   8.687  22.161  0.00  0.00    +0.000 OA
ATOM     26  N   UNL     1       1.570   7.043  21.383  0.00  0.00    +0.000 N 
ATOM     27  H   UNL     1       1.418   6.539  22.248  0.00  0.00    +0.000 HD
ENDBRANCH  15  16
ENDBRANCH   2  15
TORSDOF 3
ENDMDL
MODEL 8
REMARK VINA RESULT:      -7.9      2.747      4.355
REMARK  Name = 
REMARK  4 active torsions:
REMARK  status: ('A' for Active; 'I' for Inactive)
REMARK    1  A    between atoms: C_1  and  N_2
REMARK    2  A    between atoms: N_2  and  C_3
REMARK    3  A    between atoms: C_3  and  C_4
REMARK    4  A    between atoms: C_15  and  C_17
REMARK                            x       y       z     vdW  Elec       q    Type
REMARK                         _______ _______ _______ _____ _____    ______ ____
ROOT
ATOM      1  C   UNL     1       3.567   1.381  18.804  0.00  0.00    +0.000 C 
ATOM      2  N   UNL     1       3.499   2.817  19.039  0.00  0.00    +0.000 N 
ATOM      3  C   UNL     1       2.210   3.383  19.083  0.00  0.00    +0.000 C 
ATOM      4  O   UNL     1       1.198   2.691  18.933  0.00  0.00    +0.000 OA
ENDROOT
BRANCH   3   5
ATOM      5  C   UNL     1       2.005   4.843  19.360  0.00  0.00    +0.000 A 
ATOM      6  C   UNL     1       1.616   5.216  20.642  0.00  0.00    +0.000 A 
ATOM      7  C   UNL     1       1.432   6.567  20.908  0.00  0.00    +0.000 A 
ATOM      8  C   UNL     1       1.626   7.506  19.891  0.00  0.00    +0.000 A 
ATOM      9  C   UNL     1       1.457   8.882  20.118  0.00  0.00    +0.000 A 
ATOM     10  C   UNL     1       1.652   9.795  19.083  0.00  0.00    +0.000 A 
ATOM     11  C   UNL     1       2.017   9.337  17.823  0.00  0.00    +0.000 A 
ATOM     12  C   UNL     1       2.188   7.968  17.600  0.00  0.00    +0.000 A 
ATOM     13  C   UNL     1       2.003   7.036  18.612  0.00  0.00    +0.000 A 
ATOM     14  N   UNL     1       2.188   5.731  18.352  0.00  0.00    +0.000 NA
ENDBRANCH   3   5
BRANCH   2  15
ATOM     15  C   UNL     1       4.732   3.620  19.150  0.00  0.00    +0.000 C 
BRANCH  15  16
ATOM     16  C   UNL     1       5.455   4.046  17.876  0.00  0.00    +0.000 A 
ATOM     17  N   UNL     1       5.126   3.559  16.722  0.00  0.00    +0.000 NA
ATOM     18  C   UNL     1       5.845   3.996  15.596  0.00  0.00    +0.000 A 
ATOM     19  C   UNL     1       5.607   3.390  14.360  0.00  0.00    +0.000 A 
ATOM     20  C   UNL     1       6.277   3.829  13.215  0.00  0.00    +0.000 A 
ATOM     21  C   UNL     1       7.179   4.892  13.289  0.00  0.00    +0.000 A 
ATOM     22  C   UNL     1       7.437   5.498  14.519  0.00  0.00    +0.000 A 
ATOM     23  C   UNL     1       6.785   5.027  15.661  0.00  0.00    +0.000 A 
ATOM     24  C   UNL     1       7.094   5.574  16.993  0.00  0.00    +0.000 A 
ATOM     25  O   UNL     1       7.837   6.534  17.154  0.00  0.00    +0.000 OA
ATOM     26  N   UNL     1       6.479   4.945  18.042  0.00  0.00    +0.000 N 
ATOM     27  H   UNL     1       6.691   5.310  18.963  0.00  0.00    +0.000 HD
ENDBRANCH  15  16
ENDBRANCH   2  15
TORSDOF 3
ENDMDL
MODEL 9
REMARK VINA RESULT:      -7.9      3.199      4.571
REMARK  Name = 
REMARK  4 active torsions:
REMARK  status: ('A' for Active; 'I' for Inactive)
REMARK    1  A    between atoms: C_1  and  N_2
REMARK    2  A    between atoms: N_2  and  C_3
REMARK    3  A    between atoms: C_3  and  C_4
REMARK    4  A    between atoms: C_15  and  C_17
REMARK                            x       y       z     vdW  Elec       q    Type
REMARK                         _______ _______ _______ _____ _____    ______ ____
ROOT
ATOM      1  C   UNL     1       3.535   2.561  20.065  0.00  0.00    +0.000 C 
ATOM      2  N   UNL     1       3.493   4.000  19.844  0.00  0.00    +0.000 N 
ATOM      3  C   UNL     1       2.216   4.569  19.674  0.00  0.00    +0.000 C 
ATOM      4  O   UNL     1       1.193   3.879  19.713  0.00  0.00    +0.000 OA
ENDROOT
BRANCH   3   5
ATOM      5  C   UNL     1       2.037   6.046  19.482  0.00  0.00    +0.000 A 
ATOM      6  C   UNL     1       2.302   6.579  18.225  0.00  0.00    +0.000 A 
ATOM      7  C   UNL     1       2.131   7.944  18.038  0.00  0.00    +0.000 A 
ATOM      8  C   UNL     1       1.716   8.743  19.107  0.00  0.00    +0.000 A 
ATOM      9  C   UNL     1       1.525  10.127  18.961  0.00  0.00    +0.000 A 
ATOM     10  C   UNL     1       1.116  10.900  20.046  0.00  0.00    +0.000 A 
ATOM     11  C   UNL     1       0.896  10.293  21.277  0.00  0.00    +0.000 A 
ATOM     12  C   UNL     1       1.083   8.916  21.419  0.00  0.00    +0.000 A 
ATOM     13  C   UNL     1       1.488   8.121  20.355  0.00  0.00    +0.000 A 
ATOM     14  N   UNL     1       1.646   6.800  20.539  0.00  0.00    +0.000 NA
ENDBRANCH   3   5
BRANCH   2  15
ATOM     15  C   UNL     1       4.741   4.781  19.740  0.00  0.00    +0.000 C 
BRANCH  15  16
ATOM     16  C   UNL     1       5.405   4.935  18.376  0.00  0.00    +0.000 A 
ATOM     17  N   UNL     1       5.090   4.166  17.384  0.00  0.00    +0.000 NA
ATOM     18  C   UNL     1       5.752   4.366  16.160  0.00  0.00    +0.000 A 
ATOM     19  C   UNL     1       5.535   3.468  15.113  0.00  0.00    +0.000 A 
ATOM     20  C   UNL     1       6.148   3.662  13.873  0.00  0.00    +0.000 A 
ATOM     21  C   UNL     1       6.972   4.769  13.660  0.00  0.00    +0.000 A 
ATOM     22  C   UNL     1       7.210   5.667  14.700  0.00  0.00    +0.000 A 
ATOM     23  C   UNL     1       6.616   5.442  15.944  0.00  0.00    +0.000 A 
ATOM     24  C   UNL     1       6.911   6.311  17.095  0.00  0.00    +0.000 A 
ATOM     25  O   UNL     1       7.585   7.328  16.997  0.00  0.00    +0.000 OA
ATOM     26  N   UNL     1       6.364   5.913  18.286  0.00  0.00    +0.000 N 
ATOM     27  H   UNL     1       6.568   6.501  19.085  0.00  0.00    +0.000 HD
ENDBRANCH  15  16
ENDBRANCH   2  15
TORSDOF 3
ENDMDL
