MODEL 1
REMARK VINA RESULT:      -9.0      0.000      0.000
REMARK  Name = 
REMARK  3 active torsions:
REMARK  status: ('A' for Active; 'I' for Inactive)
REMARK    1  A    between atoms: C_1  and  C_2
REMARK    2  A    between atoms: C_4  and  N_5
REMARK    3  A    between atoms: C_9  and  C_10
REMARK                            x       y       z     vdW  Elec       q    Type
REMARK                         _______ _______ _______ _____ _____    ______ ____
ROOT
ATOM      1  N   UNL     1       4.261   4.838  18.175  0.00  0.00    +0.000 N 
ATOM      2  C   UNL     1       4.296   3.715  19.116  0.00  0.00    +0.000 C 
ATOM      3  C   UNL     1       3.005   2.968  18.838  0.00  0.00    +0.000 C 
ATOM      4  C   UNL     1       2.011   4.076  18.542  0.00  0.00    +0.000 C 
ATOM      5  C   UNL     1       2.851   5.197  17.891  0.00  0.00    +0.000 C 
ENDROOT
BRANCH   1   9
ATOM      6  C   UNL     1       8.053   8.070  18.071  0.00  0.00    +0.000 C 
ATOM      7  C   UNL     1       7.303   6.931  17.424  0.00  0.00    +0.000 A 
ATOM      8  C   UNL     1       6.112   6.394  18.147  0.00  0.00    +0.000 A 
ATOM      9  C   UNL     1       5.404   5.404  17.564  0.00  0.00    +0.000 A 
ATOM     10  N   UNL     1       5.875   4.945  16.297  0.00  0.00    +0.000 N 
ATOM     11  N   UNL     1       5.407   3.953  15.483  0.00  0.00    +0.000 NA
ATOM     12  C   UNL     1       6.264   3.982  14.468  0.00  0.00    +0.000 A 
ATOM     13  N   UNL     1       7.266   4.889  14.558  0.00  0.00    +0.000 NA
ATOM     14  C   UNL     1       7.029   5.496  15.701  0.00  0.00    +0.000 A 
ATOM     15  N   UNL     1       7.739   6.505  16.279  0.00  0.00    +0.000 NA
ENDBRANCH   1   9
BRANCH   5  16
ATOM     16  C   UNL     1       2.454   6.540  18.489  0.00  0.00    +0.000 A 
ATOM     17  C   UNL     1       2.306   7.667  17.644  0.00  0.00    +0.000 A 
ATOM     18  C   UNL     1       1.837   8.891  18.137  0.00  0.00    +0.000 A 
ATOM     19  C   UNL     1       1.521   8.965  19.477  0.00  0.00    +0.000 A 
ATOM     20  C   UNL     1       1.667   7.887  20.311  0.00  0.00    +0.000 A 
ATOM     21  C   UNL     1       2.125   6.667  19.854  0.00  0.00    +0.000 A 
ATOM     22  O   UNL     1       1.291   8.160  21.590  0.00  0.00    +0.000 OA
ATOM     23  C   UNL     1       0.925   9.551  21.468  0.00  0.00    +0.000 C 
ATOM     24  O   UNL     1       1.035  10.060  20.123  0.00  0.00    +0.000 OA
ENDBRANCH   5  16
TORSDOF 2
ENDMDL
MODEL 2
REMARK VINA RESULT:      -9.0      1.300      2.454
REMARK  Name = 
REMARK  3 active torsions:
REMARK  status: ('A' for Active; 'I' for Inactive)
REMARK    1  A    between atoms: C_1  and  C_2
REMARK    2  A    between atoms: C_4  and  N_5
REMARK    3  A    between atoms: C_9  and  C_10
REMARK                            x       y       z     vdW  Elec       q    Type
REMARK                         _______ _______ _______ _____ _____    ______ ____
ROOT
ATOM      1  N   UNL     1       3.848   3.822  18.577  0.00  0.00    +0.000 N 
ATOM      2  C   UNL     1       3.863   2.853  19.676  0.00  0.00    +0.000 C 
ATOM      3  C   UNL     1       2.473   2.244  19.643  0.00  0.00    +0.000 C 
ATOM      4  C   UNL     1       1.583   3.415  19.271  0.00  0.00    +0.000 C 
ATOM      5  C   UNL     1       2.463   4.313  18.374  0.00  0.00    +0.000 C 
ENDROOT
BRANCH   1   9
ATOM      6  C   UNL     1       6.274   3.904  14.225  0.00  0.00    +0.000 C 
ATOM      7  C   UNL     1       6.235   4.250  15.693  0.00  0.00    +0.000 A 
ATOM      8  C   UNL     1       5.005   3.879  16.455  0.00  0.00    +0.000 A 
ATOM      9  C   UNL     1       4.970   4.142  17.778  0.00  0.00    +0.000 A 
ATOM     10  N   UNL     1       6.123   4.776  18.332  0.00  0.00    +0.000 N 
ATOM     11  N   UNL     1       6.376   5.196  19.607  0.00  0.00    +0.000 NA
ATOM     12  C   UNL     1       7.592   5.723  19.502  0.00  0.00    +0.000 A 
ATOM     13  N   UNL     1       8.145   5.707  18.265  0.00  0.00    +0.000 NA
ATOM     14  C   UNL     1       7.230   5.115  17.528  0.00  0.00    +0.000 A 
ATOM     15  N   UNL     1       7.277   4.838  16.195  0.00  0.00    +0.000 NA
ENDBRANCH   1   9
BRANCH   5  16
ATOM     16  C   UNL     1       2.289   5.767  18.788  0.00  0.00    +0.000 A 
ATOM     17  C   UNL     1       2.423   6.792  17.819  0.00  0.00    +0.000 A 
ATOM     18  C   UNL     1       2.163   8.132  18.133  0.00  0.00    +0.000 A 
ATOM     19  C   UNL     1       1.770   8.424  19.421  0.00  0.00    +0.000 A 
ATOM     20  C   UNL     1       1.644   7.447  20.374  0.00  0.00    +0.000 A 
ATOM     21  C   UNL     1       1.891   6.117  20.093  0.00  0.00    +0.000 A 
ATOM     22  O   UNL     1       1.234   7.937  21.575  0.00  0.00    +0.000 OA
ATOM     23  C   UNL     1       1.152   9.346  21.274  0.00  0.00    +0.000 C 
ATOM     24  O   UNL     1       1.457   9.660  19.899  0.00  0.00    +0.000 OA
ENDBRANCH   5  16
TORSDOF 2
ENDMDL
MODEL 3
REMARK VINA RESULT:      -8.9      0.753      1.502
REMARK  Name = 
REMARK  3 active torsions:
REMARK  status: ('A' for Active; 'I' for Inactive)
REMARK    1  A    between atoms: C_1  and  C_2
REMARK    2  A    between atoms: C_4  and  N_5
REMARK    3  A    between atoms: C_9  and  C_10
REMARK                            x       y       z     vdW  Elec       q    Type
REMARK                         _______ _______ _______ _____ _____    ______ ____
ROOT
ATOM      1  N   UNL     1       4.446   4.580  18.264  0.00  0.00    +0.000 N 
ATOM      2  C   UNL     1       4.588   3.520  19.265  0.00  0.00    +0.000 C 
ATOM      3  C   UNL     1       3.387   2.626  19.020  0.00  0.00    +0.000 C 
ATOM      4  C   UNL     1       2.286   3.604  18.657  0.00  0.00    +0.000 C 
ATOM      5  C   UNL     1       3.009   4.771  17.951  0.00  0.00    +0.000 C 
ENDROOT
BRANCH   1   9
ATOM      6  C   UNL     1       8.063   8.007  18.141  0.00  0.00    +0.000 C 
ATOM      7  C   UNL     1       7.341   6.860  17.476  0.00  0.00    +0.000 A 
ATOM      8  C   UNL     1       6.213   6.230  18.226  0.00  0.00    +0.000 A 
ATOM      9  C   UNL     1       5.530   5.231  17.629  0.00  0.00    +0.000 A 
ATOM     10  N   UNL     1       5.965   4.853  16.323  0.00  0.00    +0.000 N 
ATOM     11  N   UNL     1       5.510   3.874  15.487  0.00  0.00    +0.000 NA
ATOM     12  C   UNL     1       6.317   3.991  14.437  0.00  0.00    +0.000 A 
ATOM     13  N   UNL     1       7.275   4.944  14.525  0.00  0.00    +0.000 NA
ATOM     14  C   UNL     1       7.060   5.488  15.704  0.00  0.00    +0.000 A 
ATOM     15  N   UNL     1       7.745   6.506  16.295  0.00  0.00    +0.000 NA
ENDBRANCH   1   9
BRANCH   5  16
ATOM     16  C   UNL     1       2.465   6.094  18.472  0.00  0.00    +0.000 A 
ATOM     17  C   UNL     1       2.147   6.227  19.846  0.00  0.00    +0.000 A 
ATOM     18  C   UNL     1       1.750   7.457  20.387  0.00  0.00    +0.000 A 
ATOM     19  C   UNL     1       1.679   8.539  19.536  0.00  0.00    +0.000 A 
ATOM     20  C   UNL     1       1.975   8.427  18.202  0.00  0.00    +0.000 A 
ATOM     21  C   UNL     1       2.371   7.228  17.641  0.00  0.00    +0.000 A 
ATOM     22  O   UNL     1       1.856   9.608  17.538  0.00  0.00    +0.000 OA
ATOM     23  C   UNL     1       1.416  10.472  18.608  0.00  0.00    +0.000 C 
ATOM     24  O   UNL     1       1.334   9.809  19.886  0.00  0.00    +0.000 OA
ENDBRANCH   5  16
TORSDOF 2
ENDMDL
MODEL 4
REMARK VINA RESULT:      -8.8      1.510      2.899
REMARK  Name = 
REMARK  3 active torsions:
REMARK  status: ('A' for Active; 'I' for Inactive)
REMARK    1  A    between atoms: C_1  and  C_2
REMARK    2  A    between atoms: C_4  and  N_5
REMARK    3  A    between atoms: C_9  and  C_10
REMARK                            x       y       z     vdW  Elec       q    Type
REMARK                         _______ _______ _______ _____ _____    ______ ____
ROOT
ATOM      1  N   UNL     1       3.967   3.706  18.586  0.00  0.00    +0.000 N 
ATOM      2  C   UNL     1       4.077   2.800  19.732  0.00  0.00    +0.000 C 
ATOM      3  C   UNL     1       2.752   2.060  19.738  0.00  0.00    +0.000 C 
ATOM      4  C   UNL     1       1.753   3.119  19.313  0.00  0.00    +0.000 C 
ATOM      5  C   UNL     1       2.541   4.051  18.366  0.00  0.00    +0.000 C 
ENDROOT
BRANCH   1   9
ATOM      6  C   UNL     1       6.286   3.952  14.182  0.00  0.00    +0.000 C 
ATOM      7  C   UNL     1       6.263   4.284  15.654  0.00  0.00    +0.000 A 
ATOM      8  C   UNL     1       5.071   3.841  16.439  0.00  0.00    +0.000 A 
ATOM      9  C   UNL     1       5.052   4.092  17.765  0.00  0.00    +0.000 A 
ATOM     10  N   UNL     1       6.183   4.782  18.300  0.00  0.00    +0.000 N 
ATOM     11  N   UNL     1       6.442   5.204  19.572  0.00  0.00    +0.000 NA
ATOM     12  C   UNL     1       7.625   5.797  19.445  0.00  0.00    +0.000 A 
ATOM     13  N   UNL     1       8.150   5.820  18.196  0.00  0.00    +0.000 NA
ATOM     14  C   UNL     1       7.251   5.186  17.474  0.00  0.00    +0.000 A 
ATOM     15  N   UNL     1       7.283   4.923  16.138  0.00  0.00    +0.000 NA
ENDBRANCH   1   9
BRANCH   5  16
ATOM     16  C   UNL     1       2.229   5.501  18.707  0.00  0.00    +0.000 A 
ATOM     17  C   UNL     1       1.970   5.864  20.052  0.00  0.00    +0.000 A 
ATOM     18  C   UNL     1       1.787   7.202  20.424  0.00  0.00    +0.000 A 
ATOM     19  C   UNL     1       1.868   8.160  19.436  0.00  0.00    +0.000 A 
ATOM     20  C   UNL     1       2.109   7.826  18.128  0.00  0.00    +0.000 A 
ATOM     21  C   UNL     1       2.296   6.516  17.732  0.00  0.00    +0.000 A 
ATOM     22  O   UNL     1       2.165   8.913  17.312  0.00  0.00    +0.000 OA
ATOM     23  C   UNL     1       1.894   9.970  18.257  0.00  0.00    +0.000 C 
ATOM     24  O   UNL     1       1.739   9.504  19.613  0.00  0.00    +0.000 OA
ENDBRANCH   5  16
TORSDOF 2
ENDMDL
MODEL 5
REMARK VINA RESULT:      -8.5      1.009      1.031
REMARK  Name = 
REMARK  3 active torsions:
REMARK  status: ('A' for Active; 'I' for Inactive)
REMARK    1  A    between atoms: C_1  and  C_2
REMARK    2  A    between atoms: C_4  and  N_5
REMARK    3  A    between atoms: C_9  and  C_10
REMARK                            x       y       z     vdW  Elec       q    Type
REMARK                         _______ _______ _______ _____ _____    ______ ____
ROOT
ATOM      1  N   UNL     1       3.750   4.282  18.306  0.00  0.00    +0.000 N 
ATOM      2  C   UNL     1       3.315   3.101  19.055  0.00  0.00    +0.000 C 
ATOM      3  C   UNL     1       2.015   2.701  18.382  0.00  0.00    +0.000 C 
ATOM      4  C   UNL     1       1.376   4.031  18.031  0.00  0.00    +0.000 C 
ATOM      5  C   UNL     1       2.562   4.983  17.760  0.00  0.00    +0.000 C 
ENDROOT
BRANCH   1   9
ATOM      6  C   UNL     1       8.225   5.884  19.804  0.00  0.00    +0.000 C 
ATOM      7  C   UNL     1       7.335   5.377  18.696  0.00  0.00    +0.000 A 
ATOM      8  C   UNL     1       5.924   5.037  19.049  0.00  0.00    +0.000 A 
ATOM      9  C   UNL     1       5.101   4.622  18.063  0.00  0.00    +0.000 A 
ATOM     10  N   UNL     1       5.669   4.531  16.756  0.00  0.00    +0.000 N 
ATOM     11  N   UNL     1       5.116   4.120  15.577  0.00  0.00    +0.000 NA
ATOM     12  C   UNL     1       6.130   4.234  14.726  0.00  0.00    +0.000 A 
ATOM     13  N   UNL     1       7.305   4.660  15.251  0.00  0.00    +0.000 NA
ATOM     14  C   UNL     1       7.022   4.848  16.522  0.00  0.00    +0.000 A 
ATOM     15  N   UNL     1       7.853   5.281  17.511  0.00  0.00    +0.000 NA
ENDBRANCH   1   9
BRANCH   5  16
ATOM     16  C   UNL     1       2.304   6.320  18.441  0.00  0.00    +0.000 A 
ATOM     17  C   UNL     1       2.265   7.504  17.665  0.00  0.00    +0.000 A 
ATOM     18  C   UNL     1       1.923   8.738  18.234  0.00  0.00    +0.000 A 
ATOM     19  C   UNL     1       1.622   8.763  19.579  0.00  0.00    +0.000 A 
ATOM     20  C   UNL     1       1.664   7.628  20.347  0.00  0.00    +0.000 A 
ATOM     21  C   UNL     1       1.996   6.398  19.814  0.00  0.00    +0.000 A 
ATOM     22  O   UNL     1       1.323   7.861  21.643  0.00  0.00    +0.000 OA
ATOM     23  C   UNL     1       1.096   9.286  21.607  0.00  0.00    +0.000 C 
ATOM     24  O   UNL     1       1.251   9.861  20.293  0.00  0.00    +0.000 OA
ENDBRANCH   5  16
TORSDOF 2
ENDMDL
MODEL 6
REMARK VINA RESULT:      -8.4      1.136      1.719
REMARK  Name = 
REMARK  3 active torsions:
REMARK  status: ('A' for Active; 'I' for Inactive)
REMARK    1  A    between atoms: C_1  and  C_2
REMARK    2  A    between atoms: C_4  and  N_5
REMARK    3  A    between atoms: C_9  and  C_10
REMARK                            x       y       z     vdW  Elec       q    Type
REMARK                         _______ _______ _______ _____ _____    ______ ____
ROOT
ATOM      1  N   UNL     1       4.022   3.788  17.977  0.00  0.00    +0.000 N 
ATOM      2  C   UNL     1       3.893   2.434  18.522  0.00  0.00    +0.000 C 
ATOM      3  C   UNL     1       2.629   1.899  17.874  0.00  0.00    +0.000 C 
ATOM      4  C   UNL     1       1.720   3.113  17.818  0.00  0.00    +0.000 C 
ATOM      5  C   UNL     1       2.674   4.315  17.650  0.00  0.00    +0.000 C 
ENDROOT
BRANCH   1   9
ATOM      6  C   UNL     1       8.095   6.268  19.422  0.00  0.00    +0.000 C 
ATOM      7  C   UNL     1       7.292   5.629  18.315  0.00  0.00    +0.000 A 
ATOM      8  C   UNL     1       6.006   4.969  18.693  0.00  0.00    +0.000 A 
ATOM      9  C   UNL     1       5.254   4.429  17.711  0.00  0.00    +0.000 A 
ATOM     10  N   UNL     1       5.772   4.527  16.384  0.00  0.00    +0.000 N 
ATOM     11  N   UNL     1       5.274   4.059  15.202  0.00  0.00    +0.000 NA
ATOM     12  C   UNL     1       6.202   4.435  14.328  0.00  0.00    +0.000 A 
ATOM     13  N   UNL     1       7.275   5.085  14.839  0.00  0.00    +0.000 NA
ATOM     14  C   UNL     1       7.012   5.146  16.126  0.00  0.00    +0.000 A 
ATOM     15  N   UNL     1       7.768   5.705  17.112  0.00  0.00    +0.000 NA
ENDBRANCH   1   9
BRANCH   5  16
ATOM     16  C   UNL     1       2.242   5.439  18.581  0.00  0.00    +0.000 A 
ATOM     17  C   UNL     1       2.017   5.164  19.953  0.00  0.00    +0.000 A 
ATOM     18  C   UNL     1       1.727   6.188  20.864  0.00  0.00    +0.000 A 
ATOM     19  C   UNL     1       1.667   7.478  20.382  0.00  0.00    +0.000 A 
ATOM     20  C   UNL     1       1.873   7.762  19.057  0.00  0.00    +0.000 A 
ATOM     21  C   UNL     1       2.164   6.774  18.136  0.00  0.00    +0.000 A 
ATOM     22  O   UNL     1       1.784   9.092  18.786  0.00  0.00    +0.000 OA
ATOM     23  C   UNL     1       1.462   9.608  20.094  0.00  0.00    +0.000 C 
ATOM     24  O   UNL     1       1.419   8.595  21.120  0.00  0.00    +0.000 OA
ENDBRANCH   5  16
TORSDOF 2
ENDMDL
MODEL 7
REMARK VINA RESULT:      -7.4      3.482      6.097
REMARK  Name = 
REMARK  3 active torsions:
REMARK  status: ('A' for Active; 'I' for Inactive)
REMARK    1  A    between atoms: C_1  and  C_2
REMARK    2  A    between atoms: C_4  and  N_5
REMARK    3  A    between atoms: C_9  and  C_10
REMARK                            x       y       z     vdW  Elec       q    Type
REMARK                         _______ _______ _______ _____ _____    ______ ____
ROOT
ATOM      1  N   UNL     1       2.247   4.913  19.862  0.00  0.00    +0.000 N 
ATOM      2  C   UNL     1       1.279   3.860  19.545  0.00  0.00    +0.000 C 
ATOM      3  C   UNL     1       1.793   2.652  20.306  0.00  0.00    +0.000 C 
ATOM      4  C   UNL     1       3.301   2.779  20.193  0.00  0.00    +0.000 C 
ATOM      5  C   UNL     1       3.568   4.299  20.138  0.00  0.00    +0.000 C 
ENDROOT
BRANCH   1   9
ATOM      6  C   UNL     1       0.296   8.770  22.341  0.00  0.00    +0.000 C 
ATOM      7  C   UNL     1       1.015   8.243  21.124  0.00  0.00    +0.000 A 
ATOM      8  C   UNL     1       1.319   6.781  21.085  0.00  0.00    +0.000 A 
ATOM      9  C   UNL     1       1.924   6.284  19.985  0.00  0.00    +0.000 A 
ATOM     10  N   UNL     1       2.236   7.219  18.952  0.00  0.00    +0.000 N 
ATOM     11  N   UNL     1       2.866   7.038  17.754  0.00  0.00    +0.000 NA
ATOM     12  C   UNL     1       2.883   8.267  17.247  0.00  0.00    +0.000 A 
ATOM     13  N   UNL     1       2.341   9.239  18.020  0.00  0.00    +0.000 NA
ATOM     14  C   UNL     1       1.934   8.590  19.089  0.00  0.00    +0.000 A 
ATOM     15  N   UNL     1       1.311   9.094  20.191  0.00  0.00    +0.000 NA
ENDBRANCH   1   9
BRANCH   5  16
ATOM     16  C   UNL     1       4.592   4.594  19.052  0.00  0.00    +0.000 A 
ATOM     17  C   UNL     1       5.751   5.346  19.367  0.00  0.00    +0.000 A 
ATOM     18  C   UNL     1       6.769   5.546  18.426  0.00  0.00    +0.000 A 
ATOM     19  C   UNL     1       6.608   4.985  17.177  0.00  0.00    +0.000 A 
ATOM     20  C   UNL     1       5.490   4.262  16.852  0.00  0.00    +0.000 A 
ATOM     21  C   UNL     1       4.471   4.046  17.759  0.00  0.00    +0.000 A 
ATOM     22  O   UNL     1       5.528   3.783  15.579  0.00  0.00    +0.000 OA
ATOM     23  C   UNL     1       6.789   4.321  15.130  0.00  0.00    +0.000 C 
ATOM     24  O   UNL     1       7.498   5.056  16.149  0.00  0.00    +0.000 OA
ENDBRANCH   5  16
TORSDOF 2
ENDMDL
MODEL 8
REMARK VINA RESULT:      -7.3      2.816      6.059
REMARK  Name = 
REMARK  3 active torsions:
REMARK  status: ('A' for Active; 'I' for Inactive)
REMARK    1  A    between atoms: C_1  and  C_2
REMARK    2  A    between atoms: C_4  and  N_5
REMARK    3  A    between atoms: C_9  and  C_10
REMARK                            x       y       z     vdW  Elec       q    Type
REMARK                         _______ _______ _______ _____ _____    ______ ____
ROOT
ATOM      1  N   UNL     1       4.979   4.519  16.242  0.00  0.00    +0.000 N 
ATOM      2  C   UNL     1       4.800   4.752  14.807  0.00  0.00    +0.000 C 
ATOM      3  C   UNL     1       5.970   4.024  14.172  0.00  0.00    +0.000 C 
ATOM      4  C   UNL     1       7.104   4.255  15.152  0.00  0.00    +0.000 C 
ATOM      5  C   UNL     1       6.422   4.341  16.535  0.00  0.00    +0.000 C 
ENDROOT
BRANCH   1   9
ATOM      6  C   UNL     1       1.695   1.776  18.797  0.00  0.00    +0.000 C 
ATOM      7  C   UNL     1       2.286   3.128  18.481  0.00  0.00    +0.000 A 
ATOM      8  C   UNL     1       3.407   3.175  17.495  0.00  0.00    +0.000 A 
ATOM      9  C   UNL     1       3.919   4.381  17.168  0.00  0.00    +0.000 A 
ATOM     10  N   UNL     1       3.342   5.515  17.816  0.00  0.00    +0.000 N 
ATOM     11  N   UNL     1       3.657   6.841  17.726  0.00  0.00    +0.000 NA
ATOM     12  C   UNL     1       2.797   7.400  18.572  0.00  0.00    +0.000 A 
ATOM     13  N   UNL     1       1.966   6.553  19.225  0.00  0.00    +0.000 NA
ATOM     14  C   UNL     1       2.302   5.371  18.756  0.00  0.00    +0.000 A 
ATOM     15  N   UNL     1       1.772   4.158  19.079  0.00  0.00    +0.000 NA
ENDBRANCH   1   9
BRANCH   5  16
ATOM     16  C   UNL     1       7.010   5.506  17.318  0.00  0.00    +0.000 A 
ATOM     17  C   UNL     1       7.656   5.263  18.555  0.00  0.00    +0.000 A 
ATOM     18  C   UNL     1       8.306   6.289  19.253  0.00  0.00    +0.000 A 
ATOM     19  C   UNL     1       8.298   7.550  18.695  0.00  0.00    +0.000 A 
ATOM     20  C   UNL     1       7.671   7.805  17.502  0.00  0.00    +0.000 A 
ATOM     21  C   UNL     1       7.024   6.813  16.791  0.00  0.00    +0.000 A 
ATOM     22  O   UNL     1       7.788   9.104  17.117  0.00  0.00    +0.000 OA
ATOM     23  C   UNL     1       8.535   9.645  18.228  0.00  0.00    +0.000 C 
ATOM     24  O   UNL     1       8.892   8.658  19.217  0.00  0.00    +0.000 OA
ENDBRANCH   5  16
TORSDOF 2
ENDMDL
MODEL 9
REMARK VINA RESULT:      -7.2      3.263      5.929
REMARK  Name = 
REMARK  3 active torsions:
REMARK  status: ('A' for Active; 'I' for Inactive)
REMARK    1  A    between atoms: C_1  and  C_2
REMARK    2  A    between atoms: C_4  and  N_5
REMARK    3  A    between atoms: C_9  and  C_10
REMARK                            x       y       z     vdW  Elec       q    Type
REMARK                         _______ _______ _______ _____ _____    ______ ____
ROOT
ATOM      1  N   UNL     1       1.863   5.033  20.357  0.00  0.00    +0.000 N 
ATOM      2  C   UNL     1       0.790   4.041  20.252  0.00  0.00    +0.000 C 
ATOM      3  C   UNL     1       1.280   2.883  21.100  0.00  0.00    +0.000 C 
ATOM      4  C   UNL     1       2.775   2.863  20.841  0.00  0.00    +0.000 C 
ATOM      5  C   UNL     1       3.153   4.338  20.586  0.00  0.00    +0.000 C 
ENDROOT
BRANCH   1   9
ATOM      6  C   UNL     1       0.385   9.282  22.501  0.00  0.00    +0.000 C 
ATOM      7  C   UNL     1       0.985   8.570  21.313  0.00  0.00    +0.000 A 
ATOM      8  C   UNL     1       1.166   7.091  21.417  0.00  0.00    +0.000 A 
ATOM      9  C   UNL     1       1.662   6.433  20.348  0.00  0.00    +0.000 A 
ATOM     10  N   UNL     1       1.986   7.225  19.206  0.00  0.00    +0.000 N 
ATOM     11  N   UNL     1       2.527   6.867  18.004  0.00  0.00    +0.000 NA
ATOM     12  C   UNL     1       2.615   8.030  17.367  0.00  0.00    +0.000 A 
ATOM     13  N   UNL     1       2.201   9.121  18.057  0.00  0.00    +0.000 NA
ATOM     14  C   UNL     1       1.807   8.623  19.209  0.00  0.00    +0.000 A 
ATOM     15  N   UNL     1       1.293   9.291  20.280  0.00  0.00    +0.000 NA
ENDBRANCH   1   9
BRANCH   5  16
ATOM     16  C   UNL     1       4.086   4.422  19.386  0.00  0.00    +0.000 A 
ATOM     17  C   UNL     1       3.813   3.648  18.231  0.00  0.00    +0.000 A 
ATOM     18  C   UNL     1       4.581   3.778  17.067  0.00  0.00    +0.000 A 
ATOM     19  C   UNL     1       5.616   4.689  17.080  0.00  0.00    +0.000 A 
ATOM     20  C   UNL     1       5.901   5.440  18.191  0.00  0.00    +0.000 A 
ATOM     21  C   UNL     1       5.159   5.335  19.352  0.00  0.00    +0.000 A 
ATOM     22  O   UNL     1       6.948   6.286  17.997  0.00  0.00    +0.000 OA
ATOM     23  C   UNL     1       7.313   5.951  16.641  0.00  0.00    +0.000 C 
ATOM     24  O   UNL     1       6.451   4.964  16.040  0.00  0.00    +0.000 OA
ENDBRANCH   5  16
TORSDOF 2
ENDMDL
