MODEL 1
REMARK VINA RESULT:      -8.6      0.000      0.000
REMARK  Name = 
REMARK  4 active torsions:
REMARK  status: ('A' for Active; 'I' for Inactive)
REMARK    1  A    between atoms: C_1  and  C_2
REMARK    2  A    between atoms: C_2  and  C_3
REMARK    3  A    between atoms: C_8  and  C_9
REMARK    4  A    between atoms: C_13  and  C_15
REMARK                            x       y       z     vdW  Elec       q    Type
REMARK                         _______ _______ _______ _____ _____    ______ ____
ROOT
ATOM      1  C   UNL     1      -0.053  12.394  19.361  0.00  0.00    +0.000 C 
ATOM      2  C   UNL     1       0.754  11.404  18.526  0.00  0.00    +0.000 C 
ATOM      3  C   UNL     1       0.733  10.003  19.106  0.00  0.00    +0.000 C 
ATOM      4  N   UNL     1       1.044   9.920  20.535  0.00  0.00    +0.000 N 
ATOM      5  C   UNL     1       1.503   8.742  21.159  0.00  0.00    +0.000 C 
ATOM      6  O   UNL     1       1.734   8.681  22.370  0.00  0.00    +0.000 OA
ATOM      7  C   UNL     1       0.480  10.951  21.413  0.00  0.00    +0.000 C 
ATOM      8  C   UNL     1       0.464  12.353  20.805  0.00  0.00    +0.000 C 
ENDROOT
BRANCH   1  14
ATOM      9  C   UNL     1      -4.655  11.475  17.470  0.00  0.00    +0.000 A 
ATOM     10  C   UNL     1      -4.228  10.915  16.254  0.00  0.00    +0.000 A 
ATOM     11  C   UNL     1      -2.878  10.713  15.979  0.00  0.00    +0.000 A 
ATOM     12  C   UNL     1      -1.895  11.097  16.899  0.00  0.00    +0.000 A 
ATOM     13  C   UNL     1      -2.278  11.673  18.128  0.00  0.00    +0.000 A 
ATOM     14  C   UNL     1      -1.557  12.225  19.249  0.00  0.00    +0.000 A 
ATOM     15  C   UNL     1      -2.520  12.595  20.170  0.00  0.00    +0.000 A 
ATOM     16  N   UNL     1      -3.755  12.344  19.649  0.00  0.00    +0.000 N 
ATOM     17  C   UNL     1      -3.643  11.815  18.387  0.00  0.00    +0.000 A 
ATOM     18  H   UNL     1      -4.632  12.531  20.114  0.00  0.00    +0.000 HD
BRANCH   9  20
ATOM     19  C   UNL     1      -6.751  10.662  18.555  0.00  0.00    +0.000 C 
ATOM     20  C   UNL     1      -6.118  11.757  17.707  0.00  0.00    +0.000 C 
ENDBRANCH   9  20
ENDBRANCH   1  14
BRANCH   5  21
ATOM     21  C   UNL     1       1.744   7.510  20.373  0.00  0.00    +0.000 A 
ATOM     22  C   UNL     1       2.307   7.537  19.109  0.00  0.00    +0.000 A 
ATOM     23  N   UNL     1       2.595   6.439  18.370  0.00  0.00    +0.000 NA
ATOM     24  C   UNL     1       2.206   5.246  18.853  0.00  0.00    +0.000 A 
ATOM     25  C   UNL     1       2.434   4.077  18.149  0.00  0.00    +0.000 A 
ATOM     26  N   UNL     1       2.008   2.841  18.509  0.00  0.00    +0.000 NA
ATOM     27  C   UNL     1       1.316   2.764  19.663  0.00  0.00    +0.000 A 
ATOM     28  C   UNL     1       1.066   3.850  20.486  0.00  0.00    +0.000 A 
ATOM     29  C   UNL     1       1.526   5.115  20.081  0.00  0.00    +0.000 A 
ATOM     30  C   UNL     1       1.315   6.271  20.853  0.00  0.00    +0.000 A 
ENDBRANCH   5  21
TORSDOF 3
ENDMDL
MODEL 2
REMARK VINA RESULT:      -8.4      1.000      1.824
REMARK  Name = 
REMARK  4 active torsions:
REMARK  status: ('A' for Active; 'I' for Inactive)
REMARK    1  A    between atoms: C_1  and  C_2
REMARK    2  A    between atoms: C_2  and  C_3
REMARK    3  A    between atoms: C_8  and  C_9
REMARK    4  A    between atoms: C_13  and  C_15
REMARK                            x       y       z     vdW  Elec       q    Type
REMARK                         _______ _______ _______ _____ _____    ______ ____
ROOT
ATOM      1  C   UNL     1      -0.171  11.991  18.833  0.00  0.00    +0.000 C 
ATOM      2  C   UNL     1       0.842  11.030  18.218  0.00  0.00    +0.000 C 
ATOM      3  C   UNL     1       0.797   9.654  18.854  0.00  0.00    +0.000 C 
ATOM      4  N   UNL     1       0.831   9.648  20.319  0.00  0.00    +0.000 N 
ATOM      5  C   UNL     1       1.234   8.530  21.078  0.00  0.00    +0.000 C 
ATOM      6  O   UNL     1       1.230   8.531  22.312  0.00  0.00    +0.000 OA
ATOM      7  C   UNL     1       0.045  10.669  21.020  0.00  0.00    +0.000 C 
ATOM      8  C   UNL     1       0.059  12.042  20.349  0.00  0.00    +0.000 C 
ENDROOT
BRANCH   1  14
ATOM      9  C   UNL     1      -5.218  11.673  19.011  0.00  0.00    +0.000 A 
ATOM     10  C   UNL     1      -5.394  12.454  20.166  0.00  0.00    +0.000 A 
ATOM     11  C   UNL     1      -4.320  13.078  20.796  0.00  0.00    +0.000 A 
ATOM     12  C   UNL     1      -3.016  12.915  20.313  0.00  0.00    +0.000 A 
ATOM     13  C   UNL     1      -2.791  12.132  19.162  0.00  0.00    +0.000 A 
ATOM     14  C   UNL     1      -1.612  11.711  18.445  0.00  0.00    +0.000 A 
ATOM     15  C   UNL     1      -2.070  10.980  17.365  0.00  0.00    +0.000 A 
ATOM     16  N   UNL     1      -3.430  10.900  17.424  0.00  0.00    +0.000 N 
ATOM     17  C   UNL     1      -3.900  11.561  18.532  0.00  0.00    +0.000 A 
ATOM     18  H   UNL     1      -4.014  10.413  16.760  0.00  0.00    +0.000 HD
BRANCH   9  20
ATOM     19  C   UNL     1      -6.838   9.793  19.290  0.00  0.00    +0.000 C 
ATOM     20  C   UNL     1      -6.387  10.943  18.398  0.00  0.00    +0.000 C 
ENDBRANCH   9  20
ENDBRANCH   1  14
BRANCH   5  21
ATOM     21  C   UNL     1       1.699   7.290  20.416  0.00  0.00    +0.000 A 
ATOM     22  C   UNL     1       2.517   7.308  19.300  0.00  0.00    +0.000 A 
ATOM     23  N   UNL     1       3.011   6.205  18.688  0.00  0.00    +0.000 NA
ATOM     24  C   UNL     1       2.588   5.009  19.130  0.00  0.00    +0.000 A 
ATOM     25  C   UNL     1       3.020   3.833  18.541  0.00  0.00    +0.000 A 
ATOM     26  N   UNL     1       2.589   2.586  18.857  0.00  0.00    +0.000 NA
ATOM     27  C   UNL     1       1.670   2.507  19.840  0.00  0.00    +0.000 A 
ATOM     28  C   UNL     1       1.196   3.602  20.542  0.00  0.00    +0.000 A 
ATOM     29  C   UNL     1       1.668   4.877  20.189  0.00  0.00    +0.000 A 
ATOM     30  C   UNL     1       1.239   6.044  20.848  0.00  0.00    +0.000 A 
ENDBRANCH   5  21
TORSDOF 3
ENDMDL
MODEL 3
REMARK VINA RESULT:      -8.4      2.116      3.105
REMARK  Name = 
REMARK  4 active torsions:
REMARK  status: ('A' for Active; 'I' for Inactive)
REMARK    1  A    between atoms: C_1  and  C_2
REMARK    2  A    between atoms: C_2  and  C_3
REMARK    3  A    between atoms: C_8  and  C_9
REMARK    4  A    between atoms: C_13  and  C_15
REMARK                            x       y       z     vdW  Elec       q    Type
REMARK                         _______ _______ _______ _____ _____    ______ ____
ROOT
ATOM      1  C   UNL     1       0.656  10.981  19.385  0.00  0.00    +0.000 C 
ATOM      2  C   UNL     1       1.812  10.415  18.568  0.00  0.00    +0.000 C 
ATOM      3  C   UNL     1       1.808   8.898  18.530  0.00  0.00    +0.000 C 
ATOM      4  N   UNL     1       1.667   8.247  19.834  0.00  0.00    +0.000 N 
ATOM      5  C   UNL     1       2.069   6.918  20.082  0.00  0.00    +0.000 C 
ATOM      6  O   UNL     1       1.917   6.374  21.179  0.00  0.00    +0.000 OA
ATOM      7  C   UNL     1       0.719   8.835  20.787  0.00  0.00    +0.000 C 
ATOM      8  C   UNL     1       0.697  10.363  20.788  0.00  0.00    +0.000 C 
ENDROOT
BRANCH   1  14
ATOM      9  C   UNL     1      -4.295  11.440  18.447  0.00  0.00    +0.000 A 
ATOM     10  C   UNL     1      -4.568  12.386  19.449  0.00  0.00    +0.000 A 
ATOM     11  C   UNL     1      -3.557  12.923  20.241  0.00  0.00    +0.000 A 
ATOM     12  C   UNL     1      -2.230  12.507  20.085  0.00  0.00    +0.000 A 
ATOM     13  C   UNL     1      -1.910  11.551  19.097  0.00  0.00    +0.000 A 
ATOM     14  C   UNL     1      -0.700  10.869  18.711  0.00  0.00    +0.000 A 
ATOM     15  C   UNL     1      -1.044  10.075  17.632  0.00  0.00    +0.000 A 
ATOM     16  N   UNL     1      -2.379  10.206  17.390  0.00  0.00    +0.000 N 
ATOM     17  C   UNL     1      -2.946  11.072  18.292  0.00  0.00    +0.000 A 
ATOM     18  H   UNL     1      -2.888   9.726  16.662  0.00  0.00    +0.000 HD
BRANCH   9  20
ATOM     19  C   UNL     1      -6.684  10.715  18.505  0.00  0.00    +0.000 C 
ATOM     20  C   UNL     1      -5.421  10.816  17.660  0.00  0.00    +0.000 C 
ENDBRANCH   9  20
ENDBRANCH   1  14
BRANCH   5  21
ATOM     21  C   UNL     1       2.712   6.109  19.022  0.00  0.00    +0.000 A 
ATOM     22  C   UNL     1       2.100   5.001  18.463  0.00  0.00    +0.000 A 
ATOM     23  N   UNL     1       2.621   4.258  17.457  0.00  0.00    +0.000 NA
ATOM     24  C   UNL     1       3.867   4.553  17.049  0.00  0.00    +0.000 A 
ATOM     25  C   UNL     1       4.487   3.825  16.048  0.00  0.00    +0.000 A 
ATOM     26  N   UNL     1       5.765   3.988  15.627  0.00  0.00    +0.000 NA
ATOM     27  C   UNL     1       6.473   4.958  16.239  0.00  0.00    +0.000 A 
ATOM     28  C   UNL     1       5.954   5.790  17.218  0.00  0.00    +0.000 A 
ATOM     29  C   UNL     1       4.625   5.592  17.627  0.00  0.00    +0.000 A 
ATOM     30  C   UNL     1       4.018   6.389  18.614  0.00  0.00    +0.000 A 
ENDBRANCH   5  21
TORSDOF 3
ENDMDL
MODEL 4
REMARK VINA RESULT:      -8.2      0.823      1.446
REMARK  Name = 
REMARK  4 active torsions:
REMARK  status: ('A' for Active; 'I' for Inactive)
REMARK    1  A    between atoms: C_1  and  C_2
REMARK    2  A    between atoms: C_2  and  C_3
REMARK    3  A    between atoms: C_8  and  C_9
REMARK    4  A    between atoms: C_13  and  C_15
REMARK                            x       y       z     vdW  Elec       q    Type
REMARK                         _______ _______ _______ _____ _____    ______ ____
ROOT
ATOM      1  C   UNL     1      -0.034  12.295  19.063  0.00  0.00    +0.000 C 
ATOM      2  C   UNL     1       0.729  11.203  18.320  0.00  0.00    +0.000 C 
ATOM      3  C   UNL     1       0.692   9.872  19.045  0.00  0.00    +0.000 C 
ATOM      4  N   UNL     1       1.038   9.932  20.468  0.00  0.00    +0.000 N 
ATOM      5  C   UNL     1       1.486   8.815  21.202  0.00  0.00    +0.000 C 
ATOM      6  O   UNL     1       1.746   8.876  22.407  0.00  0.00    +0.000 OA
ATOM      7  C   UNL     1       0.519  11.064  21.244  0.00  0.00    +0.000 C 
ATOM      8  C   UNL     1       0.518  12.394  20.491  0.00  0.00    +0.000 C 
ENDROOT
BRANCH   1  14
ATOM      9  C   UNL     1      -4.711  11.409  17.348  0.00  0.00    +0.000 A 
ATOM     10  C   UNL     1      -4.333  10.805  16.137  0.00  0.00    +0.000 A 
ATOM     11  C   UNL     1      -2.997  10.568  15.825  0.00  0.00    +0.000 A 
ATOM     12  C   UNL     1      -1.978  10.961  16.701  0.00  0.00    +0.000 A 
ATOM     13  C   UNL     1      -2.310  11.580  17.924  0.00  0.00    +0.000 A 
ATOM     14  C   UNL     1      -1.544  12.152  19.004  0.00  0.00    +0.000 A 
ATOM     15  C   UNL     1      -2.470  12.568  19.943  0.00  0.00    +0.000 A 
ATOM     16  N   UNL     1      -3.726  12.325  19.470  0.00  0.00    +0.000 N 
ATOM     17  C   UNL     1      -3.664  11.757  18.221  0.00  0.00    +0.000 A 
ATOM     18  H   UNL     1      -4.583  12.544  19.956  0.00  0.00    +0.000 HD
BRANCH   9  20
ATOM     19  C   UNL     1      -6.780  10.681  18.540  0.00  0.00    +0.000 C 
ATOM     20  C   UNL     1      -6.159  11.726  17.622  0.00  0.00    +0.000 C 
ENDBRANCH   9  20
ENDBRANCH   1  14
BRANCH   5  21
ATOM     21  C   UNL     1       1.680   7.502  20.545  0.00  0.00    +0.000 A 
ATOM     22  C   UNL     1       1.122   6.337  21.042  0.00  0.00    +0.000 A 
ATOM     23  N   UNL     1       1.226   5.121  20.454  0.00  0.00    +0.000 NA
ATOM     24  C   UNL     1       2.016   5.021  19.371  0.00  0.00    +0.000 A 
ATOM     25  C   UNL     1       2.201   3.810  18.727  0.00  0.00    +0.000 A 
ATOM     26  N   UNL     1       3.039   3.590  17.684  0.00  0.00    +0.000 NA
ATOM     27  C   UNL     1       3.734   4.658  17.244  0.00  0.00    +0.000 A 
ATOM     28  C   UNL     1       3.600   5.933  17.768  0.00  0.00    +0.000 A 
ATOM     29  C   UNL     1       2.720   6.124  18.846  0.00  0.00    +0.000 A 
ATOM     30  C   UNL     1       2.525   7.383  19.440  0.00  0.00    +0.000 A 
ENDBRANCH   5  21
TORSDOF 3
ENDMDL
MODEL 5
REMARK VINA RESULT:      -8.1      1.424      2.444
REMARK  Name = 
REMARK  4 active torsions:
REMARK  status: ('A' for Active; 'I' for Inactive)
REMARK    1  A    between atoms: C_1  and  C_2
REMARK    2  A    between atoms: C_2  and  C_3
REMARK    3  A    between atoms: C_8  and  C_9
REMARK    4  A    between atoms: C_13  and  C_15
REMARK                            x       y       z     vdW  Elec       q    Type
REMARK                         _______ _______ _______ _____ _____    ______ ____
ROOT
ATOM      1  C   UNL     1       0.011  11.708  18.823  0.00  0.00    +0.000 C 
ATOM      2  C   UNL     1       1.036  10.797  18.155  0.00  0.00    +0.000 C 
ATOM      3  C   UNL     1       1.001   9.383  18.704  0.00  0.00    +0.000 C 
ATOM      4  N   UNL     1       1.027   9.285  20.166  0.00  0.00    +0.000 N 
ATOM      5  C   UNL     1       1.436   8.126  20.855  0.00  0.00    +0.000 C 
ATOM      6  O   UNL     1       1.425   8.050  22.087  0.00  0.00    +0.000 OA
ATOM      7  C   UNL     1       0.227  10.254  20.924  0.00  0.00    +0.000 C 
ATOM      8  C   UNL     1       0.232  11.666  20.341  0.00  0.00    +0.000 C 
ENDROOT
BRANCH   1  14
ATOM      9  C   UNL     1      -5.048  11.616  18.819  0.00  0.00    +0.000 A 
ATOM     10  C   UNL     1      -5.233  12.540  19.861  0.00  0.00    +0.000 A 
ATOM     11  C   UNL     1      -4.157  13.194  20.456  0.00  0.00    +0.000 A 
ATOM     12  C   UNL     1      -2.844  12.921  20.054  0.00  0.00    +0.000 A 
ATOM     13  C   UNL     1      -2.610  11.993  19.018  0.00  0.00    +0.000 A 
ATOM     14  C   UNL     1      -1.425  11.440  18.410  0.00  0.00    +0.000 A 
ATOM     15  C   UNL     1      -1.873  10.600  17.408  0.00  0.00    +0.000 A 
ATOM     16  N   UNL     1      -3.237  10.582  17.417  0.00  0.00    +0.000 N 
ATOM     17  C   UNL     1      -3.719  11.394  18.414  0.00  0.00    +0.000 A 
ATOM     18  H   UNL     1      -3.816  10.040  16.792  0.00  0.00    +0.000 HD
BRANCH   9  20
ATOM     19  C   UNL     1      -6.826   9.928  19.289  0.00  0.00    +0.000 C 
ATOM     20  C   UNL     1      -6.224  10.863  18.249  0.00  0.00    +0.000 C 
ENDBRANCH   9  20
ENDBRANCH   1  14
BRANCH   5  21
ATOM     21  C   UNL     1       1.916   6.933  20.120  0.00  0.00    +0.000 A 
ATOM     22  C   UNL     1       1.591   5.645  20.507  0.00  0.00    +0.000 A 
ATOM     23  N   UNL     1       1.960   4.524  19.841  0.00  0.00    +0.000 NA
ATOM     24  C   UNL     1       2.790   4.669  18.794  0.00  0.00    +0.000 A 
ATOM     25  C   UNL     1       3.240   3.574  18.077  0.00  0.00    +0.000 A 
ATOM     26  N   UNL     1       4.141   3.608  17.064  0.00  0.00    +0.000 NA
ATOM     27  C   UNL     1       4.616   4.825  16.733  0.00  0.00    +0.000 A 
ATOM     28  C   UNL     1       4.208   6.003  17.337  0.00  0.00    +0.000 A 
ATOM     29  C   UNL     1       3.272   5.928  18.381  0.00  0.00    +0.000 A 
ATOM     30  C   UNL     1       2.803   7.073  19.051  0.00  0.00    +0.000 A 
ENDBRANCH   5  21
TORSDOF 3
ENDMDL
MODEL 6
REMARK VINA RESULT:      -8.0      1.896      8.453
REMARK  Name = 
REMARK  4 active torsions:
REMARK  status: ('A' for Active; 'I' for Inactive)
REMARK    1  A    between atoms: C_1  and  C_2
REMARK    2  A    between atoms: C_2  and  C_3
REMARK    3  A    between atoms: C_8  and  C_9
REMARK    4  A    between atoms: C_13  and  C_15
REMARK                            x       y       z     vdW  Elec       q    Type
REMARK                         _______ _______ _______ _____ _____    ______ ____
ROOT
ATOM      1  C   UNL     1       1.114   8.447  21.379  0.00  0.00    +0.000 C 
ATOM      2  C   UNL     1      -0.410   8.514  21.373  0.00  0.00    +0.000 C 
ATOM      3  C   UNL     1      -0.943   9.509  20.360  0.00  0.00    +0.000 C 
ATOM      4  N   UNL     1      -0.320  10.835  20.407  0.00  0.00    +0.000 N 
ATOM      5  C   UNL     1      -0.933  11.995  19.891  0.00  0.00    +0.000 C 
ATOM      6  O   UNL     1      -0.383  13.100  19.913  0.00  0.00    +0.000 OA
ATOM      7  C   UNL     1       1.131  10.895  20.615  0.00  0.00    +0.000 C 
ATOM      8  C   UNL     1       1.666   9.861  21.604  0.00  0.00    +0.000 C 
ENDROOT
BRANCH   1  14
ATOM      9  C   UNL     1       3.201   4.903  18.433  0.00  0.00    +0.000 A 
ATOM     10  C   UNL     1       3.009   3.822  19.310  0.00  0.00    +0.000 A 
ATOM     11  C   UNL     1       2.328   3.972  20.515  0.00  0.00    +0.000 A 
ATOM     12  C   UNL     1       1.840   5.224  20.909  0.00  0.00    +0.000 A 
ATOM     13  C   UNL     1       2.019   6.339  20.065  0.00  0.00    +0.000 A 
ATOM     14  C   UNL     1       1.713   7.744  20.175  0.00  0.00    +0.000 A 
ATOM     15  C   UNL     1       2.109   8.310  18.976  0.00  0.00    +0.000 A 
ATOM     16  N   UNL     1       2.670   7.347  18.192  0.00  0.00    +0.000 N 
ATOM     17  C   UNL     1       2.666   6.138  18.843  0.00  0.00    +0.000 A 
ATOM     18  H   UNL     1       3.051   7.496  17.269  0.00  0.00    +0.000 HD
BRANCH   9  20
ATOM     19  C   UNL     1       5.493   4.575  17.498  0.00  0.00    +0.000 C 
ATOM     20  C   UNL     1       4.013   4.728  17.174  0.00  0.00    +0.000 C 
ENDBRANCH   9  20
ENDBRANCH   1  14
BRANCH   5  21
ATOM     21  C   UNL     1      -2.291  11.940  19.303  0.00  0.00    +0.000 A 
ATOM     22  C   UNL     1      -2.513  11.577  17.986  0.00  0.00    +0.000 A 
ATOM     23  N   UNL     1      -3.736  11.461  17.414  0.00  0.00    +0.000 NA
ATOM     24  C   UNL     1      -4.801  11.830  18.146  0.00  0.00    +0.000 A 
ATOM     25  C   UNL     1      -6.083  11.772  17.628  0.00  0.00    +0.000 A 
ATOM     26  N   UNL     1      -7.208  12.199  18.253  0.00  0.00    +0.000 NA
ATOM     27  C   UNL     1      -7.044  12.708  19.491  0.00  0.00    +0.000 A 
ATOM     28  C   UNL     1      -5.822  12.774  20.141  0.00  0.00    +0.000 A 
ATOM     29  C   UNL     1      -4.679  12.320  19.463  0.00  0.00    +0.000 A 
ATOM     30  C   UNL     1      -3.400  12.351  20.046  0.00  0.00    +0.000 A 
ENDBRANCH   5  21
TORSDOF 3
ENDMDL
MODEL 7
REMARK VINA RESULT:      -8.0      2.985      8.809
REMARK  Name = 
REMARK  4 active torsions:
REMARK  status: ('A' for Active; 'I' for Inactive)
REMARK    1  A    between atoms: C_1  and  C_2
REMARK    2  A    between atoms: C_2  and  C_3
REMARK    3  A    between atoms: C_8  and  C_9
REMARK    4  A    between atoms: C_13  and  C_15
REMARK                            x       y       z     vdW  Elec       q    Type
REMARK                         _______ _______ _______ _____ _____    ______ ____
ROOT
ATOM      1  C   UNL     1       1.309  10.166  18.643  0.00  0.00    +0.000 C 
ATOM      2  C   UNL     1       1.370  11.476  19.422  0.00  0.00    +0.000 C 
ATOM      3  C   UNL     1       0.141  11.696  20.284  0.00  0.00    +0.000 C 
ATOM      4  N   UNL     1      -1.139  11.508  19.596  0.00  0.00    +0.000 N 
ATOM      5  C   UNL     1      -2.350  12.069  20.050  0.00  0.00    +0.000 C 
ATOM      6  O   UNL     1      -3.425  11.878  19.475  0.00  0.00    +0.000 OA
ATOM      7  C   UNL     1      -1.246  10.385  18.657  0.00  0.00    +0.000 C 
ATOM      8  C   UNL     1       0.012  10.142  17.825  0.00  0.00    +0.000 C 
ENDROOT
BRANCH   1  14
ATOM      9  C   UNL     1       2.482   5.448  20.047  0.00  0.00    +0.000 A 
ATOM     10  C   UNL     1       3.139   5.080  18.861  0.00  0.00    +0.000 A 
ATOM     11  C   UNL     1       3.339   5.988  17.825  0.00  0.00    +0.000 A 
ATOM     12  C   UNL     1       2.856   7.298  17.919  0.00  0.00    +0.000 A 
ATOM     13  C   UNL     1       2.180   7.709  19.088  0.00  0.00    +0.000 A 
ATOM     14  C   UNL     1       1.516   8.924  19.491  0.00  0.00    +0.000 A 
ATOM     15  C   UNL     1       1.085   8.704  20.787  0.00  0.00    +0.000 A 
ATOM     16  N   UNL     1       1.405   7.430  21.153  0.00  0.00    +0.000 N 
ATOM     17  C   UNL     1       2.042   6.782  20.123  0.00  0.00    +0.000 A 
ATOM     18  H   UNL     1       1.194   7.011  22.047  0.00  0.00    +0.000 HD
BRANCH   9  20
ATOM     19  C   UNL     1       1.149   3.428  20.659  0.00  0.00    +0.000 C 
ATOM     20  C   UNL     1       2.208   4.422  21.117  0.00  0.00    +0.000 C 
ENDBRANCH   9  20
ENDBRANCH   1  14
BRANCH   5  21
ATOM     21  C   UNL     1      -2.382  12.937  21.250  0.00  0.00    +0.000 A 
ATOM     22  C   UNL     1      -2.654  12.442  22.514  0.00  0.00    +0.000 A 
ATOM     23  N   UNL     1      -2.645  13.181  23.649  0.00  0.00    +0.000 NA
ATOM     24  C   UNL     1      -2.469  14.508  23.524  0.00  0.00    +0.000 A 
ATOM     25  C   UNL     1      -2.477  15.340  24.629  0.00  0.00    +0.000 A 
ATOM     26  N   UNL     1      -2.393  16.693  24.601  0.00  0.00    +0.000 NA
ATOM     27  C   UNL     1      -2.279  17.256  23.381  0.00  0.00    +0.000 A 
ATOM     28  C   UNL     1      -2.207  16.532  22.203  0.00  0.00    +0.000 A 
ATOM     29  C   UNL     1      -2.295  15.132  22.272  0.00  0.00    +0.000 A 
ATOM     30  C   UNL     1      -2.232  14.319  21.126  0.00  0.00    +0.000 A 
ENDBRANCH   5  21
TORSDOF 3
ENDMDL
MODEL 8
REMARK VINA RESULT:      -7.9      2.714      8.489
REMARK  Name = 
REMARK  4 active torsions:
REMARK  status: ('A' for Active; 'I' for Inactive)
REMARK    1  A    between atoms: C_1  and  C_2
REMARK    2  A    between atoms: C_2  and  C_3
REMARK    3  A    between atoms: C_8  and  C_9
REMARK    4  A    between atoms: C_13  and  C_15
REMARK                            x       y       z     vdW  Elec       q    Type
REMARK                         _______ _______ _______ _____ _____    ______ ____
ROOT
ATOM      1  C   UNL     1       1.677   9.751  18.394  0.00  0.00    +0.000 C 
ATOM      2  C   UNL     1       1.688  11.109  19.088  0.00  0.00    +0.000 C 
ATOM      3  C   UNL     1       0.382  11.407  19.801  0.00  0.00    +0.000 C 
ATOM      4  N   UNL     1      -0.825  11.193  18.997  0.00  0.00    +0.000 N 
ATOM      5  C   UNL     1      -2.063  11.803  19.286  0.00  0.00    +0.000 C 
ATOM      6  O   UNL     1      -3.077  11.590  18.616  0.00  0.00    +0.000 OA
ATOM      7  C   UNL     1      -0.860  10.012  18.128  0.00  0.00    +0.000 C 
ATOM      8  C   UNL     1       0.470   9.692  17.449  0.00  0.00    +0.000 C 
ENDROOT
BRANCH   1  14
ATOM      9  C   UNL     1       2.418   5.073  20.174  0.00  0.00    +0.000 A 
ATOM     10  C   UNL     1       3.048   4.557  19.029  0.00  0.00    +0.000 A 
ATOM     11  C   UNL     1       3.334   5.360  17.929  0.00  0.00    +0.000 A 
ATOM     12  C   UNL     1       2.968   6.711  17.915  0.00  0.00    +0.000 A 
ATOM     13  C   UNL     1       2.324   7.270  19.039  0.00  0.00    +0.000 A 
ATOM     14  C   UNL     1       1.768   8.566  19.338  0.00  0.00    +0.000 A 
ATOM     15  C   UNL     1       1.310   8.487  20.641  0.00  0.00    +0.000 A 
ATOM     16  N   UNL     1       1.514   7.223  21.109  0.00  0.00    +0.000 N 
ATOM     17  C   UNL     1       2.097   6.443  20.141  0.00  0.00    +0.000 A 
ATOM     18  H   UNL     1       1.260   6.895  22.030  0.00  0.00    +0.000 HD
BRANCH   9  20
ATOM     19  C   UNL     1       1.544   2.820  20.802  0.00  0.00    +0.000 C 
ATOM     20  C   UNL     1       2.047   4.162  21.317  0.00  0.00    +0.000 C 
ENDBRANCH   9  20
ENDBRANCH   1  14
BRANCH   5  21
ATOM     21  C   UNL     1      -2.199  12.750  20.416  0.00  0.00    +0.000 A 
ATOM     22  C   UNL     1      -1.633  14.013  20.396  0.00  0.00    +0.000 A 
ATOM     23  N   UNL     1      -1.770  14.934  21.379  0.00  0.00    +0.000 NA
ATOM     24  C   UNL     1      -2.408  14.556  22.500  0.00  0.00    +0.000 A 
ATOM     25  C   UNL     1      -2.565  15.425  23.565  0.00  0.00    +0.000 A 
ATOM     26  N   UNL     1      -3.116  15.115  24.765  0.00  0.00    +0.000 NA
ATOM     27  C   UNL     1      -3.554  13.848  24.907  0.00  0.00    +0.000 A 
ATOM     28  C   UNL     1      -3.502  12.897  23.901  0.00  0.00    +0.000 A 
ATOM     29  C   UNL     1      -2.927  13.256  22.671  0.00  0.00    +0.000 A 
ATOM     30  C   UNL     1      -2.832  12.354  21.596  0.00  0.00    +0.000 A 
ENDBRANCH   5  21
TORSDOF 3
ENDMDL
MODEL 9
REMARK VINA RESULT:      -7.7      3.102      8.832
REMARK  Name = 
REMARK  4 active torsions:
REMARK  status: ('A' for Active; 'I' for Inactive)
REMARK    1  A    between atoms: C_1  and  C_2
REMARK    2  A    between atoms: C_2  and  C_3
REMARK    3  A    between atoms: C_8  and  C_9
REMARK    4  A    between atoms: C_13  and  C_15
REMARK                            x       y       z     vdW  Elec       q    Type
REMARK                         _______ _______ _______ _____ _____    ______ ____
ROOT
ATOM      1  C   UNL     1       1.605   9.266  17.872  0.00  0.00    +0.000 C 
ATOM      2  C   UNL     1       2.217  10.632  18.165  0.00  0.00    +0.000 C 
ATOM      3  C   UNL     1       1.446  11.399  19.223  0.00  0.00    +0.000 C 
ATOM      4  N   UNL     1      -0.002  11.464  19.008  0.00  0.00    +0.000 N 
ATOM      5  C   UNL     1      -0.826  12.452  19.585  0.00  0.00    +0.000 C 
ATOM      6  O   UNL     1      -2.048  12.476  19.417  0.00  0.00    +0.000 OA
ATOM      7  C   UNL     1      -0.671  10.250  18.525  0.00  0.00    +0.000 C 
ATOM      8  C   UNL     1       0.131   9.460  17.493  0.00  0.00    +0.000 C 
ENDROOT
BRANCH   1  14
ATOM      9  C   UNL     1       2.590   4.902  20.236  0.00  0.00    +0.000 A 
ATOM     10  C   UNL     1       3.073   4.209  19.113  0.00  0.00    +0.000 A 
ATOM     11  C   UNL     1       3.213   4.832  17.875  0.00  0.00    +0.000 A 
ATOM     12  C   UNL     1       2.841   6.171  17.703  0.00  0.00    +0.000 A 
ATOM     13  C   UNL     1       2.342   6.903  18.800  0.00  0.00    +0.000 A 
ATOM     14  C   UNL     1       1.821   8.237  18.967  0.00  0.00    +0.000 A 
ATOM     15  C   UNL     1       1.532   8.363  20.313  0.00  0.00    +0.000 A 
ATOM     16  N   UNL     1       1.801   7.181  20.939  0.00  0.00    +0.000 N 
ATOM     17  C   UNL     1       2.261   6.255  20.036  0.00  0.00    +0.000 A 
ATOM     18  H   UNL     1       1.668   7.001  21.924  0.00  0.00    +0.000 HD
BRANCH   9  20
ATOM     19  C   UNL     1       1.487   2.957  21.345  0.00  0.00    +0.000 C 
ATOM     20  C   UNL     1       2.373   4.180  21.542  0.00  0.00    +0.000 C 
ENDBRANCH   9  20
ENDBRANCH   1  14
BRANCH   5  21
ATOM     21  C   UNL     1      -0.248  13.528  20.423  0.00  0.00    +0.000 A 
ATOM     22  C   UNL     1      -0.134  13.416  21.797  0.00  0.00    +0.000 A 
ATOM     23  N   UNL     1       0.432  14.347  22.602  0.00  0.00    +0.000 NA
ATOM     24  C   UNL     1       0.811  15.507  22.039  0.00  0.00    +0.000 A 
ATOM     25  C   UNL     1       1.369  16.523  22.794  0.00  0.00    +0.000 A 
ATOM     26  N   UNL     1       1.704  17.756  22.337  0.00  0.00    +0.000 NA
ATOM     27  C   UNL     1       1.476  17.986  21.028  0.00  0.00    +0.000 A 
ATOM     28  C   UNL     1       0.970  17.037  20.156  0.00  0.00    +0.000 A 
ATOM     29  C   UNL     1       0.638  15.771  20.665  0.00  0.00    +0.000 A 
ATOM     30  C   UNL     1       0.118  14.748  19.851  0.00  0.00    +0.000 A 
ENDBRANCH   5  21
TORSDOF 3
ENDMDL
