MODEL 1
REMARK VINA RESULT:      -8.4      0.000      0.000
REMARK  Name = 
REMARK  4 active torsions:
REMARK  status: ('A' for Active; 'I' for Inactive)
REMARK    1  A    between atoms: C_1  and  C_2
REMARK    2  A    between atoms: N_4  and  C_5
REMARK    3  A    between atoms: C_12  and  C_13
REMARK    4  A    between atoms: N_20  and  C_21
REMARK                            x       y       z     vdW  Elec       q    Type
REMARK                         _______ _______ _______ _____ _____    ______ ____
ROOT
ATOM      1  C   UNL     1       2.886   7.857  17.901  0.00  0.00    +0.000 C 
ATOM      2  O   UNL     1       2.625   8.318  16.797  0.00  0.00    +0.000 OA
ATOM      3  N   UNL     1       3.833   6.885  18.150  0.00  0.00    +0.000 N 
ATOM      4  C   UNL     1       4.502   6.319  17.084  0.00  0.00    +0.000 A 
ATOM      5  N   UNL     1       5.125   6.949  16.111  0.00  0.00    +0.000 NA
ATOM      6  N   UNL     1       5.853   6.026  15.401  0.00  0.00    +0.000 NA
ATOM      7  C   UNL     1       5.607   4.846  15.918  0.00  0.00    +0.000 A 
ATOM      8  N   UNL     1       4.705   4.952  16.946  0.00  0.00    +0.000 N 
ATOM      9  H   UNL     1       3.736   6.338  18.990  0.00  0.00    +0.000 HD
ENDROOT
BRANCH   1  15
ATOM     10  C   UNL     1       2.138   5.942  20.367  0.00  0.00    +0.000 C 
ATOM     11  C   UNL     1       1.754   7.365  20.164  0.00  0.00    +0.000 A 
ATOM     12  N   UNL     1       1.028   7.997  21.090  0.00  0.00    +0.000 NA
ATOM     13  N   UNL     1       0.803   9.233  20.586  0.00  0.00    +0.000 N 
ATOM     14  C   UNL     1       1.463   9.406  19.384  0.00  0.00    +0.000 A 
ATOM     15  C   UNL     1       2.079   8.207  19.069  0.00  0.00    +0.000 A 
BRANCH  13  16
ATOM     16  C   UNL     1      -0.028  10.161  21.276  0.00  0.00    +0.000 A 
ATOM     17  C   UNL     1      -0.426   9.880  22.592  0.00  0.00    +0.000 A 
ATOM     18  C   UNL     1      -1.259  10.761  23.282  0.00  0.00    +0.000 A 
ATOM     19  C   UNL     1      -1.705  11.929  22.665  0.00  0.00    +0.000 A 
ATOM     20  C   UNL     1      -1.313  12.217  21.359  0.00  0.00    +0.000 A 
ATOM     21  C   UNL     1      -0.474  11.341  20.662  0.00  0.00    +0.000 A 
ENDBRANCH  13  16
ENDBRANCH   1  15
BRANCH   8  22
ATOM     22  C   UNL     1       4.067   3.890  17.642  0.00  0.00    +0.000 A 
ATOM     23  C   UNL     1       2.867   3.354  17.163  0.00  0.00    +0.000 A 
ATOM     24  C   UNL     1       2.265   2.292  17.842  0.00  0.00    +0.000 A 
ATOM     25  C   UNL     1       2.842   1.775  19.003  0.00  0.00    +0.000 A 
ATOM     26  C   UNL     1       4.013   2.333  19.505  0.00  0.00    +0.000 A 
ATOM     27  C   UNL     1       4.618   3.394  18.835  0.00  0.00    +0.000 A 
ENDBRANCH   8  22
TORSDOF 3
ENDMDL
MODEL 2
REMARK VINA RESULT:      -8.4      0.229      1.346
REMARK  Name = 
REMARK  4 active torsions:
REMARK  status: ('A' for Active; 'I' for Inactive)
REMARK    1  A    between atoms: C_1  and  C_2
REMARK    2  A    between atoms: N_4  and  C_5
REMARK    3  A    between atoms: C_12  and  C_13
REMARK    4  A    between atoms: N_20  and  C_21
REMARK                            x       y       z     vdW  Elec       q    Type
REMARK                         _______ _______ _______ _____ _____    ______ ____
ROOT
ATOM      1  C   UNL     1       2.914   7.820  17.931  0.00  0.00    +0.000 C 
ATOM      2  O   UNL     1       2.629   8.283  16.834  0.00  0.00    +0.000 OA
ATOM      3  N   UNL     1       3.862   6.843  18.156  0.00  0.00    +0.000 N 
ATOM      4  C   UNL     1       4.502   6.275  17.074  0.00  0.00    +0.000 A 
ATOM      5  N   UNL     1       5.106   6.902  16.088  0.00  0.00    +0.000 NA
ATOM      6  N   UNL     1       5.812   5.976  15.360  0.00  0.00    +0.000 NA
ATOM      7  C   UNL     1       5.572   4.797  15.881  0.00  0.00    +0.000 A 
ATOM      8  N   UNL     1       4.695   4.907  16.930  0.00  0.00    +0.000 N 
ATOM      9  H   UNL     1       3.782   6.295  18.998  0.00  0.00    +0.000 HD
ENDROOT
BRANCH   1  15
ATOM     10  C   UNL     1       2.079   5.864  20.336  0.00  0.00    +0.000 C 
ATOM     11  C   UNL     1       1.773   7.312  20.186  0.00  0.00    +0.000 A 
ATOM     12  N   UNL     1       1.091   7.951  21.140  0.00  0.00    +0.000 NA
ATOM     13  N   UNL     1       0.932   9.215  20.681  0.00  0.00    +0.000 N 
ATOM     14  C   UNL     1       1.591   9.392  19.480  0.00  0.00    +0.000 A 
ATOM     15  C   UNL     1       2.136   8.173  19.118  0.00  0.00    +0.000 A 
BRANCH  13  16
ATOM     16  C   UNL     1       0.159  10.163  21.411  0.00  0.00    +0.000 A 
ATOM     17  C   UNL     1       0.074  11.484  20.943  0.00  0.00    +0.000 A 
ATOM     18  C   UNL     1      -0.658  12.438  21.652  0.00  0.00    +0.000 A 
ATOM     19  C   UNL     1      -1.308  12.084  22.832  0.00  0.00    +0.000 A 
ATOM     20  C   UNL     1      -1.231  10.774  23.302  0.00  0.00    +0.000 A 
ATOM     21  C   UNL     1      -0.503   9.811  22.596  0.00  0.00    +0.000 A 
ENDBRANCH  13  16
ENDBRANCH   1  15
BRANCH   8  22
ATOM     22  C   UNL     1       4.068   3.847  17.641  0.00  0.00    +0.000 A 
ATOM     23  C   UNL     1       4.637   3.355  18.820  0.00  0.00    +0.000 A 
ATOM     24  C   UNL     1       3.996   2.332  19.522  0.00  0.00    +0.000 A 
ATOM     25  C   UNL     1       2.802   1.787  19.047  0.00  0.00    +0.000 A 
ATOM     26  C   UNL     1       2.255   2.245  17.853  0.00  0.00    +0.000 A 
ATOM     27  C   UNL     1       2.890   3.264  17.146  0.00  0.00    +0.000 A 
ENDBRANCH   8  22
TORSDOF 3
ENDMDL
MODEL 3
REMARK VINA RESULT:      -8.4      0.620      1.066
REMARK  Name = 
REMARK  4 active torsions:
REMARK  status: ('A' for Active; 'I' for Inactive)
REMARK    1  A    between atoms: C_1  and  C_2
REMARK    2  A    between atoms: N_4  and  C_5
REMARK    3  A    between atoms: C_12  and  C_13
REMARK    4  A    between atoms: N_20  and  C_21
REMARK                            x       y       z     vdW  Elec       q    Type
REMARK                         _______ _______ _______ _____ _____    ______ ____
ROOT
ATOM      1  C   UNL     1       2.653   8.056  18.081  0.00  0.00    +0.000 C 
ATOM      2  O   UNL     1       2.507   8.580  16.985  0.00  0.00    +0.000 OA
ATOM      3  N   UNL     1       3.477   6.980  18.341  0.00  0.00    +0.000 N 
ATOM      4  C   UNL     1       4.143   6.383  17.291  0.00  0.00    +0.000 A 
ATOM      5  N   UNL     1       4.886   6.976  16.381  0.00  0.00    +0.000 NA
ATOM      6  N   UNL     1       5.553   6.005  15.674  0.00  0.00    +0.000 NA
ATOM      7  C   UNL     1       5.154   4.841  16.128  0.00  0.00    +0.000 A 
ATOM      8  N   UNL     1       4.209   5.008  17.109  0.00  0.00    +0.000 N 
ATOM      9  H   UNL     1       3.273   6.417  19.152  0.00  0.00    +0.000 HD
ENDROOT
BRANCH   1  15
ATOM     10  C   UNL     1       1.952   6.279  20.661  0.00  0.00    +0.000 C 
ATOM     11  C   UNL     1       1.516   7.669  20.362  0.00  0.00    +0.000 A 
ATOM     12  N   UNL     1       0.755   8.332  21.237  0.00  0.00    +0.000 NA
ATOM     13  N   UNL     1       0.489   9.523  20.652  0.00  0.00    +0.000 N 
ATOM     14  C   UNL     1       1.156   9.642  19.447  0.00  0.00    +0.000 A 
ATOM     15  C   UNL     1       1.820   8.449  19.217  0.00  0.00    +0.000 A 
BRANCH  13  16
ATOM     16  C   UNL     1      -0.385  10.461  21.272  0.00  0.00    +0.000 A 
ATOM     17  C   UNL     1      -0.652  10.345  22.645  0.00  0.00    +0.000 A 
ATOM     18  C   UNL     1      -1.523  11.237  23.272  0.00  0.00    +0.000 A 
ATOM     19  C   UNL     1      -2.136  12.249  22.536  0.00  0.00    +0.000 A 
ATOM     20  C   UNL     1      -1.874  12.372  21.173  0.00  0.00    +0.000 A 
ATOM     21  C   UNL     1      -0.999  11.485  20.537  0.00  0.00    +0.000 A 
ENDBRANCH  13  16
ENDBRANCH   1  15
BRANCH   8  22
ATOM     22  C   UNL     1       3.423   3.997  17.725  0.00  0.00    +0.000 A 
ATOM     23  C   UNL     1       4.039   2.926  18.382  0.00  0.00    +0.000 A 
ATOM     24  C   UNL     1       3.255   1.954  19.006  0.00  0.00    +0.000 A 
ATOM     25  C   UNL     1       1.862   2.034  18.965  0.00  0.00    +0.000 A 
ATOM     26  C   UNL     1       1.245   3.074  18.278  0.00  0.00    +0.000 A 
ATOM     27  C   UNL     1       2.021   4.046  17.650  0.00  0.00    +0.000 A 
ENDBRANCH   8  22
TORSDOF 3
ENDMDL
MODEL 4
REMARK VINA RESULT:      -8.4      0.638      1.146
REMARK  Name = 
REMARK  4 active torsions:
REMARK  status: ('A' for Active; 'I' for Inactive)
REMARK    1  A    between atoms: C_1  and  C_2
REMARK    2  A    between atoms: N_4  and  C_5
REMARK    3  A    between atoms: C_12  and  C_13
REMARK    4  A    between atoms: N_20  and  C_21
REMARK                            x       y       z     vdW  Elec       q    Type
REMARK                         _______ _______ _______ _____ _____    ______ ____
ROOT
ATOM      1  C   UNL     1       2.626   8.097  18.100  0.00  0.00    +0.000 C 
ATOM      2  O   UNL     1       2.474   8.622  17.004  0.00  0.00    +0.000 OA
ATOM      3  N   UNL     1       3.457   7.026  18.356  0.00  0.00    +0.000 N 
ATOM      4  C   UNL     1       4.125   6.435  17.304  0.00  0.00    +0.000 A 
ATOM      5  N   UNL     1       4.861   7.034  16.392  0.00  0.00    +0.000 NA
ATOM      6  N   UNL     1       5.533   6.069  15.682  0.00  0.00    +0.000 NA
ATOM      7  C   UNL     1       5.143   4.901  16.135  0.00  0.00    +0.000 A 
ATOM      8  N   UNL     1       4.200   5.060  17.119  0.00  0.00    +0.000 N 
ATOM      9  H   UNL     1       3.260   6.461  19.166  0.00  0.00    +0.000 HD
ENDROOT
BRANCH   1  15
ATOM     10  C   UNL     1       1.940   6.309  20.677  0.00  0.00    +0.000 C 
ATOM     11  C   UNL     1       1.496   7.698  20.382  0.00  0.00    +0.000 A 
ATOM     12  N   UNL     1       0.734   8.354  21.261  0.00  0.00    +0.000 NA
ATOM     13  N   UNL     1       0.460   9.545  20.679  0.00  0.00    +0.000 N 
ATOM     14  C   UNL     1       1.123   9.671  19.472  0.00  0.00    +0.000 A 
ATOM     15  C   UNL     1       1.793   8.483  19.238  0.00  0.00    +0.000 A 
BRANCH  13  16
ATOM     16  C   UNL     1      -0.418  10.477  21.303  0.00  0.00    +0.000 A 
ATOM     17  C   UNL     1      -0.982  11.508  20.536  0.00  0.00    +0.000 A 
ATOM     18  C   UNL     1      -1.827  12.448  21.128  0.00  0.00    +0.000 A 
ATOM     19  C   UNL     1      -2.114  12.369  22.489  0.00  0.00    +0.000 A 
ATOM     20  C   UNL     1      -1.559  11.347  23.258  0.00  0.00    +0.000 A 
ATOM     21  C   UNL     1      -0.715  10.399  22.671  0.00  0.00    +0.000 A 
ENDBRANCH  13  16
ENDBRANCH   1  15
BRANCH   8  22
ATOM     22  C   UNL     1       3.422   4.043  17.736  0.00  0.00    +0.000 A 
ATOM     23  C   UNL     1       2.025   4.082  17.663  0.00  0.00    +0.000 A 
ATOM     24  C   UNL     1       1.274   3.062  18.250  0.00  0.00    +0.000 A 
ATOM     25  C   UNL     1       1.905   2.014  18.922  0.00  0.00    +0.000 A 
ATOM     26  C   UNL     1       3.292   1.994  19.032  0.00  0.00    +0.000 A 
ATOM     27  C   UNL     1       4.048   3.010  18.451  0.00  0.00    +0.000 A 
ENDBRANCH   8  22
TORSDOF 3
ENDMDL
MODEL 5
REMARK VINA RESULT:      -8.2      2.070      3.486
REMARK  Name = 
REMARK  4 active torsions:
REMARK  status: ('A' for Active; 'I' for Inactive)
REMARK    1  A    between atoms: C_1  and  C_2
REMARK    2  A    between atoms: N_4  and  C_5
REMARK    3  A    between atoms: C_12  and  C_13
REMARK    4  A    between atoms: N_20  and  C_21
REMARK                            x       y       z     vdW  Elec       q    Type
REMARK                         _______ _______ _______ _____ _____    ______ ____
ROOT
ATOM      1  C   UNL     1       2.083   5.302  20.199  0.00  0.00    +0.000 C 
ATOM      2  O   UNL     1       2.189   4.685  21.251  0.00  0.00    +0.000 OA
ATOM      3  N   UNL     1       2.380   4.795  18.951  0.00  0.00    +0.000 N 
ATOM      4  C   UNL     1       2.906   3.523  18.856  0.00  0.00    +0.000 A 
ATOM      5  N   UNL     1       2.432   2.424  19.401  0.00  0.00    +0.000 NA
ATOM      6  N   UNL     1       3.109   1.355  18.867  0.00  0.00    +0.000 NA
ATOM      7  C   UNL     1       4.023   1.831  18.056  0.00  0.00    +0.000 A 
ATOM      8  N   UNL     1       3.994   3.202  18.054  0.00  0.00    +0.000 N 
ATOM      9  H   UNL     1       2.594   5.450  18.216  0.00  0.00    +0.000 HD
ENDROOT
BRANCH   1  15
ATOM     10  C   UNL     1       3.039   7.484  18.046  0.00  0.00    +0.000 C 
ATOM     11  C   UNL     1       2.178   7.693  19.240  0.00  0.00    +0.000 A 
ATOM     12  N   UNL     1       1.685   8.907  19.502  0.00  0.00    +0.000 NA
ATOM     13  N   UNL     1       1.006   8.775  20.665  0.00  0.00    +0.000 N 
ATOM     14  C   UNL     1       0.997   7.459  21.088  0.00  0.00    +0.000 A 
ATOM     15  C   UNL     1       1.763   6.729  20.195  0.00  0.00    +0.000 A 
BRANCH  13  16
ATOM     16  C   UNL     1       0.419   9.907  21.299  0.00  0.00    +0.000 A 
ATOM     17  C   UNL     1      -0.381   9.719  22.437  0.00  0.00    +0.000 A 
ATOM     18  C   UNL     1      -0.986  10.809  23.064  0.00  0.00    +0.000 A 
ATOM     19  C   UNL     1      -0.801  12.095  22.559  0.00  0.00    +0.000 A 
ATOM     20  C   UNL     1      -0.007  12.291  21.431  0.00  0.00    +0.000 A 
ATOM     21  C   UNL     1       0.607  11.204  20.800  0.00  0.00    +0.000 A 
ENDBRANCH  13  16
ENDBRANCH   1  15
BRANCH   8  22
ATOM     22  C   UNL     1       4.926   4.081  17.438  0.00  0.00    +0.000 A 
ATOM     23  C   UNL     1       5.927   4.694  18.199  0.00  0.00    +0.000 A 
ATOM     24  C   UNL     1       6.853   5.533  17.576  0.00  0.00    +0.000 A 
ATOM     25  C   UNL     1       6.777   5.777  16.204  0.00  0.00    +0.000 A 
ATOM     26  C   UNL     1       5.758   5.203  15.451  0.00  0.00    +0.000 A 
ATOM     27  C   UNL     1       4.829   4.366  16.066  0.00  0.00    +0.000 A 
ENDBRANCH   8  22
TORSDOF 3
ENDMDL
MODEL 6
REMARK VINA RESULT:      -8.1      2.434      8.257
REMARK  Name = 
REMARK  4 active torsions:
REMARK  status: ('A' for Active; 'I' for Inactive)
REMARK    1  A    between atoms: C_1  and  C_2
REMARK    2  A    between atoms: N_4  and  C_5
REMARK    3  A    between atoms: C_12  and  C_13
REMARK    4  A    between atoms: N_20  and  C_21
REMARK                            x       y       z     vdW  Elec       q    Type
REMARK                         _______ _______ _______ _____ _____    ______ ____
ROOT
ATOM      1  C   UNL     1       1.329   8.740  20.774  0.00  0.00    +0.000 C 
ATOM      2  O   UNL     1       1.110   8.546  21.963  0.00  0.00    +0.000 OA
ATOM      3  N   UNL     1       1.001   9.890  20.085  0.00  0.00    +0.000 N 
ATOM      4  C   UNL     1       0.308  10.885  20.743  0.00  0.00    +0.000 A 
ATOM      5  N   UNL     1       0.612  11.435  21.899  0.00  0.00    +0.000 NA
ATOM      6  N   UNL     1      -0.190  12.537  22.073  0.00  0.00    +0.000 NA
ATOM      7  C   UNL     1      -1.007  12.596  21.049  0.00  0.00    +0.000 A 
ATOM      8  N   UNL     1      -0.791  11.540  20.201  0.00  0.00    +0.000 N 
ATOM      9  H   UNL     1       0.898   9.826  19.085  0.00  0.00    +0.000 HD
ENDROOT
BRANCH   1  15
ATOM     10  C   UNL     1       2.294   9.001  17.723  0.00  0.00    +0.000 C 
ATOM     11  C   UNL     1       2.276   7.782  18.576  0.00  0.00    +0.000 A 
ATOM     12  N   UNL     1       2.722   6.621  18.089  0.00  0.00    +0.000 NA
ATOM     13  N   UNL     1       2.519   5.717  19.075  0.00  0.00    +0.000 N 
ATOM     14  C   UNL     1       2.028   6.328  20.214  0.00  0.00    +0.000 A 
ATOM     15  C   UNL     1       1.841   7.668  19.922  0.00  0.00    +0.000 A 
BRANCH  13  16
ATOM     16  C   UNL     1       2.798   4.336  18.867  0.00  0.00    +0.000 A 
ATOM     17  C   UNL     1       3.714   3.686  19.708  0.00  0.00    +0.000 A 
ATOM     18  C   UNL     1       4.022   2.339  19.511  0.00  0.00    +0.000 A 
ATOM     19  C   UNL     1       3.422   1.631  18.472  0.00  0.00    +0.000 A 
ATOM     20  C   UNL     1       2.509   2.268  17.633  0.00  0.00    +0.000 A 
ATOM     21  C   UNL     1       2.191   3.616  17.827  0.00  0.00    +0.000 A 
ENDBRANCH  13  16
ENDBRANCH   1  15
BRANCH   8  22
ATOM     22  C   UNL     1      -1.576  11.165  19.078  0.00  0.00    +0.000 A 
ATOM     23  C   UNL     1      -1.079  10.250  18.143  0.00  0.00    +0.000 A 
ATOM     24  C   UNL     1      -1.873   9.869  17.059  0.00  0.00    +0.000 A 
ATOM     25  C   UNL     1      -3.149  10.408  16.891  0.00  0.00    +0.000 A 
ATOM     26  C   UNL     1      -3.631  11.349  17.795  0.00  0.00    +0.000 A 
ATOM     27  C   UNL     1      -2.844  11.736  18.878  0.00  0.00    +0.000 A 
ENDBRANCH   8  22
TORSDOF 3
ENDMDL
MODEL 7
REMARK VINA RESULT:      -8.1      2.439      8.267
REMARK  Name = 
REMARK  4 active torsions:
REMARK  status: ('A' for Active; 'I' for Inactive)
REMARK    1  A    between atoms: C_1  and  C_2
REMARK    2  A    between atoms: N_4  and  C_5
REMARK    3  A    between atoms: C_12  and  C_13
REMARK    4  A    between atoms: N_20  and  C_21
REMARK                            x       y       z     vdW  Elec       q    Type
REMARK                         _______ _______ _______ _____ _____    ______ ____
ROOT
ATOM      1  C   UNL     1       1.337   8.764  20.748  0.00  0.00    +0.000 C 
ATOM      2  O   UNL     1       1.124   8.578  21.939  0.00  0.00    +0.000 OA
ATOM      3  N   UNL     1       1.002   9.909  20.054  0.00  0.00    +0.000 N 
ATOM      4  C   UNL     1       0.309  10.906  20.708  0.00  0.00    +0.000 A 
ATOM      5  N   UNL     1       0.616  11.464  21.859  0.00  0.00    +0.000 NA
ATOM      6  N   UNL     1      -0.189  12.564  22.029  0.00  0.00    +0.000 NA
ATOM      7  C   UNL     1      -1.011  12.615  21.009  0.00  0.00    +0.000 A 
ATOM      8  N   UNL     1      -0.794  11.553  20.167  0.00  0.00    +0.000 N 
ATOM      9  H   UNL     1       0.896   9.838  19.054  0.00  0.00    +0.000 HD
ENDROOT
BRANCH   1  15
ATOM     10  C   UNL     1       2.221   8.994  17.670  0.00  0.00    +0.000 C 
ATOM     11  C   UNL     1       2.248   7.790  18.543  0.00  0.00    +0.000 A 
ATOM     12  N   UNL     1       2.705   6.630  18.063  0.00  0.00    +0.000 NA
ATOM     13  N   UNL     1       2.545   5.738  19.069  0.00  0.00    +0.000 N 
ATOM     14  C   UNL     1       2.070   6.358  20.209  0.00  0.00    +0.000 A 
ATOM     15  C   UNL     1       1.849   7.689  19.900  0.00  0.00    +0.000 A 
BRANCH  13  16
ATOM     16  C   UNL     1       2.846   4.359  18.875  0.00  0.00    +0.000 A 
ATOM     17  C   UNL     1       2.233   3.665  17.820  0.00  0.00    +0.000 A 
ATOM     18  C   UNL     1       2.493   2.308  17.623  0.00  0.00    +0.000 A 
ATOM     19  C   UNL     1       3.363   1.632  18.476  0.00  0.00    +0.000 A 
ATOM     20  C   UNL     1       3.978   2.315  19.524  0.00  0.00    +0.000 A 
ATOM     21  C   UNL     1       3.726   3.676  19.726  0.00  0.00    +0.000 A 
ENDBRANCH  13  16
ENDBRANCH   1  15
BRANCH   8  22
ATOM     22  C   UNL     1      -1.583  11.169  19.049  0.00  0.00    +0.000 A 
ATOM     23  C   UNL     1      -2.857  11.717  18.863  0.00  0.00    +0.000 A 
ATOM     24  C   UNL     1      -3.611  11.351  17.746  0.00  0.00    +0.000 A 
ATOM     25  C   UNL     1      -3.110  10.431  16.824  0.00  0.00    +0.000 A 
ATOM     26  C   UNL     1      -1.862   9.852  17.027  0.00  0.00    +0.000 A 
ATOM     27  C   UNL     1      -1.105  10.210  18.141  0.00  0.00    +0.000 A 
ENDBRANCH   8  22
TORSDOF 3
ENDMDL
MODEL 8
REMARK VINA RESULT:      -8.0      2.381      3.815
REMARK  Name = 
REMARK  4 active torsions:
REMARK  status: ('A' for Active; 'I' for Inactive)
REMARK    1  A    between atoms: C_1  and  C_2
REMARK    2  A    between atoms: N_4  and  C_5
REMARK    3  A    between atoms: C_12  and  C_13
REMARK    4  A    between atoms: N_20  and  C_21
REMARK                            x       y       z     vdW  Elec       q    Type
REMARK                         _______ _______ _______ _____ _____    ______ ____
ROOT
ATOM      1  C   UNL     1       3.326   4.893  18.362  0.00  0.00    +0.000 C 
ATOM      2  O   UNL     1       3.318   3.672  18.460  0.00  0.00    +0.000 OA
ATOM      3  N   UNL     1       4.121   5.613  17.495  0.00  0.00    +0.000 N 
ATOM      4  C   UNL     1       5.039   4.937  16.717  0.00  0.00    +0.000 A 
ATOM      5  N   UNL     1       4.815   3.893  15.948  0.00  0.00    +0.000 NA
ATOM      6  N   UNL     1       5.929   3.686  15.172  0.00  0.00    +0.000 NA
ATOM      7  C   UNL     1       6.830   4.568  15.530  0.00  0.00    +0.000 A 
ATOM      8  N   UNL     1       6.355   5.350  16.553  0.00  0.00    +0.000 N 
ATOM      9  H   UNL     1       4.313   6.575  17.721  0.00  0.00    +0.000 HD
ENDROOT
BRANCH   1  15
ATOM     10  C   UNL     1       1.739   3.899  20.970  0.00  0.00    +0.000 C 
ATOM     11  C   UNL     1       1.876   5.288  20.457  0.00  0.00    +0.000 A 
ATOM     12  N   UNL     1       1.317   6.303  21.121  0.00  0.00    +0.000 NA
ATOM     13  N   UNL     1       1.571   7.404  20.376  0.00  0.00    +0.000 N 
ATOM     14  C   UNL     1       2.366   7.093  19.289  0.00  0.00    +0.000 A 
ATOM     15  C   UNL     1       2.572   5.724  19.299  0.00  0.00    +0.000 A 
BRANCH  13  16
ATOM     16  C   UNL     1       1.035   8.672  20.742  0.00  0.00    +0.000 A 
ATOM     17  C   UNL     1       0.569   8.867  22.052  0.00  0.00    +0.000 A 
ATOM     18  C   UNL     1       0.018  10.093  22.430  0.00  0.00    +0.000 A 
ATOM     19  C   UNL     1      -0.075  11.131  21.505  0.00  0.00    +0.000 A 
ATOM     20  C   UNL     1       0.387  10.946  20.204  0.00  0.00    +0.000 A 
ATOM     21  C   UNL     1       0.945   9.722  19.818  0.00  0.00    +0.000 A 
ENDBRANCH  13  16
ENDBRANCH   1  15
BRANCH   8  22
ATOM     22  C   UNL     1       7.084   6.301  17.318  0.00  0.00    +0.000 A 
ATOM     23  C   UNL     1       7.695   5.921  18.518  0.00  0.00    +0.000 A 
ATOM     24  C   UNL     1       8.431   6.858  19.245  0.00  0.00    +0.000 A 
ATOM     25  C   UNL     1       8.547   8.174  18.794  0.00  0.00    +0.000 A 
ATOM     26  C   UNL     1       7.907   8.566  17.623  0.00  0.00    +0.000 A 
ATOM     27  C   UNL     1       7.168   7.637  16.892  0.00  0.00    +0.000 A 
ENDBRANCH   8  22
TORSDOF 3
ENDMDL
MODEL 9
REMARK VINA RESULT:      -8.0      2.569      3.941
REMARK  Name = 
REMARK  4 active torsions:
REMARK  status: ('A' for Active; 'I' for Inactive)
REMARK    1  A    between atoms: C_1  and  C_2
REMARK    2  A    between atoms: N_4  and  C_5
REMARK    3  A    between atoms: C_12  and  C_13
REMARK    4  A    between atoms: N_20  and  C_21
REMARK                            x       y       z     vdW  Elec       q    Type
REMARK                         _______ _______ _______ _____ _____    ______ ____
ROOT
ATOM      1  C   UNL     1       2.160   6.459  19.655  0.00  0.00    +0.000 C 
ATOM      2  O   UNL     1       2.132   6.302  20.869  0.00  0.00    +0.000 OA
ATOM      3  N   UNL     1       2.430   5.467  18.735  0.00  0.00    +0.000 N 
ATOM      4  C   UNL     1       2.769   4.210  19.191  0.00  0.00    +0.000 A 
ATOM      5  N   UNL     1       2.118   3.480  20.071  0.00  0.00    +0.000 NA
ATOM      6  N   UNL     1       2.653   2.215  20.059  0.00  0.00    +0.000 NA
ATOM      7  C   UNL     1       3.659   2.220  19.218  0.00  0.00    +0.000 A 
ATOM      8  N   UNL     1       3.830   3.471  18.683  0.00  0.00    +0.000 N 
ATOM      9  H   UNL     1       2.768   5.746  17.828  0.00  0.00    +0.000 HD
ENDROOT
BRANCH   1  15
ATOM     10  C   UNL     1       3.794   7.592  17.135  0.00  0.00    +0.000 C 
ATOM     11  C   UNL     1       2.767   8.294  17.950  0.00  0.00    +0.000 A 
ATOM     12  N   UNL     1       2.413   9.545  17.642  0.00  0.00    +0.000 NA
ATOM     13  N   UNL     1       1.520   9.908  18.592  0.00  0.00    +0.000 N 
ATOM     14  C   UNL     1       1.247   8.855  19.445  0.00  0.00    +0.000 A 
ATOM     15  C   UNL     1       2.052   7.794  19.069  0.00  0.00    +0.000 A 
BRANCH  13  16
ATOM     16  C   UNL     1       0.994  11.231  18.630  0.00  0.00    +0.000 A 
ATOM     17  C   UNL     1      -0.396  11.415  18.704  0.00  0.00    +0.000 A 
ATOM     18  C   UNL     1      -0.938  12.701  18.719  0.00  0.00    +0.000 A 
ATOM     19  C   UNL     1      -0.101  13.813  18.658  0.00  0.00    +0.000 A 
ATOM     20  C   UNL     1       1.280  13.639  18.587  0.00  0.00    +0.000 A 
ATOM     21  C   UNL     1       1.832  12.354  18.576  0.00  0.00    +0.000 A 
ENDBRANCH  13  16
ENDBRANCH   1  15
BRANCH   8  22
ATOM     22  C   UNL     1       4.905   3.916  17.866  0.00  0.00    +0.000 A 
ATOM     23  C   UNL     1       6.013   4.548  18.442  0.00  0.00    +0.000 A 
ATOM     24  C   UNL     1       7.075   4.955  17.631  0.00  0.00    +0.000 A 
ATOM     25  C   UNL     1       7.030   4.754  16.251  0.00  0.00    +0.000 A 
ATOM     26  C   UNL     1       5.912   4.164  15.670  0.00  0.00    +0.000 A 
ATOM     27  C   UNL     1       4.848   3.757  16.472  0.00  0.00    +0.000 A 
ENDBRANCH   8  22
TORSDOF 3
ENDMDL
