MODEL 1
REMARK VINA RESULT:      -8.4      0.000      0.000
REMARK  Name = 
REMARK  5 active torsions:
REMARK  status: ('A' for Active; 'I' for Inactive)
REMARK    1  A    between atoms: C_2  and  C_3
REMARK    2  A    between atoms: C_3  and  C_4
REMARK    3  A    between atoms: N_11  and  C_12
REMARK    4  A    between atoms: C_16  and  C_17
REMARK    5  A    between atoms: C_17  and  N_18
REMARK                            x       y       z     vdW  Elec       q    Type
REMARK                         _______ _______ _______ _____ _____    ______ ____
ROOT
ATOM      1  C   UNL     1       5.070   5.359  16.150  0.00  0.00    +0.000 A 
ATOM      2  C   UNL     1       4.843   6.520  16.891  0.00  0.00    +0.000 A 
ATOM      3  C   UNL     1       4.363   6.450  18.201  0.00  0.00    +0.000 A 
ATOM      4  C   UNL     1       4.063   5.217  18.774  0.00  0.00    +0.000 A 
ATOM      5  C   UNL     1       4.221   4.041  18.033  0.00  0.00    +0.000 A 
ATOM      6  C   UNL     1       4.770   4.119  16.737  0.00  0.00    +0.000 A 
ENDROOT
BRANCH   1   9
ATOM      7  O   UNL     1       7.728   4.489  15.133  0.00  0.00    +0.000 OA
ATOM      8  C   UNL     1       6.836   4.930  14.412  0.00  0.00    +0.000 C 
ATOM      9  N   UNL     1       5.582   5.362  14.828  0.00  0.00    +0.000 N 
ATOM     10  H   UNL     1       4.970   5.752  14.121  0.00  0.00    +0.000 HD
BRANCH   8  11
ATOM     11  C   UNL     1       7.043   5.011  12.906  0.00  0.00    +0.000 C 
BRANCH  11  12
ATOM     12  C   UNL     1       6.788   3.712  12.189  0.00  0.00    +0.000 A 
ATOM     13  C   UNL     1       7.839   2.955  11.648  0.00  0.00    +0.000 A 
ATOM     14  C   UNL     1       7.583   1.722  11.035  0.00  0.00    +0.000 A 
ATOM     15  C   UNL     1       6.278   1.241  10.944  0.00  0.00    +0.000 A 
ATOM     16  C   UNL     1       5.223   2.000  11.447  0.00  0.00    +0.000 A 
ATOM     17  C   UNL     1       5.486   3.224  12.057  0.00  0.00    +0.000 A 
ATOM     18  F   UNL     1       4.461   3.939  12.547  0.00  0.00    +0.000 F 
ENDBRANCH  11  12
ENDBRANCH   8  11
ENDBRANCH   1   9
BRANCH   5  19
ATOM     19  C   UNL     1       3.764   2.724  18.616  0.00  0.00    +0.000 C 
BRANCH  19  20
ATOM     20  N   UNL     1       2.634   2.860  19.498  0.00  0.00    +0.000 N 
ATOM     21  C   UNL     1       2.672   2.664  20.848  0.00  0.00    +0.000 C 
ATOM     22  O   UNL     1       3.653   2.364  21.516  0.00  0.00    +0.000 OA
ATOM     23  C   UNL     1       1.272   2.869  21.404  0.00  0.00    +0.000 C 
ATOM     24  N   UNL     1       0.549   3.164  20.200  0.00  0.00    +0.000 N 
ATOM     25  C   UNL     1       1.365   3.144  19.089  0.00  0.00    +0.000 C 
ATOM     26  O   UNL     1       0.970   3.335  17.954  0.00  0.00    +0.000 OA
ATOM     27  H   UNL     1      -0.440   3.365  20.123  0.00  0.00    +0.000 HD
ENDBRANCH  19  20
ENDBRANCH   5  19
TORSDOF 5
ENDMDL
MODEL 2
REMARK VINA RESULT:      -8.2      4.931      8.470
REMARK  Name = 
REMARK  5 active torsions:
REMARK  status: ('A' for Active; 'I' for Inactive)
REMARK    1  A    between atoms: C_2  and  C_3
REMARK    2  A    between atoms: C_3  and  C_4
REMARK    3  A    between atoms: N_11  and  C_12
REMARK    4  A    between atoms: C_16  and  C_17
REMARK    5  A    between atoms: C_17  and  N_18
REMARK                            x       y       z     vdW  Elec       q    Type
REMARK                         _______ _______ _______ _____ _____    ______ ____
ROOT
ATOM      1  C   UNL     1       2.563   6.036  18.527  0.00  0.00    +0.000 A 
ATOM      2  C   UNL     1       1.701   5.123  17.917  0.00  0.00    +0.000 A 
ATOM      3  C   UNL     1       2.181   3.910  17.416  0.00  0.00    +0.000 A 
ATOM      4  C   UNL     1       3.539   3.612  17.480  0.00  0.00    +0.000 A 
ATOM      5  C   UNL     1       4.435   4.536  18.029  0.00  0.00    +0.000 A 
ATOM      6  C   UNL     1       3.931   5.725  18.592  0.00  0.00    +0.000 A 
ENDROOT
BRANCH   1   9
ATOM      7  O   UNL     1       2.322   8.713  17.253  0.00  0.00    +0.000 OA
ATOM      8  C   UNL     1       2.032   8.491  18.426  0.00  0.00    +0.000 C 
ATOM      9  N   UNL     1       2.133   7.268  19.079  0.00  0.00    +0.000 N 
ATOM     10  H   UNL     1       1.907   7.253  20.066  0.00  0.00    +0.000 HD
BRANCH   8  11
ATOM     11  C   UNL     1       1.472   9.607  19.297  0.00  0.00    +0.000 C 
BRANCH  11  12
ATOM     12  C   UNL     1       0.299  10.324  18.685  0.00  0.00    +0.000 A 
ATOM     13  C   UNL     1      -0.683   9.634  17.956  0.00  0.00    +0.000 A 
ATOM     14  C   UNL     1      -1.794  10.313  17.443  0.00  0.00    +0.000 A 
ATOM     15  C   UNL     1      -1.930  11.687  17.641  0.00  0.00    +0.000 A 
ATOM     16  C   UNL     1      -0.945  12.388  18.334  0.00  0.00    +0.000 A 
ATOM     17  C   UNL     1       0.157  11.705  18.842  0.00  0.00    +0.000 A 
ATOM     18  F   UNL     1       1.092  12.391  19.517  0.00  0.00    +0.000 F 
ENDBRANCH  11  12
ENDBRANCH   8  11
ENDBRANCH   1   9
BRANCH   5  19
ATOM     19  C   UNL     1       5.920   4.261  17.970  0.00  0.00    +0.000 C 
BRANCH  19  20
ATOM     20  N   UNL     1       6.713   5.460  17.892  0.00  0.00    +0.000 N 
ATOM     21  C   UNL     1       7.439   5.982  18.923  0.00  0.00    +0.000 C 
ATOM     22  O   UNL     1       7.545   5.517  20.050  0.00  0.00    +0.000 OA
ATOM     23  C   UNL     1       8.100   7.264  18.445  0.00  0.00    +0.000 C 
ATOM     24  N   UNL     1       7.616   7.326  17.096  0.00  0.00    +0.000 N 
ATOM     25  C   UNL     1       6.793   6.263  16.793  0.00  0.00    +0.000 C 
ATOM     26  O   UNL     1       6.240   6.117  15.719  0.00  0.00    +0.000 OA
ATOM     27  H   UNL     1       7.820   8.045  16.413  0.00  0.00    +0.000 HD
ENDBRANCH  19  20
ENDBRANCH   5  19
TORSDOF 5
ENDMDL
MODEL 3
REMARK VINA RESULT:      -8.2      5.134      7.261
REMARK  Name = 
REMARK  5 active torsions:
REMARK  status: ('A' for Active; 'I' for Inactive)
REMARK    1  A    between atoms: C_2  and  C_3
REMARK    2  A    between atoms: C_3  and  C_4
REMARK    3  A    between atoms: N_11  and  C_12
REMARK    4  A    between atoms: C_16  and  C_17
REMARK    5  A    between atoms: C_17  and  N_18
REMARK                            x       y       z     vdW  Elec       q    Type
REMARK                         _______ _______ _______ _____ _____    ______ ____
ROOT
ATOM      1  C   UNL     1       6.681   7.070  17.231  0.00  0.00    +0.000 A 
ATOM      2  C   UNL     1       7.369   6.079  16.528  0.00  0.00    +0.000 A 
ATOM      3  C   UNL     1       6.888   4.769  16.483  0.00  0.00    +0.000 A 
ATOM      4  C   UNL     1       5.733   4.420  17.177  0.00  0.00    +0.000 A 
ATOM      5  C   UNL     1       5.058   5.377  17.942  0.00  0.00    +0.000 A 
ATOM      6  C   UNL     1       5.514   6.711  17.926  0.00  0.00    +0.000 A 
ENDROOT
BRANCH   1   9
ATOM      7  O   UNL     1       8.821   8.327  18.871  0.00  0.00    +0.000 OA
ATOM      8  C   UNL     1       8.122   8.949  18.076  0.00  0.00    +0.000 C 
ATOM      9  N   UNL     1       7.102   8.421  17.292  0.00  0.00    +0.000 N 
ATOM     10  H   UNL     1       6.575   9.071  16.721  0.00  0.00    +0.000 HD
BRANCH   8  11
ATOM     11  C   UNL     1       8.359  10.436  17.852  0.00  0.00    +0.000 C 
BRANCH  11  12
ATOM     12  C   UNL     1       9.611  10.955  18.506  0.00  0.00    +0.000 A 
ATOM     13  C   UNL     1      10.773  11.213  17.762  0.00  0.00    +0.000 A 
ATOM     14  C   UNL     1      11.909  11.749  18.382  0.00  0.00    +0.000 A 
ATOM     15  C   UNL     1      11.900  12.019  19.750  0.00  0.00    +0.000 A 
ATOM     16  C   UNL     1      10.763  11.735  20.505  0.00  0.00    +0.000 A 
ATOM     17  C   UNL     1       9.637  11.204  19.880  0.00  0.00    +0.000 A 
ATOM     18  F   UNL     1       8.546  10.946  20.618  0.00  0.00    +0.000 F 
ENDBRANCH  11  12
ENDBRANCH   8  11
ENDBRANCH   1   9
BRANCH   5  19
ATOM     19  C   UNL     1       3.887   4.957  18.799  0.00  0.00    +0.000 C 
BRANCH  19  20
ATOM     20  N   UNL     1       3.506   3.583  18.599  0.00  0.00    +0.000 N 
ATOM     21  C   UNL     1       4.097   2.515  19.211  0.00  0.00    +0.000 C 
ATOM     22  O   UNL     1       5.013   2.551  20.021  0.00  0.00    +0.000 OA
ATOM     23  C   UNL     1       3.431   1.244  18.707  0.00  0.00    +0.000 C 
ATOM     24  N   UNL     1       2.478   1.790  17.785  0.00  0.00    +0.000 N 
ATOM     25  C   UNL     1       2.544   3.166  17.727  0.00  0.00    +0.000 C 
ATOM     26  O   UNL     1       1.855   3.849  16.994  0.00  0.00    +0.000 OA
ATOM     27  H   UNL     1       1.819   1.272  17.218  0.00  0.00    +0.000 HD
ENDBRANCH  19  20
ENDBRANCH   5  19
TORSDOF 5
ENDMDL
MODEL 4
REMARK VINA RESULT:      -8.2      4.960      8.670
REMARK  Name = 
REMARK  5 active torsions:
REMARK  status: ('A' for Active; 'I' for Inactive)
REMARK    1  A    between atoms: C_2  and  C_3
REMARK    2  A    between atoms: C_3  and  C_4
REMARK    3  A    between atoms: N_11  and  C_12
REMARK    4  A    between atoms: C_16  and  C_17
REMARK    5  A    between atoms: C_17  and  N_18
REMARK                            x       y       z     vdW  Elec       q    Type
REMARK                         _______ _______ _______ _____ _____    ______ ____
ROOT
ATOM      1  C   UNL     1       2.717   6.014  18.605  0.00  0.00    +0.000 A 
ATOM      2  C   UNL     1       1.881   5.098  17.964  0.00  0.00    +0.000 A 
ATOM      3  C   UNL     1       2.398   3.931  17.398  0.00  0.00    +0.000 A 
ATOM      4  C   UNL     1       3.767   3.683  17.428  0.00  0.00    +0.000 A 
ATOM      5  C   UNL     1       4.637   4.613  18.007  0.00  0.00    +0.000 A 
ATOM      6  C   UNL     1       4.097   5.754  18.635  0.00  0.00    +0.000 A 
ENDROOT
BRANCH   1   9
ATOM      7  O   UNL     1       2.194   8.695  17.427  0.00  0.00    +0.000 OA
ATOM      8  C   UNL     1       2.014   8.428  18.612  0.00  0.00    +0.000 C 
ATOM      9  N   UNL     1       2.251   7.201  19.222  0.00  0.00    +0.000 N 
ATOM     10  H   UNL     1       2.105   7.148  20.223  0.00  0.00    +0.000 HD
BRANCH   8  11
ATOM     11  C   UNL     1       1.452   9.482  19.555  0.00  0.00    +0.000 C 
BRANCH  11  12
ATOM     12  C   UNL     1       0.404  10.360  18.926  0.00  0.00    +0.000 A 
ATOM     13  C   UNL     1      -0.753   9.819  18.344  0.00  0.00    +0.000 A 
ATOM     14  C   UNL     1      -1.741  10.659  17.814  0.00  0.00    +0.000 A 
ATOM     15  C   UNL     1      -1.578  12.043  17.849  0.00  0.00    +0.000 A 
ATOM     16  C   UNL     1      -0.419  12.591  18.394  0.00  0.00    +0.000 A 
ATOM     17  C   UNL     1       0.559  11.749  18.920  0.00  0.00    +0.000 A 
ATOM     18  F   UNL     1       1.665  12.291  19.452  0.00  0.00    +0.000 F 
ENDBRANCH  11  12
ENDBRANCH   8  11
ENDBRANCH   1   9
BRANCH   5  19
ATOM     19  C   UNL     1       6.130   4.399  17.912  0.00  0.00    +0.000 C 
BRANCH  19  20
ATOM     20  N   UNL     1       6.885   5.615  18.071  0.00  0.00    +0.000 N 
ATOM     21  C   UNL     1       6.992   6.593  17.126  0.00  0.00    +0.000 C 
ATOM     22  O   UNL     1       6.464   6.604  16.022  0.00  0.00    +0.000 OA
ATOM     23  C   UNL     1       7.900   7.686  17.666  0.00  0.00    +0.000 C 
ATOM     24  N   UNL     1       8.237   7.142  18.950  0.00  0.00    +0.000 N 
ATOM     25  C   UNL     1       7.639   5.919  19.165  0.00  0.00    +0.000 C 
ATOM     26  O   UNL     1       7.801   5.252  20.170  0.00  0.00    +0.000 OA
ATOM     27  H   UNL     1       8.839   7.562  19.646  0.00  0.00    +0.000 HD
ENDBRANCH  19  20
ENDBRANCH   5  19
TORSDOF 5
ENDMDL
MODEL 5
REMARK VINA RESULT:      -8.1      5.016      8.012
REMARK  Name = 
REMARK  5 active torsions:
REMARK  status: ('A' for Active; 'I' for Inactive)
REMARK    1  A    between atoms: C_2  and  C_3
REMARK    2  A    between atoms: C_3  and  C_4
REMARK    3  A    between atoms: N_11  and  C_12
REMARK    4  A    between atoms: C_16  and  C_17
REMARK    5  A    between atoms: C_17  and  N_18
REMARK                            x       y       z     vdW  Elec       q    Type
REMARK                         _______ _______ _______ _____ _____    ______ ____
ROOT
ATOM      1  C   UNL     1       2.900   6.954  18.196  0.00  0.00    +0.000 A 
ATOM      2  C   UNL     1       4.038   7.238  17.438  0.00  0.00    +0.000 A 
ATOM      3  C   UNL     1       4.729   6.220  16.776  0.00  0.00    +0.000 A 
ATOM      4  C   UNL     1       4.317   4.896  16.899  0.00  0.00    +0.000 A 
ATOM      5  C   UNL     1       3.219   4.575  17.704  0.00  0.00    +0.000 A 
ATOM      6  C   UNL     1       2.488   5.616  18.311  0.00  0.00    +0.000 A 
ENDROOT
BRANCH   1   9
ATOM      7  O   UNL     1       2.100   9.674  17.297  0.00  0.00    +0.000 OA
ATOM      8  C   UNL     1       1.788   9.200  18.387  0.00  0.00    +0.000 C 
ATOM      9  N   UNL     1       2.140   7.944  18.866  0.00  0.00    +0.000 N 
ATOM     10  H   UNL     1       1.852   7.713  19.809  0.00  0.00    +0.000 HD
BRANCH   8  11
ATOM     11  C   UNL     1       0.907   9.995  19.340  0.00  0.00    +0.000 C 
BRANCH  11  12
ATOM     12  C   UNL     1      -0.415  10.401  18.748  0.00  0.00    +0.000 A 
ATOM     13  C   UNL     1      -0.962   9.728  17.644  0.00  0.00    +0.000 A 
ATOM     14  C   UNL     1      -2.220  10.087  17.145  0.00  0.00    +0.000 A 
ATOM     15  C   UNL     1      -2.937  11.129  17.732  0.00  0.00    +0.000 A 
ATOM     16  C   UNL     1      -2.389  11.827  18.806  0.00  0.00    +0.000 A 
ATOM     17  C   UNL     1      -1.138  11.463  19.298  0.00  0.00    +0.000 A 
ATOM     18  F   UNL     1      -0.629  12.137  20.341  0.00  0.00    +0.000 F 
ENDBRANCH  11  12
ENDBRANCH   8  11
ENDBRANCH   1   9
BRANCH   5  19
ATOM     19  C   UNL     1       2.865   3.124  17.939  0.00  0.00    +0.000 C 
BRANCH  19  20
ATOM     20  N   UNL     1       2.668   2.810  19.330  0.00  0.00    +0.000 N 
ATOM     21  C   UNL     1       1.453   2.740  19.948  0.00  0.00    +0.000 C 
ATOM     22  O   UNL     1       0.358   2.912  19.429  0.00  0.00    +0.000 OA
ATOM     23  C   UNL     1       1.678   2.418  21.416  0.00  0.00    +0.000 C 
ATOM     24  N   UNL     1       3.111   2.357  21.458  0.00  0.00    +0.000 N 
ATOM     25  C   UNL     1       3.675   2.600  20.225  0.00  0.00    +0.000 C 
ATOM     26  O   UNL     1       4.874   2.631  20.020  0.00  0.00    +0.000 OA
ATOM     27  H   UNL     1       3.685   2.166  22.270  0.00  0.00    +0.000 HD
ENDBRANCH  19  20
ENDBRANCH   5  19
TORSDOF 5
ENDMDL
MODEL 6
REMARK VINA RESULT:      -8.1      5.094      7.943
REMARK  Name = 
REMARK  5 active torsions:
REMARK  status: ('A' for Active; 'I' for Inactive)
REMARK    1  A    between atoms: C_2  and  C_3
REMARK    2  A    between atoms: C_3  and  C_4
REMARK    3  A    between atoms: N_11  and  C_12
REMARK    4  A    between atoms: C_16  and  C_17
REMARK    5  A    between atoms: C_17  and  N_18
REMARK                            x       y       z     vdW  Elec       q    Type
REMARK                         _______ _______ _______ _____ _____    ______ ____
ROOT
ATOM      1  C   UNL     1       2.770   7.096  18.166  0.00  0.00    +0.000 A 
ATOM      2  C   UNL     1       3.941   7.410  17.474  0.00  0.00    +0.000 A 
ATOM      3  C   UNL     1       4.678   6.415  16.826  0.00  0.00    +0.000 A 
ATOM      4  C   UNL     1       4.277   5.085  16.897  0.00  0.00    +0.000 A 
ATOM      5  C   UNL     1       3.142   4.733  17.637  0.00  0.00    +0.000 A 
ATOM      6  C   UNL     1       2.369   5.751  18.229  0.00  0.00    +0.000 A 
ENDROOT
BRANCH   1   9
ATOM      7  O   UNL     1       2.106   9.882  17.360  0.00  0.00    +0.000 OA
ATOM      8  C   UNL     1       1.682   9.352  18.384  0.00  0.00    +0.000 C 
ATOM      9  N   UNL     1       1.965   8.062  18.818  0.00  0.00    +0.000 N 
ATOM     10  H   UNL     1       1.583   7.783  19.714  0.00  0.00    +0.000 HD
BRANCH   8  11
ATOM     11  C   UNL     1       0.725  10.109  19.295  0.00  0.00    +0.000 C 
BRANCH  11  12
ATOM     12  C   UNL     1      -0.603  10.416  18.657  0.00  0.00    +0.000 A 
ATOM     13  C   UNL     1      -1.063   9.702  17.540  0.00  0.00    +0.000 A 
ATOM     14  C   UNL     1      -2.326   9.967  16.998  0.00  0.00    +0.000 A 
ATOM     15  C   UNL     1      -3.136  10.956  17.556  0.00  0.00    +0.000 A 
ATOM     16  C   UNL     1      -2.676  11.695  18.644  0.00  0.00    +0.000 A 
ATOM     17  C   UNL     1      -1.419  11.424  19.179  0.00  0.00    +0.000 A 
ATOM     18  F   UNL     1      -0.994  12.136  20.234  0.00  0.00    +0.000 F 
ENDBRANCH  11  12
ENDBRANCH   8  11
ENDBRANCH   1   9
BRANCH   5  19
ATOM     19  C   UNL     1       2.794   3.274  17.821  0.00  0.00    +0.000 C 
BRANCH  19  20
ATOM     20  N   UNL     1       2.550   2.921  19.195  0.00  0.00    +0.000 N 
ATOM     21  C   UNL     1       3.521   2.747  20.138  0.00  0.00    +0.000 C 
ATOM     22  O   UNL     1       4.727   2.876  19.978  0.00  0.00    +0.000 OA
ATOM     23  C   UNL     1       2.856   2.349  21.446  0.00  0.00    +0.000 C 
ATOM     24  N   UNL     1       1.478   2.328  21.047  0.00  0.00    +0.000 N 
ATOM     25  C   UNL     1       1.319   2.657  19.718  0.00  0.00    +0.000 C 
ATOM     26  O   UNL     1       0.245   2.676  19.147  0.00  0.00    +0.000 OA
ATOM     27  H   UNL     1       0.683   2.101  21.631  0.00  0.00    +0.000 HD
ENDBRANCH  19  20
ENDBRANCH   5  19
TORSDOF 5
ENDMDL
MODEL 7
REMARK VINA RESULT:      -8.1      5.108      9.216
REMARK  Name = 
REMARK  5 active torsions:
REMARK  status: ('A' for Active; 'I' for Inactive)
REMARK    1  A    between atoms: C_2  and  C_3
REMARK    2  A    between atoms: C_3  and  C_4
REMARK    3  A    between atoms: N_11  and  C_12
REMARK    4  A    between atoms: C_16  and  C_17
REMARK    5  A    between atoms: C_17  and  N_18
REMARK                            x       y       z     vdW  Elec       q    Type
REMARK                         _______ _______ _______ _____ _____    ______ ____
ROOT
ATOM      1  C   UNL     1       2.656   5.478  19.346  0.00  0.00    +0.000 A 
ATOM      2  C   UNL     1       1.774   4.899  18.432  0.00  0.00    +0.000 A 
ATOM      3  C   UNL     1       2.236   4.025  17.446  0.00  0.00    +0.000 A 
ATOM      4  C   UNL     1       3.596   3.750  17.333  0.00  0.00    +0.000 A 
ATOM      5  C   UNL     1       4.511   4.366  18.194  0.00  0.00    +0.000 A 
ATOM      6  C   UNL     1       4.026   5.192  19.228  0.00  0.00    +0.000 A 
ENDROOT
BRANCH   1   9
ATOM      7  O   UNL     1       1.866   8.344  19.229  0.00  0.00    +0.000 OA
ATOM      8  C   UNL     1       1.877   7.684  20.266  0.00  0.00    +0.000 C 
ATOM      9  N   UNL     1       2.246   6.349  20.386  0.00  0.00    +0.000 N 
ATOM     10  H   UNL     1       2.255   5.955  21.318  0.00  0.00    +0.000 HD
BRANCH   8  11
ATOM     11  C   UNL     1       1.425   8.315  21.576  0.00  0.00    +0.000 C 
BRANCH  11  12
ATOM     12  C   UNL     1       0.509   9.495  21.396  0.00  0.00    +0.000 A 
ATOM     13  C   UNL     1       0.228  10.018  20.124  0.00  0.00    +0.000 A 
ATOM     14  C   UNL     1      -0.671  11.081  19.976  0.00  0.00    +0.000 A 
ATOM     15  C   UNL     1      -1.287  11.641  21.096  0.00  0.00    +0.000 A 
ATOM     16  C   UNL     1      -0.989  11.152  22.366  0.00  0.00    +0.000 A 
ATOM     17  C   UNL     1      -0.094  10.094  22.505  0.00  0.00    +0.000 A 
ATOM     18  F   UNL     1       0.174   9.627  23.734  0.00  0.00    +0.000 F 
ENDBRANCH  11  12
ENDBRANCH   8  11
ENDBRANCH   1   9
BRANCH   5  19
ATOM     19  C   UNL     1       5.993   4.167  17.975  0.00  0.00    +0.000 C 
BRANCH  19  20
ATOM     20  N   UNL     1       6.722   5.406  17.896  0.00  0.00    +0.000 N 
ATOM     21  C   UNL     1       7.445   5.949  18.918  0.00  0.00    +0.000 C 
ATOM     22  O   UNL     1       7.600   5.476  20.036  0.00  0.00    +0.000 OA
ATOM     23  C   UNL     1       8.030   7.270  18.444  0.00  0.00    +0.000 C 
ATOM     24  N   UNL     1       7.512   7.325  17.108  0.00  0.00    +0.000 N 
ATOM     25  C   UNL     1       6.737   6.226  16.808  0.00  0.00    +0.000 C 
ATOM     26  O   UNL     1       6.167   6.066  15.744  0.00  0.00    +0.000 OA
ATOM     27  H   UNL     1       7.663   8.062  16.430  0.00  0.00    +0.000 HD
ENDBRANCH  19  20
ENDBRANCH   5  19
TORSDOF 5
ENDMDL
MODEL 8
REMARK VINA RESULT:      -8.0      4.916      8.754
REMARK  Name = 
REMARK  5 active torsions:
REMARK  status: ('A' for Active; 'I' for Inactive)
REMARK    1  A    between atoms: C_2  and  C_3
REMARK    2  A    between atoms: C_3  and  C_4
REMARK    3  A    between atoms: N_11  and  C_12
REMARK    4  A    between atoms: C_16  and  C_17
REMARK    5  A    between atoms: C_17  and  N_18
REMARK                            x       y       z     vdW  Elec       q    Type
REMARK                         _______ _______ _______ _____ _____    ______ ____
ROOT
ATOM      1  C   UNL     1       2.631   6.079  18.790  0.00  0.00    +0.000 A 
ATOM      2  C   UNL     1       1.778   5.244  18.066  0.00  0.00    +0.000 A 
ATOM      3  C   UNL     1       2.268   4.107  17.419  0.00  0.00    +0.000 A 
ATOM      4  C   UNL     1       3.628   3.811  17.453  0.00  0.00    +0.000 A 
ATOM      5  C   UNL     1       4.516   4.665  18.117  0.00  0.00    +0.000 A 
ATOM      6  C   UNL     1       4.001   5.771  18.823  0.00  0.00    +0.000 A 
ENDROOT
BRANCH   1   9
ATOM      7  O   UNL     1       1.754   8.723  17.748  0.00  0.00    +0.000 OA
ATOM      8  C   UNL     1       1.782   8.440  18.943  0.00  0.00    +0.000 C 
ATOM      9  N   UNL     1       2.191   7.230  19.490  0.00  0.00    +0.000 N 
ATOM     10  H   UNL     1       2.210   7.163  20.500  0.00  0.00    +0.000 HD
BRANCH   8  11
ATOM     11  C   UNL     1       1.307   9.451  19.978  0.00  0.00    +0.000 C 
BRANCH  11  12
ATOM     12  C   UNL     1       0.729  10.705  19.379  0.00  0.00    +0.000 A 
ATOM     13  C   UNL     1       1.517  11.847  19.166  0.00  0.00    +0.000 A 
ATOM     14  C   UNL     1       0.970  12.982  18.555  0.00  0.00    +0.000 A 
ATOM     15  C   UNL     1      -0.369  12.995  18.165  0.00  0.00    +0.000 A 
ATOM     16  C   UNL     1      -1.169  11.879  18.402  0.00  0.00    +0.000 A 
ATOM     17  C   UNL     1      -0.618  10.752  19.009  0.00  0.00    +0.000 A 
ATOM     18  F   UNL     1      -1.398   9.681  19.221  0.00  0.00    +0.000 F 
ENDBRANCH  11  12
ENDBRANCH   8  11
ENDBRANCH   1   9
BRANCH   5  19
ATOM     19  C   UNL     1       6.002   4.409  18.031  0.00  0.00    +0.000 C 
BRANCH  19  20
ATOM     20  N   UNL     1       6.788   5.612  18.118  0.00  0.00    +0.000 N 
ATOM     21  C   UNL     1       6.872   6.559  17.138  0.00  0.00    +0.000 C 
ATOM     22  O   UNL     1       6.296   6.547  16.059  0.00  0.00    +0.000 OA
ATOM     23  C   UNL     1       7.825   7.648  17.602  0.00  0.00    +0.000 C 
ATOM     24  N   UNL     1       8.208   7.136  18.887  0.00  0.00    +0.000 N 
ATOM     25  C   UNL     1       7.596   5.934  19.167  0.00  0.00    +0.000 C 
ATOM     26  O   UNL     1       7.789   5.295  20.185  0.00  0.00    +0.000 OA
ATOM     27  H   UNL     1       8.849   7.565  19.542  0.00  0.00    +0.000 HD
ENDBRANCH  19  20
ENDBRANCH   5  19
TORSDOF 5
ENDMDL
MODEL 9
REMARK VINA RESULT:      -8.0      5.871      7.937
REMARK  Name = 
REMARK  5 active torsions:
REMARK  status: ('A' for Active; 'I' for Inactive)
REMARK    1  A    between atoms: C_2  and  C_3
REMARK    2  A    between atoms: C_3  and  C_4
REMARK    3  A    between atoms: N_11  and  C_12
REMARK    4  A    between atoms: C_16  and  C_17
REMARK    5  A    between atoms: C_17  and  N_18
REMARK                            x       y       z     vdW  Elec       q    Type
REMARK                         _______ _______ _______ _____ _____    ______ ____
ROOT
ATOM      1  C   UNL     1       1.960   8.196  19.183  0.00  0.00    +0.000 A 
ATOM      2  C   UNL     1       1.615   7.908  20.505  0.00  0.00    +0.000 A 
ATOM      3  C   UNL     1       0.688   8.696  21.191  0.00  0.00    +0.000 A 
ATOM      4  C   UNL     1       0.124   9.811  20.578  0.00  0.00    +0.000 A 
ATOM      5  C   UNL     1       0.499  10.161  19.276  0.00  0.00    +0.000 A 
ATOM      6  C   UNL     1       1.383   9.320  18.570  0.00  0.00    +0.000 A 
ENDROOT
BRANCH   1   9
ATOM      7  O   UNL     1       2.155   5.243  18.882  0.00  0.00    +0.000 OA
ATOM      8  C   UNL     1       2.906   6.034  18.316  0.00  0.00    +0.000 C 
ATOM      9  N   UNL     1       2.872   7.420  18.426  0.00  0.00    +0.000 N 
ATOM     10  H   UNL     1       3.592   7.939  17.939  0.00  0.00    +0.000 HD
BRANCH   8  11
ATOM     11  C   UNL     1       3.978   5.521  17.364  0.00  0.00    +0.000 C 
BRANCH  11  12
ATOM     12  C   UNL     1       5.378   5.885  17.776  0.00  0.00    +0.000 A 
ATOM     13  C   UNL     1       6.112   6.869  17.093  0.00  0.00    +0.000 A 
ATOM     14  C   UNL     1       7.392   7.231  17.530  0.00  0.00    +0.000 A 
ATOM     15  C   UNL     1       7.957   6.607  18.642  0.00  0.00    +0.000 A 
ATOM     16  C   UNL     1       7.252   5.606  19.307  0.00  0.00    +0.000 A 
ATOM     17  C   UNL     1       5.979   5.252  18.868  0.00  0.00    +0.000 A 
ATOM     18  F   UNL     1       5.307   4.295  19.526  0.00  0.00    +0.000 F 
ENDBRANCH  11  12
ENDBRANCH   8  11
ENDBRANCH   1   9
BRANCH   5  19
ATOM     19  C   UNL     1      -0.015  11.447  18.671  0.00  0.00    +0.000 C 
BRANCH  19  20
ATOM     20  N   UNL     1      -1.452  11.497  18.591  0.00  0.00    +0.000 N 
ATOM     21  C   UNL     1      -2.209  10.773  17.715  0.00  0.00    +0.000 C 
ATOM     22  O   UNL     1      -1.800   9.970  16.887  0.00  0.00    +0.000 OA
ATOM     23  C   UNL     1      -3.669  11.136  17.926  0.00  0.00    +0.000 C 
ATOM     24  N   UNL     1      -3.551  12.114  18.970  0.00  0.00    +0.000 N 
ATOM     25  C   UNL     1      -2.240  12.319  19.340  0.00  0.00    +0.000 C 
ATOM     26  O   UNL     1      -1.890  13.123  20.184  0.00  0.00    +0.000 OA
ATOM     27  H   UNL     1      -4.308  12.621  19.411  0.00  0.00    +0.000 HD
ENDBRANCH  19  20
ENDBRANCH   5  19
TORSDOF 5
ENDMDL
