MODEL 1
REMARK VINA RESULT:      -9.2      0.000      0.000
REMARK  Name = 
REMARK  5 active torsions:
REMARK  status: ('A' for Active; 'I' for Inactive)
REMARK    1  A    between atoms: C_1  and  C_2
REMARK    2  A    between atoms: C_6  and  N_7
REMARK    3  A    between atoms: C_8  and  C_10
REMARK    4  A    between atoms: C_11  and  C_12
REMARK    5  A    between atoms: C_15  and  C_16
REMARK                            x       y       z     vdW  Elec       q    Type
REMARK                         _______ _______ _______ _____ _____    ______ ____
ROOT
ATOM      1  N   UNL     1       2.895   6.289  19.667  0.00  0.00    +0.000 N 
ATOM      2  C   UNL     1       2.460   5.060  19.206  0.00  0.00    +0.000 C 
ATOM      3  O   UNL     1       1.477   4.890  18.493  0.00  0.00    +0.000 OA
ATOM      4  H   UNL     1       3.796   6.348  20.116  0.00  0.00    +0.000 HD
ENDROOT
BRANCH   1  10
ATOM      5  C   UNL     1      -1.414  12.299  20.645  0.00  0.00    +0.000 C 
ATOM      6  C   UNL     1      -0.512  11.168  20.318  0.00  0.00    +0.000 A 
ATOM      7  C   UNL     1      -0.085  10.111  21.091  0.00  0.00    +0.000 A 
ATOM      8  C   UNL     1       0.750   9.292  20.287  0.00  0.00    +0.000 A 
ATOM      9  C   UNL     1       1.439   8.087  20.516  0.00  0.00    +0.000 A 
ATOM     10  C   UNL     1       2.200   7.510  19.493  0.00  0.00    +0.000 A 
ATOM     11  C   UNL     1       2.308   8.160  18.260  0.00  0.00    +0.000 A 
ATOM     12  C   UNL     1       1.613   9.351  17.999  0.00  0.00    +0.000 A 
ATOM     13  C   UNL     1       0.840   9.891  19.034  0.00  0.00    +0.000 A 
ATOM     14  N   UNL     1       0.056  11.022  19.075  0.00  0.00    +0.000 N 
ATOM     15  H   UNL     1      -0.083  11.650  18.295  0.00  0.00    +0.000 HD
ENDBRANCH   1  10
BRANCH   2  16
ATOM     16  C   UNL     1       3.259   3.927  19.627  0.00  0.00    +0.000 A 
ATOM     17  C   UNL     1       3.084   2.996  20.690  0.00  0.00    +0.000 A 
ATOM     18  C   UNL     1       2.010   2.890  21.707  0.00  0.00    +0.000 C 
ATOM     19  N   UNL     1       4.106   2.135  20.755  0.00  0.00    +0.000 NA
ATOM     20  O   UNL     1       4.976   2.502  19.750  0.00  0.00    +0.000 OA
ATOM     21  C   UNL     1       4.476   3.573  19.068  0.00  0.00    +0.000 A 
BRANCH  21  22
ATOM     22  C   UNL     1       5.298   4.048  17.952  0.00  0.00    +0.000 A 
ATOM     23  C   UNL     1       6.528   4.684  18.178  0.00  0.00    +0.000 A 
ATOM     24  C   UNL     1       7.340   5.089  17.116  0.00  0.00    +0.000 A 
ATOM     25  C   UNL     1       6.922   4.888  15.805  0.00  0.00    +0.000 A 
ATOM     26  C   UNL     1       5.691   4.286  15.557  0.00  0.00    +0.000 A 
ATOM     27  C   UNL     1       4.885   3.868  16.622  0.00  0.00    +0.000 A 
ENDBRANCH  21  22
ENDBRANCH   2  16
TORSDOF 3
ENDMDL
MODEL 2
REMARK VINA RESULT:      -9.1      0.433      1.051
REMARK  Name = 
REMARK  5 active torsions:
REMARK  status: ('A' for Active; 'I' for Inactive)
REMARK    1  A    between atoms: C_1  and  C_2
REMARK    2  A    between atoms: C_6  and  N_7
REMARK    3  A    between atoms: C_8  and  C_10
REMARK    4  A    between atoms: C_11  and  C_12
REMARK    5  A    between atoms: C_15  and  C_16
REMARK                            x       y       z     vdW  Elec       q    Type
REMARK                         _______ _______ _______ _____ _____    ______ ____
ROOT
ATOM      1  N   UNL     1       2.920   6.298  19.684  0.00  0.00    +0.000 N 
ATOM      2  C   UNL     1       2.452   5.045  19.331  0.00  0.00    +0.000 C 
ATOM      3  O   UNL     1       1.407   4.837  18.725  0.00  0.00    +0.000 OA
ATOM      4  H   UNL     1       3.860   6.381  20.041  0.00  0.00    +0.000 HD
ENDROOT
BRANCH   1  10
ATOM      5  C   UNL     1      -1.417  12.277  20.713  0.00  0.00    +0.000 C 
ATOM      6  C   UNL     1      -0.516  11.150  20.372  0.00  0.00    +0.000 A 
ATOM      7  C   UNL     1      -0.045  10.114  21.149  0.00  0.00    +0.000 A 
ATOM      8  C   UNL     1       0.767   9.288  20.329  0.00  0.00    +0.000 A 
ATOM      9  C   UNL     1       1.478   8.096  20.554  0.00  0.00    +0.000 A 
ATOM     10  C   UNL     1       2.205   7.506  19.513  0.00  0.00    +0.000 A 
ATOM     11  C   UNL     1       2.254   8.131  18.263  0.00  0.00    +0.000 A 
ATOM     12  C   UNL     1       1.534   9.309  18.007  0.00  0.00    +0.000 A 
ATOM     13  C   UNL     1       0.798   9.861  19.061  0.00  0.00    +0.000 A 
ATOM     14  N   UNL     1       0.003  10.984  19.110  0.00  0.00    +0.000 N 
ATOM     15  H   UNL     1      -0.176  11.594  18.324  0.00  0.00    +0.000 HD
ENDBRANCH   1  10
BRANCH   2  16
ATOM     16  C   UNL     1       3.295   3.936  19.733  0.00  0.00    +0.000 A 
ATOM     17  C   UNL     1       3.081   2.883  20.666  0.00  0.00    +0.000 A 
ATOM     18  C   UNL     1       1.909   2.583  21.525  0.00  0.00    +0.000 C 
ATOM     19  N   UNL     1       4.161   2.101  20.772  0.00  0.00    +0.000 NA
ATOM     20  O   UNL     1       5.106   2.643  19.926  0.00  0.00    +0.000 OA
ATOM     21  C   UNL     1       4.595   3.741  19.299  0.00  0.00    +0.000 A 
BRANCH  21  22
ATOM     22  C   UNL     1       5.496   4.399  18.348  0.00  0.00    +0.000 A 
ATOM     23  C   UNL     1       5.387   4.167  16.969  0.00  0.00    +0.000 A 
ATOM     24  C   UNL     1       6.207   4.834  16.055  0.00  0.00    +0.000 A 
ATOM     25  C   UNL     1       7.171   5.727  16.509  0.00  0.00    +0.000 A 
ATOM     26  C   UNL     1       7.317   5.951  17.876  0.00  0.00    +0.000 A 
ATOM     27  C   UNL     1       6.486   5.292  18.789  0.00  0.00    +0.000 A 
ENDBRANCH  21  22
ENDBRANCH   2  16
TORSDOF 3
ENDMDL
MODEL 3
REMARK VINA RESULT:      -9.0      1.420      1.611
REMARK  Name = 
REMARK  5 active torsions:
REMARK  status: ('A' for Active; 'I' for Inactive)
REMARK    1  A    between atoms: C_1  and  C_2
REMARK    2  A    between atoms: C_6  and  N_7
REMARK    3  A    between atoms: C_8  and  C_10
REMARK    4  A    between atoms: C_11  and  C_12
REMARK    5  A    between atoms: C_15  and  C_16
REMARK                            x       y       z     vdW  Elec       q    Type
REMARK                         _______ _______ _______ _____ _____    ______ ____
ROOT
ATOM      1  N   UNL     1       2.641   6.617  20.248  0.00  0.00    +0.000 N 
ATOM      2  C   UNL     1       2.478   5.623  19.300  0.00  0.00    +0.000 C 
ATOM      3  O   UNL     1       1.690   5.678  18.362  0.00  0.00    +0.000 OA
ATOM      4  H   UNL     1       3.417   6.553  20.889  0.00  0.00    +0.000 HD
ENDROOT
BRANCH   1  10
ATOM      5  C   UNL     1      -1.896  12.015  22.681  0.00  0.00    +0.000 C 
ATOM      6  C   UNL     1      -0.976  11.026  22.069  0.00  0.00    +0.000 A 
ATOM      7  C   UNL     1      -0.352   9.925  22.616  0.00  0.00    +0.000 A 
ATOM      8  C   UNL     1       0.403   9.298  21.591  0.00  0.00    +0.000 A 
ATOM      9  C   UNL     1       1.208   8.146  21.545  0.00  0.00    +0.000 A 
ATOM     10  C   UNL     1       1.838   7.777  20.350  0.00  0.00    +0.000 A 
ATOM     11  C   UNL     1       1.697   8.584  19.217  0.00  0.00    +0.000 A 
ATOM     12  C   UNL     1       0.881   9.727  19.231  0.00  0.00    +0.000 A 
ATOM     13  C   UNL     1       0.246  10.056  20.434  0.00  0.00    +0.000 A 
ATOM     14  N   UNL     1      -0.604  11.092  20.747  0.00  0.00    +0.000 N 
ATOM     15  H   UNL     1      -0.913  11.797  20.092  0.00  0.00    +0.000 HD
ENDBRANCH   1  10
BRANCH   2  16
ATOM     16  C   UNL     1       3.321   4.458  19.477  0.00  0.00    +0.000 A 
ATOM     17  C   UNL     1       3.034   3.157  19.976  0.00  0.00    +0.000 A 
ATOM     18  C   UNL     1       1.762   2.577  20.472  0.00  0.00    +0.000 C 
ATOM     19  N   UNL     1       4.136   2.400  20.022  0.00  0.00    +0.000 NA
ATOM     20  O   UNL     1       5.165   3.202  19.574  0.00  0.00    +0.000 OA
ATOM     21  C   UNL     1       4.686   4.435  19.243  0.00  0.00    +0.000 A 
BRANCH  21  22
ATOM     22  C   UNL     1       5.681   5.378  18.726  0.00  0.00    +0.000 A 
ATOM     23  C   UNL     1       6.941   5.505  19.329  0.00  0.00    +0.000 A 
ATOM     24  C   UNL     1       7.912   6.362  18.806  0.00  0.00    +0.000 A 
ATOM     25  C   UNL     1       7.628   7.132  17.683  0.00  0.00    +0.000 A 
ATOM     26  C   UNL     1       6.373   7.045  17.085  0.00  0.00    +0.000 A 
ATOM     27  C   UNL     1       5.406   6.175  17.602  0.00  0.00    +0.000 A 
ENDBRANCH  21  22
ENDBRANCH   2  16
TORSDOF 3
ENDMDL
MODEL 4
REMARK VINA RESULT:      -8.9      1.355      2.070
REMARK  Name = 
REMARK  5 active torsions:
REMARK  status: ('A' for Active; 'I' for Inactive)
REMARK    1  A    between atoms: C_1  and  C_2
REMARK    2  A    between atoms: C_6  and  N_7
REMARK    3  A    between atoms: C_8  and  C_10
REMARK    4  A    between atoms: C_11  and  C_12
REMARK    5  A    between atoms: C_15  and  C_16
REMARK                            x       y       z     vdW  Elec       q    Type
REMARK                         _______ _______ _______ _____ _____    ______ ____
ROOT
ATOM      1  N   UNL     1       2.687   6.525  20.110  0.00  0.00    +0.000 N 
ATOM      2  C   UNL     1       2.556   5.472  19.222  0.00  0.00    +0.000 C 
ATOM      3  O   UNL     1       1.766   5.445  18.285  0.00  0.00    +0.000 OA
ATOM      4  H   UNL     1       3.465   6.524  20.751  0.00  0.00    +0.000 HD
ENDROOT
BRANCH   1  10
ATOM      5  C   UNL     1      -0.758  12.954  18.554  0.00  0.00    +0.000 C 
ATOM      6  C   UNL     1      -0.173  11.661  18.980  0.00  0.00    +0.000 A 
ATOM      7  C   UNL     1       0.740  10.841  18.353  0.00  0.00    +0.000 A 
ATOM      8  C   UNL     1       0.986   9.731  19.203  0.00  0.00    +0.000 A 
ATOM      9  C   UNL     1       1.826   8.607  19.113  0.00  0.00    +0.000 A 
ATOM     10  C   UNL     1       1.846   7.662  20.146  0.00  0.00    +0.000 A 
ATOM     11  C   UNL     1       0.996   7.820  21.244  0.00  0.00    +0.000 A 
ATOM     12  C   UNL     1       0.165   8.945  21.369  0.00  0.00    +0.000 A 
ATOM     13  C   UNL     1       0.186   9.884  20.332  0.00  0.00    +0.000 A 
ATOM     14  N   UNL     1      -0.500  11.068  20.177  0.00  0.00    +0.000 N 
ATOM     15  H   UNL     1      -1.148  11.447  20.854  0.00  0.00    +0.000 HD
ENDBRANCH   1  10
BRANCH   2  16
ATOM     16  C   UNL     1       3.438   4.348  19.465  0.00  0.00    +0.000 A 
ATOM     17  C   UNL     1       3.191   3.066  20.032  0.00  0.00    +0.000 A 
ATOM     18  C   UNL     1       1.937   2.470  20.552  0.00  0.00    +0.000 C 
ATOM     19  N   UNL     1       4.319   2.351  20.124  0.00  0.00    +0.000 NA
ATOM     20  O   UNL     1       5.323   3.162  19.639  0.00  0.00    +0.000 OA
ATOM     21  C   UNL     1       4.804   4.359  19.240  0.00  0.00    +0.000 A 
BRANCH  21  22
ATOM     22  C   UNL     1       5.769   5.307  18.677  0.00  0.00    +0.000 A 
ATOM     23  C   UNL     1       5.466   6.053  17.529  0.00  0.00    +0.000 A 
ATOM     24  C   UNL     1       6.360   6.998  17.021  0.00  0.00    +0.000 A 
ATOM     25  C   UNL     1       7.590   7.194  17.640  0.00  0.00    +0.000 A 
ATOM     26  C   UNL     1       7.926   6.443  18.764  0.00  0.00    +0.000 A 
ATOM     27  C   UNL     1       7.022   5.507  19.280  0.00  0.00    +0.000 A 
ENDBRANCH  21  22
ENDBRANCH   2  16
TORSDOF 3
ENDMDL
MODEL 5
REMARK VINA RESULT:      -8.2      1.875      3.793
REMARK  Name = 
REMARK  5 active torsions:
REMARK  status: ('A' for Active; 'I' for Inactive)
REMARK    1  A    between atoms: C_1  and  C_2
REMARK    2  A    between atoms: C_6  and  N_7
REMARK    3  A    between atoms: C_8  and  C_10
REMARK    4  A    between atoms: C_11  and  C_12
REMARK    5  A    between atoms: C_15  and  C_16
REMARK                            x       y       z     vdW  Elec       q    Type
REMARK                         _______ _______ _______ _____ _____    ______ ____
ROOT
ATOM      1  N   UNL     1       2.690   6.502  18.374  0.00  0.00    +0.000 N 
ATOM      2  C   UNL     1       3.928   6.442  17.760  0.00  0.00    +0.000 C 
ATOM      3  O   UNL     1       4.683   7.398  17.619  0.00  0.00    +0.000 OA
ATOM      4  H   UNL     1       2.209   5.640  18.581  0.00  0.00    +0.000 HD
ENDROOT
BRANCH   1  10
ATOM      5  C   UNL     1      -0.712  11.737  22.455  0.00  0.00    +0.000 C 
ATOM      6  C   UNL     1      -0.028  10.801  21.531  0.00  0.00    +0.000 A 
ATOM      7  C   UNL     1       0.533   9.563  21.762  0.00  0.00    +0.000 A 
ATOM      8  C   UNL     1       1.036   9.075  20.529  0.00  0.00    +0.000 A 
ATOM      9  C   UNL     1       1.676   7.882  20.145  0.00  0.00    +0.000 A 
ATOM     10  C   UNL     1       2.062   7.691  18.813  0.00  0.00    +0.000 A 
ATOM     11  C   UNL     1       1.848   8.708  17.878  0.00  0.00    +0.000 A 
ATOM     12  C   UNL     1       1.192   9.899  18.231  0.00  0.00    +0.000 A 
ATOM     13  C   UNL     1       0.796  10.050  19.565  0.00  0.00    +0.000 A 
ATOM     14  N   UNL     1       0.139  11.083  20.196  0.00  0.00    +0.000 N 
ATOM     15  H   UNL     1      -0.178  11.925  19.736  0.00  0.00    +0.000 HD
ENDBRANCH   1  10
BRANCH   2  16
ATOM     16  C   UNL     1       4.307   5.134  17.264  0.00  0.00    +0.000 A 
ATOM     17  C   UNL     1       5.140   4.746  16.177  0.00  0.00    +0.000 A 
ATOM     18  C   UNL     1       5.896   5.571  15.204  0.00  0.00    +0.000 C 
ATOM     19  N   UNL     1       5.167   3.416  16.037  0.00  0.00    +0.000 NA
ATOM     20  O   UNL     1       4.336   2.915  17.017  0.00  0.00    +0.000 OA
ATOM     21  C   UNL     1       3.818   3.936  17.757  0.00  0.00    +0.000 A 
BRANCH  21  22
ATOM     22  C   UNL     1       2.933   3.533  18.853  0.00  0.00    +0.000 A 
ATOM     23  C   UNL     1       3.411   3.431  20.169  0.00  0.00    +0.000 A 
ATOM     24  C   UNL     1       2.559   3.102  21.225  0.00  0.00    +0.000 A 
ATOM     25  C   UNL     1       1.215   2.840  20.979  0.00  0.00    +0.000 A 
ATOM     26  C   UNL     1       0.725   2.906  19.678  0.00  0.00    +0.000 A 
ATOM     27  C   UNL     1       1.577   3.250  18.622  0.00  0.00    +0.000 A 
ENDBRANCH  21  22
ENDBRANCH   2  16
TORSDOF 3
ENDMDL
MODEL 6
REMARK VINA RESULT:      -8.2      1.218      1.240
REMARK  Name = 
REMARK  5 active torsions:
REMARK  status: ('A' for Active; 'I' for Inactive)
REMARK    1  A    between atoms: C_1  and  C_2
REMARK    2  A    between atoms: C_6  and  N_7
REMARK    3  A    between atoms: C_8  and  C_10
REMARK    4  A    between atoms: C_11  and  C_12
REMARK    5  A    between atoms: C_15  and  C_16
REMARK                            x       y       z     vdW  Elec       q    Type
REMARK                         _______ _______ _______ _____ _____    ______ ____
ROOT
ATOM      1  N   UNL     1       2.717   5.883  18.913  0.00  0.00    +0.000 N 
ATOM      2  C   UNL     1       2.114   4.912  18.134  0.00  0.00    +0.000 C 
ATOM      3  O   UNL     1       1.133   5.099  17.422  0.00  0.00    +0.000 OA
ATOM      4  H   UNL     1       3.606   5.677  19.343  0.00  0.00    +0.000 HD
ENDROOT
BRANCH   1  10
ATOM      5  C   UNL     1      -0.375  12.046  21.759  0.00  0.00    +0.000 C 
ATOM      6  C   UNL     1       0.277  10.906  21.070  0.00  0.00    +0.000 A 
ATOM      7  C   UNL     1       0.619   9.655  21.536  0.00  0.00    +0.000 A 
ATOM      8  C   UNL     1       1.197   8.932  20.460  0.00  0.00    +0.000 A 
ATOM      9  C   UNL     1       1.700   7.625  20.328  0.00  0.00    +0.000 A 
ATOM     10  C   UNL     1       2.218   7.194  19.101  0.00  0.00    +0.000 A 
ATOM     11  C   UNL     1       2.272   8.082  18.023  0.00  0.00    +0.000 A 
ATOM     12  C   UNL     1       1.757   9.384  18.123  0.00  0.00    +0.000 A 
ATOM     13  C   UNL     1       1.223   9.778  19.355  0.00  0.00    +0.000 A 
ATOM     14  N   UNL     1       0.649  10.966  19.748  0.00  0.00    +0.000 N 
ATOM     15  H   UNL     1       0.518  11.765  19.143  0.00  0.00    +0.000 HD
ENDBRANCH   1  10
BRANCH   2  16
ATOM     16  C   UNL     1       2.723   3.599  18.205  0.00  0.00    +0.000 A 
ATOM     17  C   UNL     1       2.273   2.384  18.794  0.00  0.00    +0.000 A 
ATOM     18  C   UNL     1       1.018   2.077  19.522  0.00  0.00    +0.000 C 
ATOM     19  N   UNL     1       3.191   1.418  18.676  0.00  0.00    +0.000 NA
ATOM     20  O   UNL     1       4.265   1.992  18.028  0.00  0.00    +0.000 OA
ATOM     21  C   UNL     1       3.993   3.297  17.741  0.00  0.00    +0.000 A 
BRANCH  21  22
ATOM     22  C   UNL     1       5.049   4.017  17.025  0.00  0.00    +0.000 A 
ATOM     23  C   UNL     1       6.142   4.568  17.711  0.00  0.00    +0.000 A 
ATOM     24  C   UNL     1       7.179   5.208  17.028  0.00  0.00    +0.000 A 
ATOM     25  C   UNL     1       7.127   5.331  15.644  0.00  0.00    +0.000 A 
ATOM     26  C   UNL     1       6.038   4.818  14.944  0.00  0.00    +0.000 A 
ATOM     27  C   UNL     1       5.006   4.166  15.629  0.00  0.00    +0.000 A 
ENDBRANCH  21  22
ENDBRANCH   2  16
TORSDOF 3
ENDMDL
MODEL 7
REMARK VINA RESULT:      -8.1      1.782      1.992
REMARK  Name = 
REMARK  5 active torsions:
REMARK  status: ('A' for Active; 'I' for Inactive)
REMARK    1  A    between atoms: C_1  and  C_2
REMARK    2  A    between atoms: C_6  and  N_7
REMARK    3  A    between atoms: C_8  and  C_10
REMARK    4  A    between atoms: C_11  and  C_12
REMARK    5  A    between atoms: C_15  and  C_16
REMARK                            x       y       z     vdW  Elec       q    Type
REMARK                         _______ _______ _______ _____ _____    ______ ____
ROOT
ATOM      1  N   UNL     1       2.282   6.943  18.408  0.00  0.00    +0.000 N 
ATOM      2  C   UNL     1       2.518   5.864  19.241  0.00  0.00    +0.000 C 
ATOM      3  O   UNL     1       2.278   5.846  20.443  0.00  0.00    +0.000 OA
ATOM      4  H   UNL     1       2.365   6.813  17.412  0.00  0.00    +0.000 HD
ENDROOT
BRANCH   1  10
ATOM      5  C   UNL     1      -0.608  12.599  22.318  0.00  0.00    +0.000 C 
ATOM      6  C   UNL     1       0.017  11.580  21.441  0.00  0.00    +0.000 A 
ATOM      7  C   UNL     1       0.248  10.238  21.650  0.00  0.00    +0.000 A 
ATOM      8  C   UNL     1       0.852   9.711  20.480  0.00  0.00    +0.000 A 
ATOM      9  C   UNL     1       1.281   8.426  20.102  0.00  0.00    +0.000 A 
ATOM     10  C   UNL     1       1.854   8.220  18.842  0.00  0.00    +0.000 A 
ATOM     11  C   UNL     1       2.038   9.305  17.980  0.00  0.00    +0.000 A 
ATOM     12  C   UNL     1       1.598  10.594  18.324  0.00  0.00    +0.000 A 
ATOM     13  C   UNL     1       1.007  10.763  19.581  0.00  0.00    +0.000 A 
ATOM     14  N   UNL     1       0.483  11.884  20.184  0.00  0.00    +0.000 N 
ATOM     15  H   UNL     1       0.443  12.799  19.755  0.00  0.00    +0.000 HD
ENDBRANCH   1  10
BRANCH   2  16
ATOM     16  C   UNL     1       3.091   4.700  18.595  0.00  0.00    +0.000 A 
ATOM     17  C   UNL     1       2.532   3.430  18.278  0.00  0.00    +0.000 A 
ATOM     18  C   UNL     1       1.168   2.896  18.509  0.00  0.00    +0.000 C 
ATOM     19  N   UNL     1       3.445   2.621  17.728  0.00  0.00    +0.000 NA
ATOM     20  O   UNL     1       4.620   3.342  17.697  0.00  0.00    +0.000 OA
ATOM     21  C   UNL     1       4.417   4.588  18.211  0.00  0.00    +0.000 A 
BRANCH  21  22
ATOM     22  C   UNL     1       5.589   5.468  18.211  0.00  0.00    +0.000 A 
ATOM     23  C   UNL     1       6.644   5.269  19.115  0.00  0.00    +0.000 A 
ATOM     24  C   UNL     1       7.787   6.071  19.082  0.00  0.00    +0.000 A 
ATOM     25  C   UNL     1       7.884   7.107  18.159  0.00  0.00    +0.000 A 
ATOM     26  C   UNL     1       6.836   7.342  17.272  0.00  0.00    +0.000 A 
ATOM     27  C   UNL     1       5.697   6.529  17.297  0.00  0.00    +0.000 A 
ENDBRANCH  21  22
ENDBRANCH   2  16
TORSDOF 3
ENDMDL
MODEL 8
REMARK VINA RESULT:      -8.1      1.102      1.641
REMARK  Name = 
REMARK  5 active torsions:
REMARK  status: ('A' for Active; 'I' for Inactive)
REMARK    1  A    between atoms: C_1  and  C_2
REMARK    2  A    between atoms: C_6  and  N_7
REMARK    3  A    between atoms: C_8  and  C_10
REMARK    4  A    between atoms: C_11  and  C_12
REMARK    5  A    between atoms: C_15  and  C_16
REMARK                            x       y       z     vdW  Elec       q    Type
REMARK                         _______ _______ _______ _____ _____    ______ ____
ROOT
ATOM      1  N   UNL     1       2.521   6.499  20.095  0.00  0.00    +0.000 N 
ATOM      2  C   UNL     1       2.298   5.485  19.181  0.00  0.00    +0.000 C 
ATOM      3  O   UNL     1       1.496   5.544  18.256  0.00  0.00    +0.000 OA
ATOM      4  H   UNL     1       3.305   6.422  20.723  0.00  0.00    +0.000 HD
ENDROOT
BRANCH   1  10
ATOM      5  C   UNL     1      -0.509  13.176  18.727  0.00  0.00    +0.000 C 
ATOM      6  C   UNL     1      -0.002  11.840  19.120  0.00  0.00    +0.000 A 
ATOM      7  C   UNL     1       0.818  10.959  18.448  0.00  0.00    +0.000 A 
ATOM      8  C   UNL     1       1.021   9.829  19.281  0.00  0.00    +0.000 A 
ATOM      9  C   UNL     1       1.770   8.646  19.147  0.00  0.00    +0.000 A 
ATOM     10  C   UNL     1       1.769   7.695  20.174  0.00  0.00    +0.000 A 
ATOM     11  C   UNL     1       0.986   7.908  21.313  0.00  0.00    +0.000 A 
ATOM     12  C   UNL     1       0.247   9.091  21.481  0.00  0.00    +0.000 A 
ATOM     13  C   UNL     1       0.288  10.033  20.447  0.00  0.00    +0.000 A 
ATOM     14  N   UNL     1      -0.315  11.265  20.329  0.00  0.00    +0.000 N 
ATOM     15  H   UNL     1      -0.900  11.686  21.038  0.00  0.00    +0.000 HD
ENDBRANCH   1  10
BRANCH   2  16
ATOM     16  C   UNL     1       3.095   4.291  19.379  0.00  0.00    +0.000 A 
ATOM     17  C   UNL     1       3.083   3.315  20.415  0.00  0.00    +0.000 A 
ATOM     18  C   UNL     1       2.235   3.210  21.627  0.00  0.00    +0.000 C 
ATOM     19  N   UNL     1       4.042   2.400  20.231  0.00  0.00    +0.000 NA
ATOM     20  O   UNL     1       4.710   2.776  19.084  0.00  0.00    +0.000 OA
ATOM     21  C   UNL     1       4.148   3.906  18.566  0.00  0.00    +0.000 A 
BRANCH  21  22
ATOM     22  C   UNL     1       4.753   4.398  17.325  0.00  0.00    +0.000 A 
ATOM     23  C   UNL     1       4.844   5.772  17.060  0.00  0.00    +0.000 A 
ATOM     24  C   UNL     1       5.469   6.247  15.904  0.00  0.00    +0.000 A 
ATOM     25  C   UNL     1       5.990   5.351  14.978  0.00  0.00    +0.000 A 
ATOM     26  C   UNL     1       5.885   3.981  15.205  0.00  0.00    +0.000 A 
ATOM     27  C   UNL     1       5.271   3.507  16.371  0.00  0.00    +0.000 A 
ENDBRANCH  21  22
ENDBRANCH   2  16
TORSDOF 3
ENDMDL
MODEL 9
REMARK VINA RESULT:      -7.9      1.305      1.324
REMARK  Name = 
REMARK  5 active torsions:
REMARK  status: ('A' for Active; 'I' for Inactive)
REMARK    1  A    between atoms: C_1  and  C_2
REMARK    2  A    between atoms: C_6  and  N_7
REMARK    3  A    between atoms: C_8  and  C_10
REMARK    4  A    between atoms: C_11  and  C_12
REMARK    5  A    between atoms: C_15  and  C_16
REMARK                            x       y       z     vdW  Elec       q    Type
REMARK                         _______ _______ _______ _____ _____    ______ ____
ROOT
ATOM      1  N   UNL     1       2.058   6.080  18.829  0.00  0.00    +0.000 N 
ATOM      2  C   UNL     1       3.231   5.419  19.148  0.00  0.00    +0.000 C 
ATOM      3  O   UNL     1       4.200   5.941  19.688  0.00  0.00    +0.000 OA
ATOM      4  H   UNL     1       1.262   5.537  18.530  0.00  0.00    +0.000 HD
ENDROOT
BRANCH   1  10
ATOM      5  C   UNL     1       0.299  12.864  21.382  0.00  0.00    +0.000 C 
ATOM      6  C   UNL     1       0.708  11.586  20.751  0.00  0.00    +0.000 A 
ATOM      7  C   UNL     1       0.750  10.307  21.263  0.00  0.00    +0.000 A 
ATOM      8  C   UNL     1       1.192   9.439  20.232  0.00  0.00    +0.000 A 
ATOM      9  C   UNL     1       1.399   8.050  20.155  0.00  0.00    +0.000 A 
ATOM     10  C   UNL     1       1.853   7.473  18.962  0.00  0.00    +0.000 A 
ATOM     11  C   UNL     1       2.140   8.291  17.865  0.00  0.00    +0.000 A 
ATOM     12  C   UNL     1       1.920   9.676  17.909  0.00  0.00    +0.000 A 
ATOM     13  C   UNL     1       1.443  10.220  19.107  0.00  0.00    +0.000 A 
ATOM     14  N   UNL     1       1.131  11.518  19.445  0.00  0.00    +0.000 N 
ATOM     15  H   UNL     1       1.199  12.305  18.815  0.00  0.00    +0.000 HD
ENDBRANCH   1  10
BRANCH   2  16
ATOM     16  C   UNL     1       3.263   4.015  18.792  0.00  0.00    +0.000 A 
ATOM     17  C   UNL     1       2.559   2.896  19.319  0.00  0.00    +0.000 A 
ATOM     18  C   UNL     1       1.555   2.818  20.407  0.00  0.00    +0.000 C 
ATOM     19  N   UNL     1       2.943   1.759  18.728  0.00  0.00    +0.000 NA
ATOM     20  O   UNL     1       3.919   2.114  17.821  0.00  0.00    +0.000 OA
ATOM     21  C   UNL     1       4.116   3.462  17.851  0.00  0.00    +0.000 A 
BRANCH  21  22
ATOM     22  C   UNL     1       5.116   3.974  16.909  0.00  0.00    +0.000 A 
ATOM     23  C   UNL     1       6.383   4.381  17.350  0.00  0.00    +0.000 A 
ATOM     24  C   UNL     1       7.358   4.817  16.450  0.00  0.00    +0.000 A 
ATOM     25  C   UNL     1       7.071   4.879  15.091  0.00  0.00    +0.000 A 
ATOM     26  C   UNL     1       5.810   4.508  14.633  0.00  0.00    +0.000 A 
ATOM     27  C   UNL     1       4.839   4.058  15.535  0.00  0.00    +0.000 A 
ENDBRANCH  21  22
ENDBRANCH   2  16
TORSDOF 3
ENDMDL
