MODEL 1
REMARK VINA RESULT:      -7.9      0.000      0.000
REMARK  Name = 
REMARK  8 active torsions:
REMARK  status: ('A' for Active; 'I' for Inactive)
REMARK    1  A    between atoms: C_2  and  C_17
REMARK    2  A    between atoms: N_3  and  C_4
REMARK    3  A    between atoms: C_8  and  S_9
REMARK    4  A    between atoms: S_9  and  N_12
REMARK    5  A    between atoms: N_12  and  C_13
REMARK    6  A    between atoms: C_20  and  O_21
REMARK    7  A    between atoms: O_21  and  C_22
REMARK    8  A    between atoms: C_22  and  C_23
REMARK                            x       y       z     vdW  Elec       q    Type
REMARK                         _______ _______ _______ _____ _____    ______ ____
ROOT
ATOM      1  O   UNL     1       1.862   8.591  18.671  0.00  0.00    +0.000 OA
ATOM      2  C   UNL     1       1.664   8.108  19.777  0.00  0.00    +0.000 C 
ATOM      3  N   UNL     1       1.982   6.831  20.207  0.00  0.00    +0.000 N 
ATOM      4  H   UNL     1       1.591   6.535  21.093  0.00  0.00    +0.000 HD
ENDROOT
BRANCH   3   5
ATOM      5  C   UNL     1       2.648   5.833  19.470  0.00  0.00    +0.000 A 
ATOM      6  C   UNL     1       2.022   4.683  18.977  0.00  0.00    +0.000 A 
ATOM      7  C   UNL     1       2.750   3.722  18.268  0.00  0.00    +0.000 A 
ATOM      8  C   UNL     1       4.112   3.904  18.044  0.00  0.00    +0.000 A 
ATOM      9  C   UNL     1       4.733   5.057  18.521  0.00  0.00    +0.000 A 
ATOM     10  C   UNL     1       4.012   6.026  19.227  0.00  0.00    +0.000 A 
BRANCH   9  11
ATOM     11  S   UNL     1       6.466   5.309  18.237  0.00  0.00    +0.000 S 
ATOM     12  O   UNL     1       6.624   6.635  17.683  0.00  0.00    +0.000 OA
ATOM     13  O   UNL     1       7.202   4.878  19.404  0.00  0.00    +0.000 OA
BRANCH  11  14
ATOM     14  N   UNL     1       6.795   4.225  16.980  0.00  0.00    +0.000 NA
ATOM     15  H   UNL     1       6.280   3.354  17.113  0.00  0.00    +0.000 HD
BRANCH  14  16
ATOM     16  C   UNL     1       6.872   4.766  15.626  0.00  0.00    +0.000 C 
ATOM     17  C   UNL     1       5.619   5.153  14.892  0.00  0.00    +0.000 C 
ATOM     18  C   UNL     1       6.397   3.947  14.458  0.00  0.00    +0.000 C 
ENDBRANCH  14  16
ENDBRANCH  11  14
ENDBRANCH   9  11
ENDBRANCH   3   5
BRANCH   2  19
ATOM     19  C   UNL     1       0.954   8.927  20.785  0.00  0.00    +0.000 A 
ATOM     20  C   UNL     1       0.119   8.363  21.748  0.00  0.00    +0.000 A 
ATOM     21  C   UNL     1      -0.536   9.197  22.652  0.00  0.00    +0.000 A 
ATOM     22  C   UNL     1      -0.342  10.570  22.561  0.00  0.00    +0.000 A 
ATOM     23  N   UNL     1       0.484  11.129  21.655  0.00  0.00    +0.000 NA
ATOM     24  C   UNL     1       1.123  10.303  20.791  0.00  0.00    +0.000 A 
BRANCH  22  25
ATOM     25  O   UNL     1      -0.900  11.469  23.423  0.00  0.00    +0.000 OA
BRANCH  25  26
ATOM     26  C   UNL     1      -1.455  12.635  22.805  0.00  0.00    +0.000 C 
BRANCH  26  27
ATOM     27  C   UNL     1      -2.977  12.655  22.912  0.00  0.00    +0.000 C 
ATOM     28  F   UNL     1      -3.598  12.255  21.784  0.00  0.00    +0.000 F 
ATOM     29  F   UNL     1      -3.398  11.854  23.918  0.00  0.00    +0.000 F 
ATOM     30  F   UNL     1      -3.412  13.908  23.194  0.00  0.00    +0.000 F 
ENDBRANCH  26  27
ENDBRANCH  25  26
ENDBRANCH  22  25
ENDBRANCH   2  19
TORSDOF 8
ENDMDL
MODEL 2
REMARK VINA RESULT:      -7.8      1.278      1.522
REMARK  Name = 
REMARK  8 active torsions:
REMARK  status: ('A' for Active; 'I' for Inactive)
REMARK    1  A    between atoms: C_2  and  C_17
REMARK    2  A    between atoms: N_3  and  C_4
REMARK    3  A    between atoms: C_8  and  S_9
REMARK    4  A    between atoms: S_9  and  N_12
REMARK    5  A    between atoms: N_12  and  C_13
REMARK    6  A    between atoms: C_20  and  O_21
REMARK    7  A    between atoms: O_21  and  C_22
REMARK    8  A    between atoms: C_22  and  C_23
REMARK                            x       y       z     vdW  Elec       q    Type
REMARK                         _______ _______ _______ _____ _____    ______ ____
ROOT
ATOM      1  O   UNL     1       2.022   8.477  17.618  0.00  0.00    +0.000 OA
ATOM      2  C   UNL     1       2.024   8.051  18.764  0.00  0.00    +0.000 C 
ATOM      3  N   UNL     1       2.534   6.845  19.212  0.00  0.00    +0.000 N 
ATOM      4  H   UNL     1       2.297   6.569  20.158  0.00  0.00    +0.000 HD
ENDROOT
BRANCH   3   5
ATOM      5  C   UNL     1       3.205   5.874  18.444  0.00  0.00    +0.000 A 
ATOM      6  C   UNL     1       2.623   4.671  18.031  0.00  0.00    +0.000 A 
ATOM      7  C   UNL     1       3.355   3.743  17.285  0.00  0.00    +0.000 A 
ATOM      8  C   UNL     1       4.679   4.010  16.944  0.00  0.00    +0.000 A 
ATOM      9  C   UNL     1       5.255   5.215  17.342  0.00  0.00    +0.000 A 
ATOM     10  C   UNL     1       4.528   6.152  18.084  0.00  0.00    +0.000 A 
BRANCH   9  11
ATOM     11  S   UNL     1       6.936   5.575  16.908  0.00  0.00    +0.000 S 
ATOM     12  O   UNL     1       7.251   6.881  17.445  0.00  0.00    +0.000 OA
ATOM     13  O   UNL     1       7.754   4.418  17.192  0.00  0.00    +0.000 OA
BRANCH  11  14
ATOM     14  N   UNL     1       6.853   5.758  15.228  0.00  0.00    +0.000 NA
ATOM     15  H   UNL     1       7.248   6.656  14.944  0.00  0.00    +0.000 HD
BRANCH  14  16
ATOM     16  C   UNL     1       7.165   4.592  14.406  0.00  0.00    +0.000 C 
ATOM     17  C   UNL     1       7.100   4.682  12.907  0.00  0.00    +0.000 C 
ATOM     18  C   UNL     1       6.073   3.885  13.654  0.00  0.00    +0.000 C 
ENDBRANCH  14  16
ENDBRANCH  11  14
ENDBRANCH   9  11
ENDBRANCH   3   5
BRANCH   2  19
ATOM     19  C   UNL     1       1.363   8.857  19.815  0.00  0.00    +0.000 A 
ATOM     20  C   UNL     1       0.695  10.047  19.531  0.00  0.00    +0.000 A 
ATOM     21  C   UNL     1       0.114  10.767  20.573  0.00  0.00    +0.000 A 
ATOM     22  C   UNL     1       0.225  10.278  21.870  0.00  0.00    +0.000 A 
ATOM     23  N   UNL     1       0.842   9.115  22.158  0.00  0.00    +0.000 NA
ATOM     24  C   UNL     1       1.391   8.421  21.130  0.00  0.00    +0.000 A 
BRANCH  22  25
ATOM     25  O   UNL     1      -0.344  10.881  22.954  0.00  0.00    +0.000 OA
BRANCH  25  26
ATOM     26  C   UNL     1      -0.809  12.215  22.729  0.00  0.00    +0.000 C 
BRANCH  26  27
ATOM     27  C   UNL     1      -2.284  12.364  23.090  0.00  0.00    +0.000 C 
ATOM     28  F   UNL     1      -3.083  12.532  22.018  0.00  0.00    +0.000 F 
ATOM     29  F   UNL     1      -2.725  11.276  23.764  0.00  0.00    +0.000 F 
ATOM     30  F   UNL     1      -2.464  13.433  23.904  0.00  0.00    +0.000 F 
ENDBRANCH  26  27
ENDBRANCH  25  26
ENDBRANCH  22  25
ENDBRANCH   2  19
TORSDOF 8
ENDMDL
MODEL 3
REMARK VINA RESULT:      -7.7      2.013      2.480
REMARK  Name = 
REMARK  8 active torsions:
REMARK  status: ('A' for Active; 'I' for Inactive)
REMARK    1  A    between atoms: C_2  and  C_17
REMARK    2  A    between atoms: N_3  and  C_4
REMARK    3  A    between atoms: C_8  and  S_9
REMARK    4  A    between atoms: S_9  and  N_12
REMARK    5  A    between atoms: N_12  and  C_13
REMARK    6  A    between atoms: C_20  and  O_21
REMARK    7  A    between atoms: O_21  and  C_22
REMARK    8  A    between atoms: C_22  and  C_23
REMARK                            x       y       z     vdW  Elec       q    Type
REMARK                         _______ _______ _______ _____ _____    ______ ____
ROOT
ATOM      1  O   UNL     1       1.826   8.359  17.532  0.00  0.00    +0.000 OA
ATOM      2  C   UNL     1       1.932   7.954  18.681  0.00  0.00    +0.000 C 
ATOM      3  N   UNL     1       2.460   6.746  19.102  0.00  0.00    +0.000 N 
ATOM      4  H   UNL     1       2.311   6.492  20.072  0.00  0.00    +0.000 HD
ENDROOT
BRANCH   3   5
ATOM      5  C   UNL     1       3.035   5.746  18.293  0.00  0.00    +0.000 A 
ATOM      6  C   UNL     1       2.477   4.477  18.111  0.00  0.00    +0.000 A 
ATOM      7  C   UNL     1       3.113   3.526  17.306  0.00  0.00    +0.000 A 
ATOM      8  C   UNL     1       4.314   3.838  16.674  0.00  0.00    +0.000 A 
ATOM      9  C   UNL     1       4.863   5.108  16.842  0.00  0.00    +0.000 A 
ATOM     10  C   UNL     1       4.231   6.067  17.642  0.00  0.00    +0.000 A 
BRANCH   9  11
ATOM     11  S   UNL     1       6.387   5.524  16.037  0.00  0.00    +0.000 S 
ATOM     12  O   UNL     1       7.427   4.717  16.636  0.00  0.00    +0.000 OA
ATOM     13  O   UNL     1       6.172   5.552  14.608  0.00  0.00    +0.000 OA
BRANCH  11  14
ATOM     14  N   UNL     1       6.658   7.111  16.557  0.00  0.00    +0.000 NA
ATOM     15  H   UNL     1       5.821   7.492  17.000  0.00  0.00    +0.000 HD
BRANCH  14  16
ATOM     16  C   UNL     1       7.946   7.408  17.177  0.00  0.00    +0.000 C 
ATOM     17  C   UNL     1       8.108   7.317  18.668  0.00  0.00    +0.000 C 
ATOM     18  C   UNL     1       8.121   8.657  17.994  0.00  0.00    +0.000 C 
ENDBRANCH  14  16
ENDBRANCH  11  14
ENDBRANCH   9  11
ENDBRANCH   3   5
BRANCH   2  19
ATOM     19  C   UNL     1       1.392   8.793  19.775  0.00  0.00    +0.000 A 
ATOM     20  C   UNL     1       0.937  10.092  19.560  0.00  0.00    +0.000 A 
ATOM     21  C   UNL     1       0.461  10.833  20.640  0.00  0.00    +0.000 A 
ATOM     22  C   UNL     1       0.462  10.254  21.904  0.00  0.00    +0.000 A 
ATOM     23  N   UNL     1       0.872   8.989  22.124  0.00  0.00    +0.000 NA
ATOM     24  C   UNL     1       1.320   8.278  21.059  0.00  0.00    +0.000 A 
BRANCH  22  25
ATOM     25  O   UNL     1      -0.022  10.876  23.019  0.00  0.00    +0.000 OA
BRANCH  25  26
ATOM     26  C   UNL     1      -1.440  10.789  23.192  0.00  0.00    +0.000 C 
BRANCH  26  27
ATOM     27  C   UNL     1      -2.100  12.162  23.105  0.00  0.00    +0.000 C 
ATOM     28  F   UNL     1      -2.514  12.479  21.862  0.00  0.00    +0.000 F 
ATOM     29  F   UNL     1      -3.175  12.229  23.926  0.00  0.00    +0.000 F 
ATOM     30  F   UNL     1      -1.235  13.126  23.505  0.00  0.00    +0.000 F 
ENDBRANCH  26  27
ENDBRANCH  25  26
ENDBRANCH  22  25
ENDBRANCH   2  19
TORSDOF 8
ENDMDL
MODEL 4
REMARK VINA RESULT:      -7.7      1.611      1.895
REMARK  Name = 
REMARK  8 active torsions:
REMARK  status: ('A' for Active; 'I' for Inactive)
REMARK    1  A    between atoms: C_2  and  C_17
REMARK    2  A    between atoms: N_3  and  C_4
REMARK    3  A    between atoms: C_8  and  S_9
REMARK    4  A    between atoms: S_9  and  N_12
REMARK    5  A    between atoms: N_12  and  C_13
REMARK    6  A    between atoms: C_20  and  O_21
REMARK    7  A    between atoms: O_21  and  C_22
REMARK    8  A    between atoms: C_22  and  C_23
REMARK                            x       y       z     vdW  Elec       q    Type
REMARK                         _______ _______ _______ _____ _____    ______ ____
ROOT
ATOM      1  O   UNL     1       1.733   8.352  17.619  0.00  0.00    +0.000 OA
ATOM      2  C   UNL     1       1.943   7.986  18.767  0.00  0.00    +0.000 C 
ATOM      3  N   UNL     1       2.597   6.838  19.178  0.00  0.00    +0.000 N 
ATOM      4  H   UNL     1       2.529   6.597  20.160  0.00  0.00    +0.000 HD
ENDROOT
BRANCH   3   5
ATOM      5  C   UNL     1       3.206   5.871  18.354  0.00  0.00    +0.000 A 
ATOM      6  C   UNL     1       2.609   4.653  18.015  0.00  0.00    +0.000 A 
ATOM      7  C   UNL     1       3.280   3.730  17.206  0.00  0.00    +0.000 A 
ATOM      8  C   UNL     1       4.555   4.019  16.727  0.00  0.00    +0.000 A 
ATOM      9  C   UNL     1       5.144   5.240  17.051  0.00  0.00    +0.000 A 
ATOM     10  C   UNL     1       4.478   6.171  17.856  0.00  0.00    +0.000 A 
BRANCH   9  11
ATOM     11  S   UNL     1       6.763   5.629  16.442  0.00  0.00    +0.000 S 
ATOM     12  O   UNL     1       7.053   6.993  16.824  0.00  0.00    +0.000 OA
ATOM     13  O   UNL     1       7.660   4.542  16.762  0.00  0.00    +0.000 OA
BRANCH  11  14
ATOM     14  N   UNL     1       6.534   5.642  14.766  0.00  0.00    +0.000 NA
ATOM     15  H   UNL     1       6.768   6.557  14.378  0.00  0.00    +0.000 HD
BRANCH  14  16
ATOM     16  C   UNL     1       6.958   4.461  14.018  0.00  0.00    +0.000 C 
ATOM     17  C   UNL     1       6.957   4.475  12.515  0.00  0.00    +0.000 C 
ATOM     18  C   UNL     1       5.949   3.648  13.256  0.00  0.00    +0.000 C 
ENDBRANCH  14  16
ENDBRANCH  11  14
ENDBRANCH   9  11
ENDBRANCH   3   5
BRANCH   2  19
ATOM     19  C   UNL     1       1.400   8.803  19.875  0.00  0.00    +0.000 A 
ATOM     20  C   UNL     1       1.294   8.316  21.177  0.00  0.00    +0.000 A 
ATOM     21  C   UNL     1       0.753   9.134  22.167  0.00  0.00    +0.000 A 
ATOM     22  C   UNL     1       0.328  10.412  21.824  0.00  0.00    +0.000 A 
ATOM     23  N   UNL     1       0.450  10.909  20.577  0.00  0.00    +0.000 NA
ATOM     24  C   UNL     1       0.990  10.104  19.628  0.00  0.00    +0.000 A 
BRANCH  22  25
ATOM     25  O   UNL     1      -0.174  11.307  22.724  0.00  0.00    +0.000 OA
BRANCH  25  26
ATOM     26  C   UNL     1      -1.159  12.204  22.200  0.00  0.00    +0.000 C 
BRANCH  26  27
ATOM     27  C   UNL     1      -0.909  13.639  22.653  0.00  0.00    +0.000 C 
ATOM     28  F   UNL     1      -0.908  13.785  23.993  0.00  0.00    +0.000 F 
ATOM     29  F   UNL     1       0.282  14.088  22.191  0.00  0.00    +0.000 F 
ATOM     30  F   UNL     1      -1.864  14.463  22.154  0.00  0.00    +0.000 F 
ENDBRANCH  26  27
ENDBRANCH  25  26
ENDBRANCH  22  25
ENDBRANCH   2  19
TORSDOF 8
ENDMDL
MODEL 5
REMARK VINA RESULT:      -7.6      1.046      1.207
REMARK  Name = 
REMARK  8 active torsions:
REMARK  status: ('A' for Active; 'I' for Inactive)
REMARK    1  A    between atoms: C_2  and  C_17
REMARK    2  A    between atoms: N_3  and  C_4
REMARK    3  A    between atoms: C_8  and  S_9
REMARK    4  A    between atoms: S_9  and  N_12
REMARK    5  A    between atoms: N_12  and  C_13
REMARK    6  A    between atoms: C_20  and  O_21
REMARK    7  A    between atoms: O_21  and  C_22
REMARK    8  A    between atoms: C_22  and  C_23
REMARK                            x       y       z     vdW  Elec       q    Type
REMARK                         _______ _______ _______ _____ _____    ______ ____
ROOT
ATOM      1  O   UNL     1       2.010   8.164  19.020  0.00  0.00    +0.000 OA
ATOM      2  C   UNL     1       1.656   7.914  20.163  0.00  0.00    +0.000 C 
ATOM      3  N   UNL     1       1.807   6.721  20.849  0.00  0.00    +0.000 N 
ATOM      4  H   UNL     1       1.301   6.625  21.721  0.00  0.00    +0.000 HD
ENDROOT
BRANCH   3   5
ATOM      5  C   UNL     1       2.448   5.555  20.386  0.00  0.00    +0.000 A 
ATOM      6  C   UNL     1       2.051   4.260  20.732  0.00  0.00    +0.000 A 
ATOM      7  C   UNL     1       2.747   3.147  20.250  0.00  0.00    +0.000 A 
ATOM      8  C   UNL     1       3.847   3.320  19.413  0.00  0.00    +0.000 A 
ATOM      9  C   UNL     1       4.234   4.610  19.055  0.00  0.00    +0.000 A 
ATOM     10  C   UNL     1       3.540   5.729  19.529  0.00  0.00    +0.000 A 
BRANCH   9  11
ATOM     11  S   UNL     1       5.626   4.849  17.983  0.00  0.00    +0.000 S 
ATOM     12  O   UNL     1       5.586   6.218  17.520  0.00  0.00    +0.000 OA
ATOM     13  O   UNL     1       6.803   4.291  18.609  0.00  0.00    +0.000 OA
BRANCH  11  14
ATOM     14  N   UNL     1       5.235   3.884  16.649  0.00  0.00    +0.000 NA
ATOM     15  H   UNL     1       4.279   4.066  16.341  0.00  0.00    +0.000 HD
BRANCH  14  16
ATOM     16  C   UNL     1       6.256   3.711  15.619  0.00  0.00    +0.000 C 
ATOM     17  C   UNL     1       6.926   4.909  15.006  0.00  0.00    +0.000 C 
ATOM     18  C   UNL     1       5.964   4.092  14.195  0.00  0.00    +0.000 C 
ENDBRANCH  14  16
ENDBRANCH  11  14
ENDBRANCH   9  11
ENDBRANCH   3   5
BRANCH   2  19
ATOM     19  C   UNL     1       0.925   8.957  20.917  0.00  0.00    +0.000 A 
ATOM     20  C   UNL     1       0.135   9.915  20.286  0.00  0.00    +0.000 A 
ATOM     21  C   UNL     1      -0.508  10.882  21.057  0.00  0.00    +0.000 A 
ATOM     22  C   UNL     1      -0.335  10.865  22.436  0.00  0.00    +0.000 A 
ATOM     23  N   UNL     1       0.402   9.928  23.065  0.00  0.00    +0.000 NA
ATOM     24  C   UNL     1       1.010   8.987  22.300  0.00  0.00    +0.000 A 
BRANCH  22  25
ATOM     25  O   UNL     1      -0.954  11.737  23.284  0.00  0.00    +0.000 OA
BRANCH  25  26
ATOM     26  C   UNL     1      -1.762  12.731  22.647  0.00  0.00    +0.000 C 
BRANCH  26  27
ATOM     27  C   UNL     1      -3.229  12.602  23.047  0.00  0.00    +0.000 C 
ATOM     28  F   UNL     1      -4.033  12.246  22.026  0.00  0.00    +0.000 F 
ATOM     29  F   UNL     1      -3.379  11.683  24.029  0.00  0.00    +0.000 F 
ATOM     30  F   UNL     1      -3.688  13.781  23.535  0.00  0.00    +0.000 F 
ENDBRANCH  26  27
ENDBRANCH  25  26
ENDBRANCH  22  25
ENDBRANCH   2  19
TORSDOF 8
ENDMDL
MODEL 6
REMARK VINA RESULT:      -7.6      1.278      1.589
REMARK  Name = 
REMARK  8 active torsions:
REMARK  status: ('A' for Active; 'I' for Inactive)
REMARK    1  A    between atoms: C_2  and  C_17
REMARK    2  A    between atoms: N_3  and  C_4
REMARK    3  A    between atoms: C_8  and  S_9
REMARK    4  A    between atoms: S_9  and  N_12
REMARK    5  A    between atoms: N_12  and  C_13
REMARK    6  A    between atoms: C_20  and  O_21
REMARK    7  A    between atoms: O_21  and  C_22
REMARK    8  A    between atoms: C_22  and  C_23
REMARK                            x       y       z     vdW  Elec       q    Type
REMARK                         _______ _______ _______ _____ _____    ______ ____
ROOT
ATOM      1  O   UNL     1       2.238   8.566  17.389  0.00  0.00    +0.000 OA
ATOM      2  C   UNL     1       2.130   8.152  18.535  0.00  0.00    +0.000 C 
ATOM      3  N   UNL     1       2.468   6.897  19.011  0.00  0.00    +0.000 N 
ATOM      4  H   UNL     1       2.151   6.658  19.942  0.00  0.00    +0.000 HD
ENDROOT
BRANCH   3   5
ATOM      5  C   UNL     1       3.058   5.846  18.280  0.00  0.00    +0.000 A 
ATOM      6  C   UNL     1       2.357   4.721  17.834  0.00  0.00    +0.000 A 
ATOM      7  C   UNL     1       3.012   3.706  17.129  0.00  0.00    +0.000 A 
ATOM      8  C   UNL     1       4.374   3.809  16.862  0.00  0.00    +0.000 A 
ATOM      9  C   UNL     1       5.070   4.937  17.291  0.00  0.00    +0.000 A 
ATOM     10  C   UNL     1       4.422   5.960  17.993  0.00  0.00    +0.000 A 
BRANCH   9  11
ATOM     11  S   UNL     1       6.804   5.089  16.951  0.00  0.00    +0.000 S 
ATOM     12  O   UNL     1       7.049   6.459  16.559  0.00  0.00    +0.000 OA
ATOM     13  O   UNL     1       7.550   4.456  18.015  0.00  0.00    +0.000 OA
BRANCH  11  14
ATOM     14  N   UNL     1       6.989   4.153  15.554  0.00  0.00    +0.000 NA
ATOM     15  H   UNL     1       6.786   3.171  15.749  0.00  0.00    +0.000 HD
BRANCH  14  16
ATOM     16  C   UNL     1       6.493   4.709  14.298  0.00  0.00    +0.000 C 
ATOM     17  C   UNL     1       6.340   3.831  13.088  0.00  0.00    +0.000 C 
ATOM     18  C   UNL     1       7.421   4.871  13.126  0.00  0.00    +0.000 C 
ENDBRANCH  14  16
ENDBRANCH  11  14
ENDBRANCH   9  11
ENDBRANCH   3   5
BRANCH   2  19
ATOM     19  C   UNL     1       1.517   9.039  19.548  0.00  0.00    +0.000 A 
ATOM     20  C   UNL     1       1.292   8.626  20.860  0.00  0.00    +0.000 A 
ATOM     21  C   UNL     1       0.690   9.507  21.757  0.00  0.00    +0.000 A 
ATOM     22  C   UNL     1       0.326  10.773  21.312  0.00  0.00    +0.000 A 
ATOM     23  N   UNL     1       0.562  11.198  20.055  0.00  0.00    +0.000 NA
ATOM     24  C   UNL     1       1.160  10.332  19.199  0.00  0.00    +0.000 A 
BRANCH  22  25
ATOM     25  O   UNL     1      -0.228  11.725  22.117  0.00  0.00    +0.000 OA
BRANCH  25  26
ATOM     26  C   UNL     1      -1.596  12.036  21.834  0.00  0.00    +0.000 C 
BRANCH  26  27
ATOM     27  C   UNL     1      -2.286  12.679  23.033  0.00  0.00    +0.000 C 
ATOM     28  F   UNL     1      -1.447  13.385  23.818  0.00  0.00    +0.000 F 
ATOM     29  F   UNL     1      -3.271  13.514  22.629  0.00  0.00    +0.000 F 
ATOM     30  F   UNL     1      -2.865  11.728  23.808  0.00  0.00    +0.000 F 
ENDBRANCH  26  27
ENDBRANCH  25  26
ENDBRANCH  22  25
ENDBRANCH   2  19
TORSDOF 8
ENDMDL
MODEL 7
REMARK VINA RESULT:      -7.6      1.498      1.734
REMARK  Name = 
REMARK  8 active torsions:
REMARK  status: ('A' for Active; 'I' for Inactive)
REMARK    1  A    between atoms: C_2  and  C_17
REMARK    2  A    between atoms: N_3  and  C_4
REMARK    3  A    between atoms: C_8  and  S_9
REMARK    4  A    between atoms: S_9  and  N_12
REMARK    5  A    between atoms: N_12  and  C_13
REMARK    6  A    between atoms: C_20  and  O_21
REMARK    7  A    between atoms: O_21  and  C_22
REMARK    8  A    between atoms: C_22  and  C_23
REMARK                            x       y       z     vdW  Elec       q    Type
REMARK                         _______ _______ _______ _____ _____    ______ ____
ROOT
ATOM      1  O   UNL     1       1.570   5.928  20.760  0.00  0.00    +0.000 OA
ATOM      2  C   UNL     1       1.853   6.919  20.103  0.00  0.00    +0.000 C 
ATOM      3  N   UNL     1       2.626   6.976  18.956  0.00  0.00    +0.000 N 
ATOM      4  H   UNL     1       2.909   7.895  18.637  0.00  0.00    +0.000 HD
ENDROOT
BRANCH   3   5
ATOM      5  C   UNL     1       3.209   5.889  18.275  0.00  0.00    +0.000 A 
ATOM      6  C   UNL     1       2.505   4.742  17.896  0.00  0.00    +0.000 A 
ATOM      7  C   UNL     1       3.153   3.692  17.238  0.00  0.00    +0.000 A 
ATOM      8  C   UNL     1       4.513   3.781  16.951  0.00  0.00    +0.000 A 
ATOM      9  C   UNL     1       5.212   4.931  17.314  0.00  0.00    +0.000 A 
ATOM     10  C   UNL     1       4.570   5.989  17.968  0.00  0.00    +0.000 A 
BRANCH   9  11
ATOM     11  S   UNL     1       6.941   5.066  16.947  0.00  0.00    +0.000 S 
ATOM     12  O   UNL     1       7.201   6.442  16.585  0.00  0.00    +0.000 OA
ATOM     13  O   UNL     1       7.696   4.396  17.983  0.00  0.00    +0.000 OA
BRANCH  11  14
ATOM     14  N   UNL     1       7.089   4.162  15.525  0.00  0.00    +0.000 NA
ATOM     15  H   UNL     1       6.831   3.188  15.689  0.00  0.00    +0.000 HD
BRANCH  14  16
ATOM     16  C   UNL     1       6.637   4.782  14.282  0.00  0.00    +0.000 C 
ATOM     17  C   UNL     1       6.438   3.948  13.047  0.00  0.00    +0.000 C 
ATOM     18  C   UNL     1       7.580   4.917  13.119  0.00  0.00    +0.000 C 
ENDBRANCH  14  16
ENDBRANCH  11  14
ENDBRANCH   9  11
ENDBRANCH   3   5
BRANCH   2  19
ATOM     19  C   UNL     1       1.388   8.239  20.585  0.00  0.00    +0.000 A 
ATOM     20  C   UNL     1       1.100   8.481  21.926  0.00  0.00    +0.000 A 
ATOM     21  C   UNL     1       0.645   9.743  22.307  0.00  0.00    +0.000 A 
ATOM     22  C   UNL     1       0.485  10.721  21.333  0.00  0.00    +0.000 A 
ATOM     23  N   UNL     1       0.786  10.511  20.036  0.00  0.00    +0.000 NA
ATOM     24  C   UNL     1       1.240   9.282  19.685  0.00  0.00    +0.000 A 
BRANCH  22  25
ATOM     25  O   UNL     1       0.088  11.998  21.604  0.00  0.00    +0.000 OA
BRANCH  25  26
ATOM     26  C   UNL     1      -1.314  12.241  21.454  0.00  0.00    +0.000 C 
BRANCH  26  27
ATOM     27  C   UNL     1      -2.002  12.416  22.804  0.00  0.00    +0.000 C 
ATOM     28  F   UNL     1      -1.323  13.216  23.651  0.00  0.00    +0.000 F 
ATOM     29  F   UNL     1      -3.240  12.940  22.648  0.00  0.00    +0.000 F 
ATOM     30  F   UNL     1      -2.154  11.214  23.414  0.00  0.00    +0.000 F 
ENDBRANCH  26  27
ENDBRANCH  25  26
ENDBRANCH  22  25
ENDBRANCH   2  19
TORSDOF 8
ENDMDL
MODEL 8
REMARK VINA RESULT:      -7.6      1.785      2.048
REMARK  Name = 
REMARK  8 active torsions:
REMARK  status: ('A' for Active; 'I' for Inactive)
REMARK    1  A    between atoms: C_2  and  C_17
REMARK    2  A    between atoms: N_3  and  C_4
REMARK    3  A    between atoms: C_8  and  S_9
REMARK    4  A    between atoms: S_9  and  N_12
REMARK    5  A    between atoms: N_12  and  C_13
REMARK    6  A    between atoms: C_20  and  O_21
REMARK    7  A    between atoms: O_21  and  C_22
REMARK    8  A    between atoms: C_22  and  C_23
REMARK                            x       y       z     vdW  Elec       q    Type
REMARK                         _______ _______ _______ _____ _____    ______ ____
ROOT
ATOM      1  O   UNL     1       2.253   6.248  20.672  0.00  0.00    +0.000 OA
ATOM      2  C   UNL     1       2.102   7.068  19.777  0.00  0.00    +0.000 C 
ATOM      3  N   UNL     1       2.552   6.980  18.471  0.00  0.00    +0.000 N 
ATOM      4  H   UNL     1       2.497   7.821  17.908  0.00  0.00    +0.000 HD
ENDROOT
BRANCH   3   5
ATOM      5  C   UNL     1       3.238   5.898  17.884  0.00  0.00    +0.000 A 
ATOM      6  C   UNL     1       2.699   4.614  17.755  0.00  0.00    +0.000 A 
ATOM      7  C   UNL     1       3.445   3.582  17.178  0.00  0.00    +0.000 A 
ATOM      8  C   UNL     1       4.738   3.825  16.722  0.00  0.00    +0.000 A 
ATOM      9  C   UNL     1       5.270   5.109  16.836  0.00  0.00    +0.000 A 
ATOM     10  C   UNL     1       4.529   6.149  17.408  0.00  0.00    +0.000 A 
BRANCH   9  11
ATOM     11  S   UNL     1       6.912   5.438  16.252  0.00  0.00    +0.000 S 
ATOM     12  O   UNL     1       7.227   6.807  16.599  0.00  0.00    +0.000 OA
ATOM     13  O   UNL     1       7.774   4.340  16.625  0.00  0.00    +0.000 OA
BRANCH  11  14
ATOM     14  N   UNL     1       6.720   5.406  14.571  0.00  0.00    +0.000 NA
ATOM     15  H   UNL     1       7.258   6.154  14.134  0.00  0.00    +0.000 HD
BRANCH  14  16
ATOM     16  C   UNL     1       6.722   4.100  13.918  0.00  0.00    +0.000 C 
ATOM     17  C   UNL     1       6.850   4.000  12.423  0.00  0.00    +0.000 C 
ATOM     18  C   UNL     1       5.545   3.670  13.086  0.00  0.00    +0.000 C 
ENDBRANCH  14  16
ENDBRANCH  11  14
ENDBRANCH   9  11
ENDBRANCH   3   5
BRANCH   2  19
ATOM     19  C   UNL     1       1.419   8.341  20.097  0.00  0.00    +0.000 A 
ATOM     20  C   UNL     1       0.906   8.612  21.364  0.00  0.00    +0.000 A 
ATOM     21  C   UNL     1       0.255   9.823  21.590  0.00  0.00    +0.000 A 
ATOM     22  C   UNL     1       0.130  10.724  20.539  0.00  0.00    +0.000 A 
ATOM     23  N   UNL     1       0.645  10.490  19.315  0.00  0.00    +0.000 NA
ATOM     24  C   UNL     1       1.287   9.312  19.117  0.00  0.00    +0.000 A 
BRANCH  22  25
ATOM     25  O   UNL     1      -0.449  11.954  20.664  0.00  0.00    +0.000 OA
BRANCH  25  26
ATOM     26  C   UNL     1      -0.086  12.676  21.845  0.00  0.00    +0.000 C 
BRANCH  26  27
ATOM     27  C   UNL     1      -1.269  12.822  22.799  0.00  0.00    +0.000 C 
ATOM     28  F   UNL     1      -1.547  11.694  23.482  0.00  0.00    +0.000 F 
ATOM     29  F   UNL     1      -1.038  13.803  23.702  0.00  0.00    +0.000 F 
ATOM     30  F   UNL     1      -2.386  13.169  22.113  0.00  0.00    +0.000 F 
ENDBRANCH  26  27
ENDBRANCH  25  26
ENDBRANCH  22  25
ENDBRANCH   2  19
TORSDOF 8
ENDMDL
MODEL 9
REMARK VINA RESULT:      -7.5      1.473      1.789
REMARK  Name = 
REMARK  8 active torsions:
REMARK  status: ('A' for Active; 'I' for Inactive)
REMARK    1  A    between atoms: C_2  and  C_17
REMARK    2  A    between atoms: N_3  and  C_4
REMARK    3  A    between atoms: C_8  and  S_9
REMARK    4  A    between atoms: S_9  and  N_12
REMARK    5  A    between atoms: N_12  and  C_13
REMARK    6  A    between atoms: C_20  and  O_21
REMARK    7  A    between atoms: O_21  and  C_22
REMARK    8  A    between atoms: C_22  and  C_23
REMARK                            x       y       z     vdW  Elec       q    Type
REMARK                         _______ _______ _______ _____ _____    ______ ____
ROOT
ATOM      1  O   UNL     1       1.677   6.220  20.761  0.00  0.00    +0.000 OA
ATOM      2  C   UNL     1       1.946   7.169  20.038  0.00  0.00    +0.000 C 
ATOM      3  N   UNL     1       2.717   7.160  18.889  0.00  0.00    +0.000 N 
ATOM      4  H   UNL     1       2.987   8.059  18.509  0.00  0.00    +0.000 HD
ENDROOT
BRANCH   3   5
ATOM      5  C   UNL     1       3.316   6.038  18.282  0.00  0.00    +0.000 A 
ATOM      6  C   UNL     1       2.622   4.869  17.954  0.00  0.00    +0.000 A 
ATOM      7  C   UNL     1       3.285   3.786  17.369  0.00  0.00    +0.000 A 
ATOM      8  C   UNL     1       4.650   3.863  17.104  0.00  0.00    +0.000 A 
ATOM      9  C   UNL     1       5.339   5.034  17.415  0.00  0.00    +0.000 A 
ATOM     10  C   UNL     1       4.683   6.124  17.997  0.00  0.00    +0.000 A 
BRANCH   9  11
ATOM     11  S   UNL     1       7.075   5.153  17.076  0.00  0.00    +0.000 S 
ATOM     12  O   UNL     1       7.355   6.529  16.729  0.00  0.00    +0.000 OA
ATOM     13  O   UNL     1       7.807   4.466  18.117  0.00  0.00    +0.000 OA
BRANCH  11  14
ATOM     14  N   UNL     1       7.235   4.260  15.648  0.00  0.00    +0.000 NA
ATOM     15  H   UNL     1       7.055   3.270  15.821  0.00  0.00    +0.000 HD
BRANCH  14  16
ATOM     16  C   UNL     1       6.692   4.842  14.424  0.00  0.00    +0.000 C 
ATOM     17  C   UNL     1       5.566   4.163  13.696  0.00  0.00    +0.000 C 
ATOM     18  C   UNL     1       6.941   4.179  13.098  0.00  0.00    +0.000 C 
ENDBRANCH  14  16
ENDBRANCH  11  14
ENDBRANCH   9  11
ENDBRANCH   3   5
BRANCH   2  19
ATOM     19  C   UNL     1       1.462   8.511  20.431  0.00  0.00    +0.000 A 
ATOM     20  C   UNL     1       1.000   9.438  19.499  0.00  0.00    +0.000 A 
ATOM     21  C   UNL     1       0.578  10.692  19.938  0.00  0.00    +0.000 A 
ATOM     22  C   UNL     1       0.638  10.983  21.296  0.00  0.00    +0.000 A 
ATOM     23  N   UNL     1       1.055  10.088  22.214  0.00  0.00    +0.000 NA
ATOM     24  C   UNL     1       1.449   8.868  21.770  0.00  0.00    +0.000 A 
BRANCH  22  25
ATOM     25  O   UNL     1       0.210  12.162  21.835  0.00  0.00    +0.000 OA
BRANCH  25  26
ATOM     26  C   UNL     1      -1.046  12.094  22.517  0.00  0.00    +0.000 C 
BRANCH  26  27
ATOM     27  C   UNL     1      -1.572  13.483  22.863  0.00  0.00    +0.000 C 
ATOM     28  F   UNL     1      -2.914  13.532  22.985  0.00  0.00    +0.000 F 
ATOM     29  F   UNL     1      -1.038  13.922  24.027  0.00  0.00    +0.000 F 
ATOM     30  F   UNL     1      -1.217  14.373  21.903  0.00  0.00    +0.000 F 
ENDBRANCH  26  27
ENDBRANCH  25  26
ENDBRANCH  22  25
ENDBRANCH   2  19
TORSDOF 8
ENDMDL
