MODEL 1
REMARK VINA RESULT:      -9.1      0.000      0.000
REMARK  Name = 
REMARK  8 active torsions:
REMARK  status: ('A' for Active; 'I' for Inactive)
REMARK    1  A    between atoms: C_1  and  C_2
REMARK    2  A    between atoms: C_5  and  C_6
REMARK    3  A    between atoms: C_6  and  C_7
REMARK    4  A    between atoms: C_11  and  C_12
REMARK    5  A    between atoms: C_12  and  C_13
REMARK    6  A    between atoms: C_13  and  C_14
REMARK    7  A    between atoms: N_18  and  C_19
REMARK    8  A    between atoms: C_25  and  C_26
REMARK                            x       y       z     vdW  Elec       q    Type
REMARK                         _______ _______ _______ _____ _____    ______ ____
ROOT
ATOM      1  C   UNL     1       2.266   7.753  18.720  0.00  0.00    +0.000 A 
ATOM      2  C   UNL     1       1.757   7.711  20.020  0.00  0.00    +0.000 A 
ATOM      3  C   UNL     1       1.806   6.526  20.750  0.00  0.00    +0.000 A 
ATOM      4  C   UNL     1       2.348   5.371  20.180  0.00  0.00    +0.000 A 
ATOM      5  C   UNL     1       2.821   5.344  18.855  0.00  0.00    +0.000 A 
ATOM      6  C   UNL     1       2.769   6.570  18.156  0.00  0.00    +0.000 A 
ENDROOT
BRANCH   5   7
ATOM      7  C   UNL     1       3.332   4.008  18.128  0.00  0.00    +0.000 C 
ATOM      8  C   UNL     1       2.257   3.326  17.231  0.00  0.00    +0.000 C 
ATOM      9  O   UNL     1       2.649   2.016  17.709  0.00  0.00    +0.000 OA
ATOM     10  C   UNL     1       3.279   2.639  18.864  0.00  0.00    +0.000 C 
BRANCH   7  11
ATOM     11  C   UNL     1       4.649   4.230  17.359  0.00  0.00    +0.000 C 
BRANCH  11  12
ATOM     12  C   UNL     1       5.725   4.834  18.195  0.00  0.00    +0.000 A 
ATOM     13  N   UNL     1       6.159   4.371  19.350  0.00  0.00    +0.000 NA
ATOM     14  N   UNL     1       7.198   5.163  19.775  0.00  0.00    +0.000 NA
ATOM     15  C   UNL     1       7.378   6.096  18.871  0.00  0.00    +0.000 A 
ATOM     16  N   UNL     1       6.474   5.937  17.865  0.00  0.00    +0.000 N 
ATOM     17  C   UNL     1       6.378   6.773  16.700  0.00  0.00    +0.000 C 
ENDBRANCH  11  12
ENDBRANCH   7  11
ENDBRANCH   5   7
BRANCH   1  18
ATOM     18  C   UNL     1       2.217   9.022  17.900  0.00  0.00    +0.000 C 
BRANCH  18  23
ATOM     19  C   UNL     1      -2.487  12.043  19.557  0.00  0.00    +0.000 C 
ATOM     20  C   UNL     1      -1.287  11.305  19.031  0.00  0.00    +0.000 A 
ATOM     21  C   UNL     1      -0.044  11.531  19.645  0.00  0.00    +0.000 A 
ATOM     22  C   UNL     1       1.094  10.825  19.254  0.00  0.00    +0.000 A 
ATOM     23  C   UNL     1       1.019   9.877  18.234  0.00  0.00    +0.000 A 
ATOM     24  C   UNL     1      -0.209   9.680  17.586  0.00  0.00    +0.000 A 
ATOM     25  C   UNL     1      -1.373  10.380  17.969  0.00  0.00    +0.000 A 
BRANCH  25  26
ATOM     26  C   UNL     1      -2.644  10.074  17.205  0.00  0.00    +0.000 C 
ATOM     27  F   UNL     1      -3.608   9.416  17.905  0.00  0.00    +0.000 F 
ATOM     28  F   UNL     1      -3.242  11.207  16.735  0.00  0.00    +0.000 F 
ATOM     29  F   UNL     1      -2.405   9.306  16.102  0.00  0.00    +0.000 F 
ENDBRANCH  25  26
ENDBRANCH  18  23
ENDBRANCH   1  18
TORSDOF 6
ENDMDL
MODEL 2
REMARK VINA RESULT:      -9.0      0.851      1.068
REMARK  Name = 
REMARK  8 active torsions:
REMARK  status: ('A' for Active; 'I' for Inactive)
REMARK    1  A    between atoms: C_1  and  C_2
REMARK    2  A    between atoms: C_5  and  C_6
REMARK    3  A    between atoms: C_6  and  C_7
REMARK    4  A    between atoms: C_11  and  C_12
REMARK    5  A    between atoms: C_12  and  C_13
REMARK    6  A    between atoms: C_13  and  C_14
REMARK    7  A    between atoms: N_18  and  C_19
REMARK    8  A    between atoms: C_25  and  C_26
REMARK                            x       y       z     vdW  Elec       q    Type
REMARK                         _______ _______ _______ _____ _____    ______ ____
ROOT
ATOM      1  C   UNL     1       2.002   8.253  18.894  0.00  0.00    +0.000 A 
ATOM      2  C   UNL     1       1.530   8.158  20.205  0.00  0.00    +0.000 A 
ATOM      3  C   UNL     1       1.601   6.946  20.885  0.00  0.00    +0.000 A 
ATOM      4  C   UNL     1       2.128   5.815  20.255  0.00  0.00    +0.000 A 
ATOM      5  C   UNL     1       2.562   5.842  18.917  0.00  0.00    +0.000 A 
ATOM      6  C   UNL     1       2.490   7.094  18.269  0.00  0.00    +0.000 A 
ENDROOT
BRANCH   5   7
ATOM      7  C   UNL     1       3.053   4.537  18.123  0.00  0.00    +0.000 C 
ATOM      8  C   UNL     1       1.898   3.722  17.470  0.00  0.00    +0.000 C 
ATOM      9  O   UNL     1       2.509   2.474  17.880  0.00  0.00    +0.000 OA
ATOM     10  C   UNL     1       3.288   3.196  18.876  0.00  0.00    +0.000 C 
BRANCH   7  11
ATOM     11  C   UNL     1       4.163   4.858  17.103  0.00  0.00    +0.000 C 
BRANCH  11  12
ATOM     12  C   UNL     1       5.520   4.941  17.713  0.00  0.00    +0.000 A 
ATOM     13  N   UNL     1       5.784   5.200  18.978  0.00  0.00    +0.000 NA
ATOM     14  N   UNL     1       7.143   5.125  19.164  0.00  0.00    +0.000 NA
ATOM     15  C   UNL     1       7.682   4.821  18.008  0.00  0.00    +0.000 A 
ATOM     16  N   UNL     1       6.708   4.703  17.065  0.00  0.00    +0.000 N 
ATOM     17  C   UNL     1       6.928   4.372  15.685  0.00  0.00    +0.000 C 
ENDBRANCH  11  12
ENDBRANCH   7  11
ENDBRANCH   5   7
BRANCH   1  18
ATOM     18  C   UNL     1       1.929   9.553  18.127  0.00  0.00    +0.000 C 
BRANCH  18  23
ATOM     19  C   UNL     1      -3.130  12.141  19.434  0.00  0.00    +0.000 C 
ATOM     20  C   UNL     1      -1.840  11.505  18.995  0.00  0.00    +0.000 A 
ATOM     21  C   UNL     1      -0.648  11.920  19.612  0.00  0.00    +0.000 A 
ATOM     22  C   UNL     1       0.572  11.320  19.304  0.00  0.00    +0.000 A 
ATOM     23  C   UNL     1       0.633  10.290  18.365  0.00  0.00    +0.000 A 
ATOM     24  C   UNL     1      -0.545   9.903  17.711  0.00  0.00    +0.000 A 
ATOM     25  C   UNL     1      -1.791  10.494  18.012  0.00  0.00    +0.000 A 
BRANCH  25  26
ATOM     26  C   UNL     1      -2.997   9.984  17.251  0.00  0.00    +0.000 C 
ATOM     27  F   UNL     1      -3.907  10.928  16.887  0.00  0.00    +0.000 F 
ATOM     28  F   UNL     1      -2.641   9.354  16.094  0.00  0.00    +0.000 F 
ATOM     29  F   UNL     1      -3.699   9.057  17.967  0.00  0.00    +0.000 F 
ENDBRANCH  25  26
ENDBRANCH  18  23
ENDBRANCH   1  18
TORSDOF 6
ENDMDL
MODEL 3
REMARK VINA RESULT:      -8.6      4.851      8.196
REMARK  Name = 
REMARK  8 active torsions:
REMARK  status: ('A' for Active; 'I' for Inactive)
REMARK    1  A    between atoms: C_1  and  C_2
REMARK    2  A    between atoms: C_5  and  C_6
REMARK    3  A    between atoms: C_6  and  C_7
REMARK    4  A    between atoms: C_11  and  C_12
REMARK    5  A    between atoms: C_12  and  C_13
REMARK    6  A    between atoms: C_13  and  C_14
REMARK    7  A    between atoms: N_18  and  C_19
REMARK    8  A    between atoms: C_25  and  C_26
REMARK                            x       y       z     vdW  Elec       q    Type
REMARK                         _______ _______ _______ _____ _____    ______ ____
ROOT
ATOM      1  C   UNL     1       2.086   8.126  18.841  0.00  0.00    +0.000 A 
ATOM      2  C   UNL     1       2.029   7.613  20.139  0.00  0.00    +0.000 A 
ATOM      3  C   UNL     1       1.195   8.202  21.085  0.00  0.00    +0.000 A 
ATOM      4  C   UNL     1       0.426   9.319  20.747  0.00  0.00    +0.000 A 
ATOM      5  C   UNL     1       0.491   9.911  19.472  0.00  0.00    +0.000 A 
ATOM      6  C   UNL     1       1.334   9.272  18.537  0.00  0.00    +0.000 A 
ENDROOT
BRANCH   5   7
ATOM      7  C   UNL     1      -0.279  11.265  19.089  0.00  0.00    +0.000 C 
ATOM      8  C   UNL     1      -1.377  11.679  20.112  0.00  0.00    +0.000 C 
ATOM      9  O   UNL     1      -2.278  12.047  19.039  0.00  0.00    +0.000 OA
ATOM     10  C   UNL     1      -1.494  11.235  18.119  0.00  0.00    +0.000 C 
BRANCH   7  11
ATOM     11  C   UNL     1       0.692  12.428  18.804  0.00  0.00    +0.000 C 
BRANCH  11  12
ATOM     12  C   UNL     1       0.964  13.276  19.999  0.00  0.00    +0.000 A 
ATOM     13  N   UNL     1       1.759  12.964  21.003  0.00  0.00    +0.000 NA
ATOM     14  N   UNL     1       1.798  14.026  21.874  0.00  0.00    +0.000 NA
ATOM     15  C   UNL     1       1.025  14.965  21.385  0.00  0.00    +0.000 A 
ATOM     16  N   UNL     1       0.473  14.540  20.215  0.00  0.00    +0.000 N 
ATOM     17  C   UNL     1      -0.423  15.308  19.396  0.00  0.00    +0.000 C 
ENDBRANCH  11  12
ENDBRANCH   7  11
ENDBRANCH   5   7
BRANCH   1  18
ATOM     18  C   UNL     1       2.989   7.514  17.796  0.00  0.00    +0.000 C 
BRANCH  18  23
ATOM     19  C   UNL     1       3.421   1.704  18.056  0.00  0.00    +0.000 C 
ATOM     20  C   UNL     1       3.312   3.204  18.096  0.00  0.00    +0.000 A 
ATOM     21  C   UNL     1       4.292   3.961  17.433  0.00  0.00    +0.000 A 
ATOM     22  C   UNL     1       4.211   5.352  17.369  0.00  0.00    +0.000 A 
ATOM     23  C   UNL     1       3.148   6.023  17.974  0.00  0.00    +0.000 A 
ATOM     24  C   UNL     1       2.192   5.277  18.678  0.00  0.00    +0.000 A 
ATOM     25  C   UNL     1       2.254   3.869  18.749  0.00  0.00    +0.000 A 
BRANCH  25  26
ATOM     26  C   UNL     1       1.157   3.170  19.526  0.00  0.00    +0.000 C 
ATOM     27  F   UNL     1       1.576   2.280  20.465  0.00  0.00    +0.000 F 
ATOM     28  F   UNL     1       0.360   4.056  20.191  0.00  0.00    +0.000 F 
ATOM     29  F   UNL     1       0.317   2.471  18.708  0.00  0.00    +0.000 F 
ENDBRANCH  25  26
ENDBRANCH  18  23
ENDBRANCH   1  18
TORSDOF 6
ENDMDL
MODEL 4
REMARK VINA RESULT:      -8.5      1.162      1.512
REMARK  Name = 
REMARK  8 active torsions:
REMARK  status: ('A' for Active; 'I' for Inactive)
REMARK    1  A    between atoms: C_1  and  C_2
REMARK    2  A    between atoms: C_5  and  C_6
REMARK    3  A    between atoms: C_6  and  C_7
REMARK    4  A    between atoms: C_11  and  C_12
REMARK    5  A    between atoms: C_12  and  C_13
REMARK    6  A    between atoms: C_13  and  C_14
REMARK    7  A    between atoms: N_18  and  C_19
REMARK    8  A    between atoms: C_25  and  C_26
REMARK                            x       y       z     vdW  Elec       q    Type
REMARK                         _______ _______ _______ _____ _____    ______ ____
ROOT
ATOM      1  C   UNL     1       1.637   9.034  19.079  0.00  0.00    +0.000 A 
ATOM      2  C   UNL     1       1.107   8.846  20.357  0.00  0.00    +0.000 A 
ATOM      3  C   UNL     1       1.303   7.639  21.022  0.00  0.00    +0.000 A 
ATOM      4  C   UNL     1       2.015   6.605  20.408  0.00  0.00    +0.000 A 
ATOM      5  C   UNL     1       2.518   6.722  19.099  0.00  0.00    +0.000 A 
ATOM      6  C   UNL     1       2.314   7.968  18.468  0.00  0.00    +0.000 A 
ENDROOT
BRANCH   5   7
ATOM      7  C   UNL     1       3.228   5.514  18.317  0.00  0.00    +0.000 C 
ATOM      8  C   UNL     1       2.232   4.500  17.681  0.00  0.00    +0.000 C 
ATOM      9  O   UNL     1       3.055   3.385  18.101  0.00  0.00    +0.000 OA
ATOM     10  C   UNL     1       3.699   4.246  19.083  0.00  0.00    +0.000 C 
BRANCH   7  11
ATOM     11  C   UNL     1       4.258   6.013  17.284  0.00  0.00    +0.000 C 
BRANCH  11  12
ATOM     12  C   UNL     1       5.648   5.559  17.571  0.00  0.00    +0.000 A 
ATOM     13  N   UNL     1       6.404   5.968  18.571  0.00  0.00    +0.000 NA
ATOM     14  N   UNL     1       7.588   5.273  18.534  0.00  0.00    +0.000 NA
ATOM     15  C   UNL     1       7.533   4.453  17.512  0.00  0.00    +0.000 A 
ATOM     16  N   UNL     1       6.341   4.601  16.872  0.00  0.00    +0.000 N 
ATOM     17  C   UNL     1       5.927   3.861  15.712  0.00  0.00    +0.000 C 
ENDBRANCH  11  12
ENDBRANCH   7  11
ENDBRANCH   5   7
BRANCH   1  18
ATOM     18  C   UNL     1       1.431  10.331  18.329  0.00  0.00    +0.000 C 
BRANCH  18  23
ATOM     19  C   UNL     1      -3.877  12.354  19.644  0.00  0.00    +0.000 C 
ATOM     20  C   UNL     1      -2.524  11.866  19.204  0.00  0.00    +0.000 A 
ATOM     21  C   UNL     1      -1.388  12.368  19.861  0.00  0.00    +0.000 A 
ATOM     22  C   UNL     1      -0.110  11.904  19.552  0.00  0.00    +0.000 A 
ATOM     23  C   UNL     1       0.066  10.926  18.573  0.00  0.00    +0.000 A 
ATOM     24  C   UNL     1      -1.058  10.454  17.881  0.00  0.00    +0.000 A 
ATOM     25  C   UNL     1      -2.360  10.908  18.182  0.00  0.00    +0.000 A 
BRANCH  25  26
ATOM     26  C   UNL     1      -3.499  10.315  17.378  0.00  0.00    +0.000 C 
ATOM     27  F   UNL     1      -4.482   9.716  18.102  0.00  0.00    +0.000 F 
ATOM     28  F   UNL     1      -4.129  11.257  16.616  0.00  0.00    +0.000 F 
ATOM     29  F   UNL     1      -3.064   9.368  16.496  0.00  0.00    +0.000 F 
ENDBRANCH  25  26
ENDBRANCH  18  23
ENDBRANCH   1  18
TORSDOF 6
ENDMDL
MODEL 5
REMARK VINA RESULT:      -8.4      2.259      3.358
REMARK  Name = 
REMARK  8 active torsions:
REMARK  status: ('A' for Active; 'I' for Inactive)
REMARK    1  A    between atoms: C_1  and  C_2
REMARK    2  A    between atoms: C_5  and  C_6
REMARK    3  A    between atoms: C_6  and  C_7
REMARK    4  A    between atoms: C_11  and  C_12
REMARK    5  A    between atoms: C_12  and  C_13
REMARK    6  A    between atoms: C_13  and  C_14
REMARK    7  A    between atoms: N_18  and  C_19
REMARK    8  A    between atoms: C_25  and  C_26
REMARK                            x       y       z     vdW  Elec       q    Type
REMARK                         _______ _______ _______ _____ _____    ______ ____
ROOT
ATOM      1  C   UNL     1       1.276   9.659  19.279  0.00  0.00    +0.000 A 
ATOM      2  C   UNL     1       0.800   9.460  20.576  0.00  0.00    +0.000 A 
ATOM      3  C   UNL     1       1.072   8.268  21.243  0.00  0.00    +0.000 A 
ATOM      4  C   UNL     1       1.808   7.261  20.612  0.00  0.00    +0.000 A 
ATOM      5  C   UNL     1       2.261   7.389  19.286  0.00  0.00    +0.000 A 
ATOM      6  C   UNL     1       1.979   8.618  18.652  0.00  0.00    +0.000 A 
ENDROOT
BRANCH   5   7
ATOM      7  C   UNL     1       2.997   6.206  18.488  0.00  0.00    +0.000 C 
ATOM      8  C   UNL     1       4.162   5.541  19.278  0.00  0.00    +0.000 C 
ATOM      9  O   UNL     1       4.984   5.500  18.086  0.00  0.00    +0.000 OA
ATOM     10  C   UNL     1       4.141   6.524  17.485  0.00  0.00    +0.000 C 
BRANCH   7  11
ATOM     11  C   UNL     1       2.003   5.154  17.958  0.00  0.00    +0.000 C 
BRANCH  11  12
ATOM     12  C   UNL     1       1.790   4.017  18.898  0.00  0.00    +0.000 A 
ATOM     13  N   UNL     1       1.013   4.030  19.962  0.00  0.00    +0.000 NA
ATOM     14  N   UNL     1       1.031   2.779  20.530  0.00  0.00    +0.000 NA
ATOM     15  C   UNL     1       1.819   2.027  19.800  0.00  0.00    +0.000 A 
ATOM     16  N   UNL     1       2.325   2.759  18.770  0.00  0.00    +0.000 N 
ATOM     17  C   UNL     1       3.221   2.261  17.764  0.00  0.00    +0.000 C 
ENDBRANCH  11  12
ENDBRANCH   7  11
ENDBRANCH   5   7
BRANCH   1  18
ATOM     18  C   UNL     1       0.987  10.939  18.526  0.00  0.00    +0.000 C 
BRANCH  18  23
ATOM     19  C   UNL     1      -4.508  12.512  19.677  0.00  0.00    +0.000 C 
ATOM     20  C   UNL     1      -3.108  12.135  19.278  0.00  0.00    +0.000 A 
ATOM     21  C   UNL     1      -2.036  12.761  19.935  0.00  0.00    +0.000 A 
ATOM     22  C   UNL     1      -0.715  12.405  19.665  0.00  0.00    +0.000 A 
ATOM     23  C   UNL     1      -0.431  11.415  18.725  0.00  0.00    +0.000 A 
ATOM     24  C   UNL     1      -1.494  10.819  18.031  0.00  0.00    +0.000 A 
ATOM     25  C   UNL     1      -2.838  11.162  18.293  0.00  0.00    +0.000 A 
BRANCH  25  26
ATOM     26  C   UNL     1      -3.901  10.441  17.491  0.00  0.00    +0.000 C 
ATOM     27  F   UNL     1      -4.892   9.856  18.218  0.00  0.00    +0.000 F 
ATOM     28  F   UNL     1      -4.533  11.276  16.616  0.00  0.00    +0.000 F 
ATOM     29  F   UNL     1      -3.374   9.443  16.723  0.00  0.00    +0.000 F 
ENDBRANCH  25  26
ENDBRANCH  18  23
ENDBRANCH   1  18
TORSDOF 6
ENDMDL
MODEL 6
REMARK VINA RESULT:      -8.4      0.780      1.258
REMARK  Name = 
REMARK  8 active torsions:
REMARK  status: ('A' for Active; 'I' for Inactive)
REMARK    1  A    between atoms: C_1  and  C_2
REMARK    2  A    between atoms: C_5  and  C_6
REMARK    3  A    between atoms: C_6  and  C_7
REMARK    4  A    between atoms: C_11  and  C_12
REMARK    5  A    between atoms: C_12  and  C_13
REMARK    6  A    between atoms: C_13  and  C_14
REMARK    7  A    between atoms: N_18  and  C_19
REMARK    8  A    between atoms: C_25  and  C_26
REMARK                            x       y       z     vdW  Elec       q    Type
REMARK                         _______ _______ _______ _____ _____    ______ ____
ROOT
ATOM      1  C   UNL     1       2.218   7.594  18.792  0.00  0.00    +0.000 A 
ATOM      2  C   UNL     1       1.765   7.683  20.110  0.00  0.00    +0.000 A 
ATOM      3  C   UNL     1       1.784   6.559  20.930  0.00  0.00    +0.000 A 
ATOM      4  C   UNL     1       2.240   5.334  20.435  0.00  0.00    +0.000 A 
ATOM      5  C   UNL     1       2.651   5.177  19.098  0.00  0.00    +0.000 A 
ATOM      6  C   UNL     1       2.633   6.345  18.305  0.00  0.00    +0.000 A 
ENDROOT
BRANCH   5   7
ATOM      7  C   UNL     1       3.059   3.761  18.462  0.00  0.00    +0.000 C 
ATOM      8  C   UNL     1       2.484   3.521  17.035  0.00  0.00    +0.000 C 
ATOM      9  O   UNL     1       2.163   2.147  17.366  0.00  0.00    +0.000 OA
ATOM     10  C   UNL     1       2.231   2.485  18.780  0.00  0.00    +0.000 C 
BRANCH   7  11
ATOM     11  C   UNL     1       4.581   3.520  18.504  0.00  0.00    +0.000 C 
BRANCH  11  12
ATOM     12  C   UNL     1       5.346   4.418  17.593  0.00  0.00    +0.000 A 
ATOM     13  N   UNL     1       5.175   4.526  16.291  0.00  0.00    +0.000 NA
ATOM     14  N   UNL     1       6.020   5.501  15.820  0.00  0.00    +0.000 NA
ATOM     15  C   UNL     1       6.691   5.969  16.844  0.00  0.00    +0.000 A 
ATOM     16  N   UNL     1       6.310   5.318  17.977  0.00  0.00    +0.000 N 
ATOM     17  C   UNL     1       6.829   5.572  19.292  0.00  0.00    +0.000 C 
ENDBRANCH  11  12
ENDBRANCH   7  11
ENDBRANCH   5   7
BRANCH   1  18
ATOM     18  C   UNL     1       2.199   8.796  17.874  0.00  0.00    +0.000 C 
BRANCH  18  23
ATOM     19  C   UNL     1      -2.352  12.119  19.371  0.00  0.00    +0.000 C 
ATOM     20  C   UNL     1      -1.191  11.297  18.884  0.00  0.00    +0.000 A 
ATOM     21  C   UNL     1       0.069  11.510  19.468  0.00  0.00    +0.000 A 
ATOM     22  C   UNL     1       1.170  10.732  19.115  0.00  0.00    +0.000 A 
ATOM     23  C   UNL     1       1.042   9.721  18.162  0.00  0.00    +0.000 A 
ATOM     24  C   UNL     1      -0.200   9.534  17.541  0.00  0.00    +0.000 A 
ATOM     25  C   UNL     1      -1.329  10.308  17.888  0.00  0.00    +0.000 A 
BRANCH  25  26
ATOM     26  C   UNL     1      -2.622  10.005  17.159  0.00  0.00    +0.000 C 
ATOM     27  F   UNL     1      -3.557   9.327  17.877  0.00  0.00    +0.000 F 
ATOM     28  F   UNL     1      -3.243  11.142  16.730  0.00  0.00    +0.000 F 
ATOM     29  F   UNL     1      -2.413   9.260  16.034  0.00  0.00    +0.000 F 
ENDBRANCH  25  26
ENDBRANCH  18  23
ENDBRANCH   1  18
TORSDOF 6
ENDMDL
MODEL 7
REMARK VINA RESULT:      -8.4      4.925      8.467
REMARK  Name = 
REMARK  8 active torsions:
REMARK  status: ('A' for Active; 'I' for Inactive)
REMARK    1  A    between atoms: C_1  and  C_2
REMARK    2  A    between atoms: C_5  and  C_6
REMARK    3  A    between atoms: C_6  and  C_7
REMARK    4  A    between atoms: C_11  and  C_12
REMARK    5  A    between atoms: C_12  and  C_13
REMARK    6  A    between atoms: C_13  and  C_14
REMARK    7  A    between atoms: N_18  and  C_19
REMARK    8  A    between atoms: C_25  and  C_26
REMARK                            x       y       z     vdW  Elec       q    Type
REMARK                         _______ _______ _______ _____ _____    ______ ____
ROOT
ATOM      1  C   UNL     1       1.735   8.473  19.018  0.00  0.00    +0.000 A 
ATOM      2  C   UNL     1       1.819   8.005  20.331  0.00  0.00    +0.000 A 
ATOM      3  C   UNL     1       0.921   8.462  21.292  0.00  0.00    +0.000 A 
ATOM      4  C   UNL     1      -0.056   9.403  20.951  0.00  0.00    +0.000 A 
ATOM      5  C   UNL     1      -0.145   9.949  19.658  0.00  0.00    +0.000 A 
ATOM      6  C   UNL     1       0.772   9.446  18.710  0.00  0.00    +0.000 A 
ENDROOT
BRANCH   5   7
ATOM      7  C   UNL     1      -1.169  11.121  19.265  0.00  0.00    +0.000 C 
ATOM      8  C   UNL     1      -0.620  12.106  18.192  0.00  0.00    +0.000 C 
ATOM      9  O   UNL     1      -1.167  13.238  18.912  0.00  0.00    +0.000 OA
ATOM     10  C   UNL     1      -1.244  12.421  20.114  0.00  0.00    +0.000 C 
BRANCH   7  11
ATOM     11  C   UNL     1      -2.556  10.576  18.872  0.00  0.00    +0.000 C 
BRANCH  11  12
ATOM     12  C   UNL     1      -2.768  10.511  17.398  0.00  0.00    +0.000 A 
ATOM     13  N   UNL     1      -2.031   9.836  16.540  0.00  0.00    +0.000 NA
ATOM     14  N   UNL     1      -2.582   9.973  15.289  0.00  0.00    +0.000 NA
ATOM     15  C   UNL     1      -3.646  10.730  15.408  0.00  0.00    +0.000 A 
ATOM     16  N   UNL     1      -3.801  11.100  16.709  0.00  0.00    +0.000 N 
ATOM     17  C   UNL     1      -4.862  11.925  17.214  0.00  0.00    +0.000 C 
ENDBRANCH  11  12
ENDBRANCH   7  11
ENDBRANCH   5   7
BRANCH   1  18
ATOM     18  C   UNL     1       2.703   8.002  17.956  0.00  0.00    +0.000 C 
BRANCH  18  23
ATOM     19  C   UNL     1       3.532   2.231  17.841  0.00  0.00    +0.000 C 
ATOM     20  C   UNL     1       3.325   3.715  17.978  0.00  0.00    +0.000 A 
ATOM     21  C   UNL     1       4.223   4.576  17.324  0.00  0.00    +0.000 A 
ATOM     22  C   UNL     1       4.046   5.958  17.350  0.00  0.00    +0.000 A 
ATOM     23  C   UNL     1       2.968   6.518  18.036  0.00  0.00    +0.000 A 
ATOM     24  C   UNL     1       2.095   5.668  18.729  0.00  0.00    +0.000 A 
ATOM     25  C   UNL     1       2.254   4.265  18.711  0.00  0.00    +0.000 A 
BRANCH  25  26
ATOM     26  C   UNL     1       1.241   3.448  19.486  0.00  0.00    +0.000 C 
ATOM     27  F   UNL     1       0.423   2.660  18.737  0.00  0.00    +0.000 F 
ATOM     28  F   UNL     1       1.840   2.609  20.380  0.00  0.00    +0.000 F 
ATOM     29  F   UNL     1       0.409   4.235  20.229  0.00  0.00    +0.000 F 
ENDBRANCH  25  26
ENDBRANCH  18  23
ENDBRANCH   1  18
TORSDOF 6
ENDMDL
MODEL 8
REMARK VINA RESULT:      -8.3      1.250      1.873
REMARK  Name = 
REMARK  8 active torsions:
REMARK  status: ('A' for Active; 'I' for Inactive)
REMARK    1  A    between atoms: C_1  and  C_2
REMARK    2  A    between atoms: C_5  and  C_6
REMARK    3  A    between atoms: C_6  and  C_7
REMARK    4  A    between atoms: C_11  and  C_12
REMARK    5  A    between atoms: C_12  and  C_13
REMARK    6  A    between atoms: C_13  and  C_14
REMARK    7  A    between atoms: N_18  and  C_19
REMARK    8  A    between atoms: C_25  and  C_26
REMARK                            x       y       z     vdW  Elec       q    Type
REMARK                         _______ _______ _______ _____ _____    ______ ____
ROOT
ATOM      1  C   UNL     1       1.957   7.603  19.886  0.00  0.00    +0.000 A 
ATOM      2  C   UNL     1       2.321   8.407  18.804  0.00  0.00    +0.000 A 
ATOM      3  C   UNL     1       2.918   7.839  17.682  0.00  0.00    +0.000 A 
ATOM      4  C   UNL     1       3.172   6.464  17.641  0.00  0.00    +0.000 A 
ATOM      5  C   UNL     1       2.879   5.620  18.727  0.00  0.00    +0.000 A 
ATOM      6  C   UNL     1       2.258   6.233  19.837  0.00  0.00    +0.000 A 
ENDROOT
BRANCH   5   7
ATOM      7  C   UNL     1       3.272   4.064  18.765  0.00  0.00    +0.000 C 
ATOM      8  C   UNL     1       2.121   3.111  18.326  0.00  0.00    +0.000 C 
ATOM      9  O   UNL     1       2.441   2.187  19.395  0.00  0.00    +0.000 OA
ATOM     10  C   UNL     1       3.154   3.252  20.085  0.00  0.00    +0.000 C 
BRANCH   7  11
ATOM     11  C   UNL     1       4.571   3.772  17.990  0.00  0.00    +0.000 C 
BRANCH  11  12
ATOM     12  C   UNL     1       5.745   4.537  18.496  0.00  0.00    +0.000 A 
ATOM     13  N   UNL     1       6.029   4.769  19.763  0.00  0.00    +0.000 NA
ATOM     14  N   UNL     1       7.221   5.449  19.825  0.00  0.00    +0.000 NA
ATOM     15  C   UNL     1       7.642   5.619  18.595  0.00  0.00    +0.000 A 
ATOM     16  N   UNL     1       6.749   5.073  17.726  0.00  0.00    +0.000 N 
ATOM     17  C   UNL     1       6.884   5.065  16.296  0.00  0.00    +0.000 C 
ENDBRANCH  11  12
ENDBRANCH   7  11
ENDBRANCH   5   7
BRANCH   1  18
ATOM     18  C   UNL     1       1.317   8.194  21.121  0.00  0.00    +0.000 C 
BRANCH  18  23
ATOM     19  C   UNL     1      -2.205  12.746  20.180  0.00  0.00    +0.000 C 
ATOM     20  C   UNL     1      -1.242  11.600  20.334  0.00  0.00    +0.000 A 
ATOM     21  C   UNL     1      -0.503  11.507  21.525  0.00  0.00    +0.000 A 
ATOM     22  C   UNL     1       0.352  10.432  21.762  0.00  0.00    +0.000 A 
ATOM     23  C   UNL     1       0.494   9.421  20.811  0.00  0.00    +0.000 A 
ATOM     24  C   UNL     1      -0.205   9.532  19.601  0.00  0.00    +0.000 A 
ATOM     25  C   UNL     1      -1.079  10.610  19.344  0.00  0.00    +0.000 A 
BRANCH  25  26
ATOM     26  C   UNL     1      -1.791  10.615  18.006  0.00  0.00    +0.000 C 
ATOM     27  F   UNL     1      -1.736  11.785  17.314  0.00  0.00    +0.000 F 
ATOM     28  F   UNL     1      -1.294   9.666  17.161  0.00  0.00    +0.000 F 
ATOM     29  F   UNL     1      -3.119  10.327  18.133  0.00  0.00    +0.000 F 
ENDBRANCH  25  26
ENDBRANCH  18  23
ENDBRANCH   1  18
TORSDOF 6
ENDMDL
MODEL 9
REMARK VINA RESULT:      -8.3      1.122      1.658
REMARK  Name = 
REMARK  8 active torsions:
REMARK  status: ('A' for Active; 'I' for Inactive)
REMARK    1  A    between atoms: C_1  and  C_2
REMARK    2  A    between atoms: C_5  and  C_6
REMARK    3  A    between atoms: C_6  and  C_7
REMARK    4  A    between atoms: C_11  and  C_12
REMARK    5  A    between atoms: C_12  and  C_13
REMARK    6  A    between atoms: C_13  and  C_14
REMARK    7  A    between atoms: N_18  and  C_19
REMARK    8  A    between atoms: C_25  and  C_26
REMARK                            x       y       z     vdW  Elec       q    Type
REMARK                         _______ _______ _______ _____ _____    ______ ____
ROOT
ATOM      1  C   UNL     1       2.227   7.744  18.838  0.00  0.00    +0.000 A 
ATOM      2  C   UNL     1       1.634   7.735  20.102  0.00  0.00    +0.000 A 
ATOM      3  C   UNL     1       1.671   6.582  20.881  0.00  0.00    +0.000 A 
ATOM      4  C   UNL     1       2.287   5.424  20.396  0.00  0.00    +0.000 A 
ATOM      5  C   UNL     1       2.848   5.363  19.107  0.00  0.00    +0.000 A 
ATOM      6  C   UNL     1       2.804   6.558  18.357  0.00  0.00    +0.000 A 
ENDROOT
BRANCH   5   7
ATOM      7  C   UNL     1       3.448   4.018  18.471  0.00  0.00    +0.000 C 
ATOM      8  C   UNL     1       2.755   3.581  17.147  0.00  0.00    +0.000 C 
ATOM      9  O   UNL     1       2.765   2.195  17.567  0.00  0.00    +0.000 OA
ATOM     10  C   UNL     1       2.945   2.626  18.946  0.00  0.00    +0.000 C 
BRANCH   7  11
ATOM     11  C   UNL     1       4.980   4.083  18.309  0.00  0.00    +0.000 C 
BRANCH  11  12
ATOM     12  C   UNL     1       5.415   4.336  16.906  0.00  0.00    +0.000 A 
ATOM     13  N   UNL     1       5.476   3.439  15.942  0.00  0.00    +0.000 NA
ATOM     14  N   UNL     1       5.858   4.069  14.783  0.00  0.00    +0.000 NA
ATOM     15  C   UNL     1       6.023   5.340  15.062  0.00  0.00    +0.000 A 
ATOM     16  N   UNL     1       5.765   5.556  16.381  0.00  0.00    +0.000 N 
ATOM     17  C   UNL     1       5.838   6.830  17.041  0.00  0.00    +0.000 C 
ENDBRANCH  11  12
ENDBRANCH   7  11
ENDBRANCH   5   7
BRANCH   1  18
ATOM     18  C   UNL     1       2.193   8.978  17.966  0.00  0.00    +0.000 C 
BRANCH  18  23
ATOM     19  C   UNL     1      -2.528  12.074  19.427  0.00  0.00    +0.000 C 
ATOM     20  C   UNL     1      -1.322  11.312  18.950  0.00  0.00    +0.000 A 
ATOM     21  C   UNL     1      -0.087  11.560  19.573  0.00  0.00    +0.000 A 
ATOM     22  C   UNL     1       1.054  10.836  19.229  0.00  0.00    +0.000 A 
ATOM     23  C   UNL     1       0.992   9.848  18.247  0.00  0.00    +0.000 A 
ATOM     24  C   UNL     1      -0.225   9.629  17.587  0.00  0.00    +0.000 A 
ATOM     25  C   UNL     1      -1.393  10.347  17.924  0.00  0.00    +0.000 A 
BRANCH  25  26
ATOM     26  C   UNL     1      -2.654  10.012  17.153  0.00  0.00    +0.000 C 
ATOM     27  F   UNL     1      -2.472   9.299  16.009  0.00  0.00    +0.000 F 
ATOM     28  F   UNL     1      -3.532   9.285  17.903  0.00  0.00    +0.000 F 
ATOM     29  F   UNL     1      -3.338  11.134  16.781  0.00  0.00    +0.000 F 
ENDBRANCH  25  26
ENDBRANCH  18  23
ENDBRANCH   1  18
TORSDOF 6
ENDMDL
