MODEL 1
REMARK VINA RESULT:      -9.4      0.000      0.000
REMARK  Name = 
REMARK  5 active torsions:
REMARK  status: ('A' for Active; 'I' for Inactive)
REMARK    1  A    between atoms: C_2  and  C_3
REMARK    2  A    between atoms: C_3  and  C_4
REMARK    3  A    between atoms: N_14  and  C_15
REMARK    4  A    between atoms: C_15  and  C_16
REMARK    5  A    between atoms: C_15  and  C_22
REMARK                            x       y       z     vdW  Elec       q    Type
REMARK                         _______ _______ _______ _____ _____    ______ ____
ROOT
ATOM      1  O   UNL     1       2.353  10.840  17.652  0.00  0.00    +0.000 OA
ATOM      2  C   UNL     1       1.923   9.717  17.901  0.00  0.00    +0.000 C 
ATOM      3  N   UNL     1       0.718   9.488  18.524  0.00  0.00    +0.000 N 
ATOM      4  H   UNL     1       0.366   8.545  18.610  0.00  0.00    +0.000 HD
ENDROOT
BRANCH   2   5
ATOM      5  C   UNL     1       2.712   8.459  17.566  0.00  0.00    +0.000 C 
BRANCH   5   6
ATOM      6  C   UNL     1       2.356   7.276  18.431  0.00  0.00    +0.000 A 
ATOM      7  C   UNL     1       2.235   7.428  19.817  0.00  0.00    +0.000 A 
ATOM      8  C   UNL     1       1.914   6.334  20.625  0.00  0.00    +0.000 A 
ATOM      9  C   UNL     1       1.700   5.068  20.067  0.00  0.00    +0.000 A 
ATOM     10  C   UNL     1       1.402   3.956  20.871  0.00  0.00    +0.000 A 
ATOM     11  C   UNL     1       1.195   2.699  20.305  0.00  0.00    +0.000 A 
ATOM     12  C   UNL     1       1.272   2.536  18.927  0.00  0.00    +0.000 A 
ATOM     13  C   UNL     1       1.566   3.633  18.111  0.00  0.00    +0.000 A 
ATOM     14  C   UNL     1       1.791   4.904  18.666  0.00  0.00    +0.000 A 
ATOM     15  C   UNL     1       2.114   6.016  17.865  0.00  0.00    +0.000 A 
ENDBRANCH   5   6
ENDBRANCH   2   5
BRANCH   3  16
ATOM     16  C   UNL     1      -0.122  10.567  19.025  0.00  0.00    +0.000 C 
BRANCH  16  17
ATOM     17  C   UNL     1      -1.436  10.580  18.244  0.00  0.00    +0.000 A 
ATOM     18  C   UNL     1      -2.532  11.364  18.645  0.00  0.00    +0.000 A 
ATOM     19  C   UNL     1      -3.695  11.413  17.875  0.00  0.00    +0.000 A 
ATOM     20  C   UNL     1      -3.790  10.662  16.707  0.00  0.00    +0.000 A 
ATOM     21  C   UNL     1      -2.731   9.846  16.318  0.00  0.00    +0.000 A 
ATOM     22  C   UNL     1      -1.563   9.800  17.083  0.00  0.00    +0.000 A 
ENDBRANCH  16  17
BRANCH  16  23
ATOM     23  C   UNL     1      -0.323  10.492  20.544  0.00  0.00    +0.000 A 
ATOM     24  C   UNL     1      -0.299   9.286  21.256  0.00  0.00    +0.000 A 
ATOM     25  C   UNL     1      -0.520   9.307  22.626  0.00  0.00    +0.000 A 
ATOM     26  N   UNL     1      -0.755  10.429  23.335  0.00  0.00    +0.000 NA
ATOM     27  C   UNL     1      -0.747  11.588  22.647  0.00  0.00    +0.000 A 
ATOM     28  C   UNL     1      -0.528  11.671  21.280  0.00  0.00    +0.000 A 
ENDBRANCH  16  23
ENDBRANCH   3  16
TORSDOF 5
ENDMDL
MODEL 2
REMARK VINA RESULT:      -9.2      2.432      7.584
REMARK  Name = 
REMARK  5 active torsions:
REMARK  status: ('A' for Active; 'I' for Inactive)
REMARK    1  A    between atoms: C_2  and  C_3
REMARK    2  A    between atoms: C_3  and  C_4
REMARK    3  A    between atoms: N_14  and  C_15
REMARK    4  A    between atoms: C_15  and  C_16
REMARK    5  A    between atoms: C_15  and  C_22
REMARK                            x       y       z     vdW  Elec       q    Type
REMARK                         _______ _______ _______ _____ _____    ______ ____
ROOT
ATOM      1  O   UNL     1       2.195   8.767  17.275  0.00  0.00    +0.000 OA
ATOM      2  C   UNL     1       2.048   8.515  18.468  0.00  0.00    +0.000 C 
ATOM      3  N   UNL     1       2.314   7.283  19.021  0.00  0.00    +0.000 N 
ATOM      4  H   UNL     1       2.274   7.161  20.022  0.00  0.00    +0.000 HD
ENDROOT
BRANCH   2   5
ATOM      5  C   UNL     1       1.518   9.548  19.451  0.00  0.00    +0.000 C 
BRANCH   5   6
ATOM      6  C   UNL     1       0.166  10.103  19.073  0.00  0.00    +0.000 A 
ATOM      7  C   UNL     1      -0.482  11.013  19.915  0.00  0.00    +0.000 A 
ATOM      8  C   UNL     1      -1.738  11.523  19.575  0.00  0.00    +0.000 A 
ATOM      9  C   UNL     1      -2.369  11.143  18.385  0.00  0.00    +0.000 A 
ATOM     10  C   UNL     1      -3.641  11.630  18.045  0.00  0.00    +0.000 A 
ATOM     11  C   UNL     1      -4.263  11.240  16.859  0.00  0.00    +0.000 A 
ATOM     12  C   UNL     1      -3.618  10.368  15.991  0.00  0.00    +0.000 A 
ATOM     13  C   UNL     1      -2.349   9.874  16.312  0.00  0.00    +0.000 A 
ATOM     14  C   UNL     1      -1.715  10.246  17.510  0.00  0.00    +0.000 A 
ATOM     15  C   UNL     1      -0.449   9.741  17.866  0.00  0.00    +0.000 A 
ENDBRANCH   5   6
ENDBRANCH   2   5
BRANCH   3  16
ATOM     16  C   UNL     1       2.716   6.135  18.219  0.00  0.00    +0.000 C 
BRANCH  16  17
ATOM     17  C   UNL     1       4.242   6.084  18.153  0.00  0.00    +0.000 A 
ATOM     18  C   UNL     1       4.961   6.668  17.094  0.00  0.00    +0.000 A 
ATOM     19  C   UNL     1       6.357   6.670  17.093  0.00  0.00    +0.000 A 
ATOM     20  C   UNL     1       7.055   6.069  18.137  0.00  0.00    +0.000 A 
ATOM     21  C   UNL     1       6.359   5.448  19.171  0.00  0.00    +0.000 A 
ATOM     22  C   UNL     1       4.962   5.450  19.178  0.00  0.00    +0.000 A 
ENDBRANCH  16  17
BRANCH  16  23
ATOM     23  C   UNL     1       2.089   4.827  18.718  0.00  0.00    +0.000 A 
ATOM     24  C   UNL     1       1.547   4.684  20.002  0.00  0.00    +0.000 A 
ATOM     25  C   UNL     1       1.027   3.455  20.382  0.00  0.00    +0.000 A 
ATOM     26  N   UNL     1       0.999   2.369  19.584  0.00  0.00    +0.000 NA
ATOM     27  C   UNL     1       1.495   2.524  18.339  0.00  0.00    +0.000 A 
ATOM     28  C   UNL     1       2.029   3.712  17.865  0.00  0.00    +0.000 A 
ENDBRANCH  16  23
ENDBRANCH   3  16
TORSDOF 5
ENDMDL
MODEL 3
REMARK VINA RESULT:      -9.2      2.689      7.729
REMARK  Name = 
REMARK  5 active torsions:
REMARK  status: ('A' for Active; 'I' for Inactive)
REMARK    1  A    between atoms: C_2  and  C_3
REMARK    2  A    between atoms: C_3  and  C_4
REMARK    3  A    between atoms: N_14  and  C_15
REMARK    4  A    between atoms: C_15  and  C_16
REMARK    5  A    between atoms: C_15  and  C_22
REMARK                            x       y       z     vdW  Elec       q    Type
REMARK                         _______ _______ _______ _____ _____    ______ ____
ROOT
ATOM      1  O   UNL     1       1.829   8.137  19.773  0.00  0.00    +0.000 OA
ATOM      2  C   UNL     1       2.183   8.176  18.598  0.00  0.00    +0.000 C 
ATOM      3  N   UNL     1       3.033   7.253  18.032  0.00  0.00    +0.000 N 
ATOM      4  H   UNL     1       3.209   7.273  17.038  0.00  0.00    +0.000 HD
ENDROOT
BRANCH   2   5
ATOM      5  C   UNL     1       1.734   9.283  17.656  0.00  0.00    +0.000 C 
BRANCH   5   6
ATOM      6  C   UNL     1       0.517  10.031  18.142  0.00  0.00    +0.000 A 
ATOM      7  C   UNL     1       0.641  11.011  19.132  0.00  0.00    +0.000 A 
ATOM      8  C   UNL     1      -0.484  11.701  19.592  0.00  0.00    +0.000 A 
ATOM      9  C   UNL     1      -1.754  11.433  19.068  0.00  0.00    +0.000 A 
ATOM     10  C   UNL     1      -2.895  12.103  19.540  0.00  0.00    +0.000 A 
ATOM     11  C   UNL     1      -4.156  11.824  19.014  0.00  0.00    +0.000 A 
ATOM     12  C   UNL     1      -4.294  10.883  18.001  0.00  0.00    +0.000 A 
ATOM     13  C   UNL     1      -3.168  10.208  17.518  0.00  0.00    +0.000 A 
ATOM     14  C   UNL     1      -1.892  10.466  18.047  0.00  0.00    +0.000 A 
ATOM     15  C   UNL     1      -0.749   9.780  17.593  0.00  0.00    +0.000 A 
ENDBRANCH   5   6
ENDBRANCH   2   5
BRANCH   3  16
ATOM     16  C   UNL     1       3.660   6.189  18.804  0.00  0.00    +0.000 C 
BRANCH  16  17
ATOM     17  C   UNL     1       2.643   5.070  19.027  0.00  0.00    +0.000 A 
ATOM     18  C   UNL     1       2.108   4.327  17.959  0.00  0.00    +0.000 A 
ATOM     19  C   UNL     1       1.236   3.263  18.194  0.00  0.00    +0.000 A 
ATOM     20  C   UNL     1       0.866   2.940  19.497  0.00  0.00    +0.000 A 
ATOM     21  C   UNL     1       1.351   3.693  20.564  0.00  0.00    +0.000 A 
ATOM     22  C   UNL     1       2.230   4.755  20.331  0.00  0.00    +0.000 A 
ENDBRANCH  16  17
BRANCH  16  23
ATOM     23  C   UNL     1       4.967   5.699  18.169  0.00  0.00    +0.000 A 
ATOM     24  C   UNL     1       5.192   5.712  16.786  0.00  0.00    +0.000 A 
ATOM     25  C   UNL     1       6.394   5.223  16.293  0.00  0.00    +0.000 A 
ATOM     26  N   UNL     1       7.382   4.731  17.067  0.00  0.00    +0.000 NA
ATOM     27  C   UNL     1       7.169   4.750  18.399  0.00  0.00    +0.000 A 
ATOM     28  C   UNL     1       6.007   5.225  18.986  0.00  0.00    +0.000 A 
ENDBRANCH  16  23
ENDBRANCH   3  16
TORSDOF 5
ENDMDL
MODEL 4
REMARK VINA RESULT:      -9.1      2.622      7.661
REMARK  Name = 
REMARK  5 active torsions:
REMARK  status: ('A' for Active; 'I' for Inactive)
REMARK    1  A    between atoms: C_2  and  C_3
REMARK    2  A    between atoms: C_3  and  C_4
REMARK    3  A    between atoms: N_14  and  C_15
REMARK    4  A    between atoms: C_15  and  C_16
REMARK    5  A    between atoms: C_15  and  C_22
REMARK                            x       y       z     vdW  Elec       q    Type
REMARK                         _______ _______ _______ _____ _____    ______ ____
ROOT
ATOM      1  O   UNL     1       1.852   8.320  19.859  0.00  0.00    +0.000 OA
ATOM      2  C   UNL     1       2.066   8.230  18.653  0.00  0.00    +0.000 C 
ATOM      3  N   UNL     1       2.834   7.235  18.093  0.00  0.00    +0.000 N 
ATOM      4  H   UNL     1       2.892   7.149  17.088  0.00  0.00    +0.000 HD
ENDROOT
BRANCH   2   5
ATOM      5  C   UNL     1       1.522   9.245  17.659  0.00  0.00    +0.000 C 
BRANCH   5   6
ATOM      6  C   UNL     1       0.350  10.037  18.186  0.00  0.00    +0.000 A 
ATOM      7  C   UNL     1       0.536  10.974  19.208  0.00  0.00    +0.000 A 
ATOM      8  C   UNL     1      -0.545  11.704  19.707  0.00  0.00    +0.000 A 
ATOM      9  C   UNL     1      -1.834  11.521  19.191  0.00  0.00    +0.000 A 
ATOM     10  C   UNL     1      -2.933  12.231  19.701  0.00  0.00    +0.000 A 
ATOM     11  C   UNL     1      -4.213  12.036  19.182  0.00  0.00    +0.000 A 
ATOM     12  C   UNL     1      -4.411  11.139  18.140  0.00  0.00    +0.000 A 
ATOM     13  C   UNL     1      -3.328  10.425  17.619  0.00  0.00    +0.000 A 
ATOM     14  C   UNL     1      -2.034  10.598  18.140  0.00  0.00    +0.000 A 
ATOM     15  C   UNL     1      -0.933   9.870  17.647  0.00  0.00    +0.000 A 
ENDBRANCH   5   6
ENDBRANCH   2   5
BRANCH   3  16
ATOM     16  C   UNL     1       3.535   6.242  18.894  0.00  0.00    +0.000 C 
BRANCH  16  17
ATOM     17  C   UNL     1       2.599   5.064  19.160  0.00  0.00    +0.000 A 
ATOM     18  C   UNL     1       2.110   4.778  20.448  0.00  0.00    +0.000 A 
ATOM     19  C   UNL     1       1.200   3.740  20.652  0.00  0.00    +0.000 A 
ATOM     20  C   UNL     1       0.782   2.957  19.579  0.00  0.00    +0.000 A 
ATOM     21  C   UNL     1       1.289   3.199  18.305  0.00  0.00    +0.000 A 
ATOM     22  C   UNL     1       2.196   4.241  18.096  0.00  0.00    +0.000 A 
ENDBRANCH  16  17
BRANCH  16  23
ATOM     23  C   UNL     1       4.871   5.822  18.265  0.00  0.00    +0.000 A 
ATOM     24  C   UNL     1       5.837   5.080  18.957  0.00  0.00    +0.000 A 
ATOM     25  C   UNL     1       7.031   4.770  18.321  0.00  0.00    +0.000 A 
ATOM     26  N   UNL     1       7.330   5.133  17.058  0.00  0.00    +0.000 NA
ATOM     27  C   UNL     1       6.382   5.821  16.390  0.00  0.00    +0.000 A 
ATOM     28  C   UNL     1       5.157   6.173  16.935  0.00  0.00    +0.000 A 
ENDBRANCH  16  23
ENDBRANCH   3  16
TORSDOF 5
ENDMDL
MODEL 5
REMARK VINA RESULT:      -9.1      4.523      6.903
REMARK  Name = 
REMARK  5 active torsions:
REMARK  status: ('A' for Active; 'I' for Inactive)
REMARK    1  A    between atoms: C_2  and  C_3
REMARK    2  A    between atoms: C_3  and  C_4
REMARK    3  A    between atoms: N_14  and  C_15
REMARK    4  A    between atoms: C_15  and  C_16
REMARK    5  A    between atoms: C_15  and  C_22
REMARK                            x       y       z     vdW  Elec       q    Type
REMARK                         _______ _______ _______ _____ _____    ______ ____
ROOT
ATOM      1  O   UNL     1       5.532   4.591  20.007  0.00  0.00    +0.000 OA
ATOM      2  C   UNL     1       5.516   5.404  19.086  0.00  0.00    +0.000 C 
ATOM      3  N   UNL     1       4.449   6.232  18.825  0.00  0.00    +0.000 N 
ATOM      4  H   UNL     1       4.530   6.952  18.121  0.00  0.00    +0.000 HD
ENDROOT
BRANCH   2   5
ATOM      5  C   UNL     1       6.680   5.546  18.116  0.00  0.00    +0.000 C 
BRANCH   5   6
ATOM      6  C   UNL     1       6.400   4.973  16.749  0.00  0.00    +0.000 A 
ATOM      7  C   UNL     1       5.348   4.068  16.567  0.00  0.00    +0.000 A 
ATOM      8  C   UNL     1       5.089   3.527  15.305  0.00  0.00    +0.000 A 
ATOM      9  C   UNL     1       5.868   3.882  14.198  0.00  0.00    +0.000 A 
ATOM     10  C   UNL     1       5.633   3.326  12.930  0.00  0.00    +0.000 A 
ATOM     11  C   UNL     1       6.419   3.684  11.835  0.00  0.00    +0.000 A 
ATOM     12  C   UNL     1       7.442   4.611  11.988  0.00  0.00    +0.000 A 
ATOM     13  C   UNL     1       7.689   5.177  13.242  0.00  0.00    +0.000 A 
ATOM     14  C   UNL     1       6.916   4.816  14.359  0.00  0.00    +0.000 A 
ATOM     15  C   UNL     1       7.165   5.354  15.637  0.00  0.00    +0.000 A 
ENDBRANCH   5   6
ENDBRANCH   2   5
BRANCH   3  16
ATOM     16  C   UNL     1       3.200   6.159  19.571  0.00  0.00    +0.000 C 
BRANCH  16  17
ATOM     17  C   UNL     1       2.400   7.439  19.331  0.00  0.00    +0.000 A 
ATOM     18  C   UNL     1       2.346   8.056  18.068  0.00  0.00    +0.000 A 
ATOM     19  C   UNL     1       1.550   9.184  17.857  0.00  0.00    +0.000 A 
ATOM     20  C   UNL     1       0.817   9.726  18.910  0.00  0.00    +0.000 A 
ATOM     21  C   UNL     1       0.893   9.153  20.177  0.00  0.00    +0.000 A 
ATOM     22  C   UNL     1       1.684   8.021  20.389  0.00  0.00    +0.000 A 
ENDBRANCH  16  17
BRANCH  16  23
ATOM     23  C   UNL     1       2.408   4.883  19.258  0.00  0.00    +0.000 A 
ATOM     24  C   UNL     1       2.236   4.395  17.956  0.00  0.00    +0.000 A 
ATOM     25  C   UNL     1       1.478   3.249  17.761  0.00  0.00    +0.000 A 
ATOM     26  N   UNL     1       0.890   2.555  18.755  0.00  0.00    +0.000 NA
ATOM     27  C   UNL     1       1.085   3.015  20.008  0.00  0.00    +0.000 A 
ATOM     28  C   UNL     1       1.831   4.145  20.305  0.00  0.00    +0.000 A 
ENDBRANCH  16  23
ENDBRANCH   3  16
TORSDOF 5
ENDMDL
MODEL 6
REMARK VINA RESULT:      -9.1      4.656      7.072
REMARK  Name = 
REMARK  5 active torsions:
REMARK  status: ('A' for Active; 'I' for Inactive)
REMARK    1  A    between atoms: C_2  and  C_3
REMARK    2  A    between atoms: C_3  and  C_4
REMARK    3  A    between atoms: N_14  and  C_15
REMARK    4  A    between atoms: C_15  and  C_16
REMARK    5  A    between atoms: C_15  and  C_22
REMARK                            x       y       z     vdW  Elec       q    Type
REMARK                         _______ _______ _______ _____ _____    ______ ____
ROOT
ATOM      1  O   UNL     1       6.057   4.816  20.037  0.00  0.00    +0.000 OA
ATOM      2  C   UNL     1       5.890   5.443  18.994  0.00  0.00    +0.000 C 
ATOM      3  N   UNL     1       4.705   6.061  18.664  0.00  0.00    +0.000 N 
ATOM      4  H   UNL     1       4.655   6.649  17.845  0.00  0.00    +0.000 HD
ENDROOT
BRANCH   2   5
ATOM      5  C   UNL     1       6.983   5.567  17.944  0.00  0.00    +0.000 C 
BRANCH   5   6
ATOM      6  C   UNL     1       6.602   4.986  16.605  0.00  0.00    +0.000 A 
ATOM      7  C   UNL     1       5.501   4.130  16.496  0.00  0.00    +0.000 A 
ATOM      8  C   UNL     1       5.148   3.581  15.261  0.00  0.00    +0.000 A 
ATOM      9  C   UNL     1       5.881   3.882  14.106  0.00  0.00    +0.000 A 
ATOM     10  C   UNL     1       5.550   3.318  12.863  0.00  0.00    +0.000 A 
ATOM     11  C   UNL     1       6.290   3.622  11.721  0.00  0.00    +0.000 A 
ATOM     12  C   UNL     1       7.362   4.502  11.801  0.00  0.00    +0.000 A 
ATOM     13  C   UNL     1       7.704   5.075  13.030  0.00  0.00    +0.000 A 
ATOM     14  C   UNL     1       6.978   4.768  14.193  0.00  0.00    +0.000 A 
ATOM     15  C   UNL     1       7.321   5.314  15.446  0.00  0.00    +0.000 A 
ENDBRANCH   5   6
ENDBRANCH   2   5
BRANCH   3  16
ATOM     16  C   UNL     1       3.510   5.953  19.488  0.00  0.00    +0.000 C 
BRANCH  16  17
ATOM     17  C   UNL     1       2.642   7.193  19.273  0.00  0.00    +0.000 A 
ATOM     18  C   UNL     1       1.830   7.720  20.293  0.00  0.00    +0.000 A 
ATOM     19  C   UNL     1       1.103   8.894  20.093  0.00  0.00    +0.000 A 
ATOM     20  C   UNL     1       1.155   9.545  18.864  0.00  0.00    +0.000 A 
ATOM     21  C   UNL     1       1.919   9.013  17.828  0.00  0.00    +0.000 A 
ATOM     22  C   UNL     1       2.653   7.842  18.028  0.00  0.00    +0.000 A 
ENDBRANCH  16  17
BRANCH  16  23
ATOM     23  C   UNL     1       2.755   4.639  19.252  0.00  0.00    +0.000 A 
ATOM     24  C   UNL     1       2.059   4.363  18.068  0.00  0.00    +0.000 A 
ATOM     25  C   UNL     1       1.378   3.160  17.950  0.00  0.00    +0.000 A 
ATOM     26  N   UNL     1       1.343   2.216  18.911  0.00  0.00    +0.000 NA
ATOM     27  C   UNL     1       2.040   2.476  20.036  0.00  0.00    +0.000 A 
ATOM     28  C   UNL     1       2.757   3.645  20.245  0.00  0.00    +0.000 A 
ENDBRANCH  16  23
ENDBRANCH   3  16
TORSDOF 5
ENDMDL
MODEL 7
REMARK VINA RESULT:      -9.0      2.850      7.823
REMARK  Name = 
REMARK  5 active torsions:
REMARK  status: ('A' for Active; 'I' for Inactive)
REMARK    1  A    between atoms: C_2  and  C_3
REMARK    2  A    between atoms: C_3  and  C_4
REMARK    3  A    between atoms: N_14  and  C_15
REMARK    4  A    between atoms: C_15  and  C_16
REMARK    5  A    between atoms: C_15  and  C_22
REMARK                            x       y       z     vdW  Elec       q    Type
REMARK                         _______ _______ _______ _____ _____    ______ ____
ROOT
ATOM      1  O   UNL     1       2.008   7.817  19.784  0.00  0.00    +0.000 OA
ATOM      2  C   UNL     1       2.326   7.838  18.598  0.00  0.00    +0.000 C 
ATOM      3  N   UNL     1       3.172   6.916  18.024  0.00  0.00    +0.000 N 
ATOM      4  H   UNL     1       3.316   6.919  17.025  0.00  0.00    +0.000 HD
ENDROOT
BRANCH   2   5
ATOM      5  C   UNL     1       1.831   8.920  17.650  0.00  0.00    +0.000 C 
BRANCH   5   6
ATOM      6  C   UNL     1       0.742   9.784  18.235  0.00  0.00    +0.000 A 
ATOM      7  C   UNL     1       1.015  10.621  19.323  0.00  0.00    +0.000 A 
ATOM      8  C   UNL     1       0.008  11.416  19.876  0.00  0.00    +0.000 A 
ATOM      9  C   UNL     1      -1.290  11.400  19.351  0.00  0.00    +0.000 A 
ATOM     10  C   UNL     1      -2.315  12.177  19.913  0.00  0.00    +0.000 A 
ATOM     11  C   UNL     1      -3.605  12.149  19.384  0.00  0.00    +0.000 A 
ATOM     12  C   UNL     1      -3.886  11.355  18.280  0.00  0.00    +0.000 A 
ATOM     13  C   UNL     1      -2.877  10.577  17.705  0.00  0.00    +0.000 A 
ATOM     14  C   UNL     1      -1.575  10.582  18.235  0.00  0.00    +0.000 A 
ATOM     15  C   UNL     1      -0.549   9.786  17.687  0.00  0.00    +0.000 A 
ENDBRANCH   5   6
ENDBRANCH   2   5
BRANCH   3  16
ATOM     16  C   UNL     1       3.837   5.877  18.797  0.00  0.00    +0.000 C 
BRANCH  16  17
ATOM     17  C   UNL     1       2.849   4.742  19.060  0.00  0.00    +0.000 A 
ATOM     18  C   UNL     1       2.786   4.084  20.302  0.00  0.00    +0.000 A 
ATOM     19  C   UNL     1       1.826   3.099  20.541  0.00  0.00    +0.000 A 
ATOM     20  C   UNL     1       0.932   2.739  19.536  0.00  0.00    +0.000 A 
ATOM     21  C   UNL     1       1.009   3.349  18.287  0.00  0.00    +0.000 A 
ATOM     22  C   UNL     1       1.964   4.340  18.047  0.00  0.00    +0.000 A 
ENDBRANCH  16  17
BRANCH  16  23
ATOM     23  C   UNL     1       5.139   5.404  18.137  0.00  0.00    +0.000 A 
ATOM     24  C   UNL     1       5.195   4.920  16.823  0.00  0.00    +0.000 A 
ATOM     25  C   UNL     1       6.410   4.485  16.315  0.00  0.00    +0.000 A 
ATOM     26  N   UNL     1       7.566   4.500  17.008  0.00  0.00    +0.000 NA
ATOM     27  C   UNL     1       7.510   4.995  18.262  0.00  0.00    +0.000 A 
ATOM     28  C   UNL     1       6.346   5.460  18.854  0.00  0.00    +0.000 A 
ENDBRANCH  16  23
ENDBRANCH   3  16
TORSDOF 5
ENDMDL
MODEL 8
REMARK VINA RESULT:      -8.8      2.725      7.942
REMARK  Name = 
REMARK  5 active torsions:
REMARK  status: ('A' for Active; 'I' for Inactive)
REMARK    1  A    between atoms: C_2  and  C_3
REMARK    2  A    between atoms: C_3  and  C_4
REMARK    3  A    between atoms: N_14  and  C_15
REMARK    4  A    between atoms: C_15  and  C_16
REMARK    5  A    between atoms: C_15  and  C_22
REMARK                            x       y       z     vdW  Elec       q    Type
REMARK                         _______ _______ _______ _____ _____    ______ ____
ROOT
ATOM      1  O   UNL     1       1.867   8.064  19.871  0.00  0.00    +0.000 OA
ATOM      2  C   UNL     1       2.155   8.134  18.679  0.00  0.00    +0.000 C 
ATOM      3  N   UNL     1       2.980   7.234  18.045  0.00  0.00    +0.000 N 
ATOM      4  H   UNL     1       3.100   7.279  17.043  0.00  0.00    +0.000 HD
ENDROOT
BRANCH   2   5
ATOM      5  C   UNL     1       1.644   9.260  17.792  0.00  0.00    +0.000 C 
BRANCH   5   6
ATOM      6  C   UNL     1       0.548  10.079  18.427  0.00  0.00    +0.000 A 
ATOM      7  C   UNL     1      -0.765   9.988  17.952  0.00  0.00    +0.000 A 
ATOM      8  C   UNL     1      -1.783  10.751  18.531  0.00  0.00    +0.000 A 
ATOM      9  C   UNL     1      -1.514  11.614  19.600  0.00  0.00    +0.000 A 
ATOM     10  C   UNL     1      -2.524  12.403  20.173  0.00  0.00    +0.000 A 
ATOM     11  C   UNL     1      -2.243  13.263  21.235  0.00  0.00    +0.000 A 
ATOM     12  C   UNL     1      -0.953  13.337  21.746  0.00  0.00    +0.000 A 
ATOM     13  C   UNL     1       0.065  12.556  21.189  0.00  0.00    +0.000 A 
ATOM     14  C   UNL     1      -0.198  11.696  20.109  0.00  0.00    +0.000 A 
ATOM     15  C   UNL     1       0.817  10.920  19.517  0.00  0.00    +0.000 A 
ENDBRANCH   5   6
ENDBRANCH   2   5
BRANCH   3  16
ATOM     16  C   UNL     1       3.658   6.158  18.754  0.00  0.00    +0.000 C 
BRANCH  16  17
ATOM     17  C   UNL     1       2.665   5.024  19.007  0.00  0.00    +0.000 A 
ATOM     18  C   UNL     1       2.090   4.290  17.954  0.00  0.00    +0.000 A 
ATOM     19  C   UNL     1       1.241   3.213  18.214  0.00  0.00    +0.000 A 
ATOM     20  C   UNL     1       0.934   2.869  19.528  0.00  0.00    +0.000 A 
ATOM     21  C   UNL     1       1.460   3.612  20.582  0.00  0.00    +0.000 A 
ATOM     22  C   UNL     1       2.315   4.687  20.325  0.00  0.00    +0.000 A 
ENDBRANCH  16  17
BRANCH  16  23
ATOM     23  C   UNL     1       4.931   5.696  18.034  0.00  0.00    +0.000 A 
ATOM     24  C   UNL     1       6.008   5.097  18.701  0.00  0.00    +0.000 A 
ATOM     25  C   UNL     1       7.135   4.737  17.976  0.00  0.00    +0.000 A 
ATOM     26  N   UNL     1       7.267   4.921  16.647  0.00  0.00    +0.000 NA
ATOM     27  C   UNL     1       6.215   5.471  16.008  0.00  0.00    +0.000 A 
ATOM     28  C   UNL     1       5.044   5.857  16.643  0.00  0.00    +0.000 A 
ENDBRANCH  16  23
ENDBRANCH   3  16
TORSDOF 5
ENDMDL
MODEL 9
REMARK VINA RESULT:      -8.7      2.750      7.931
REMARK  Name = 
REMARK  5 active torsions:
REMARK  status: ('A' for Active; 'I' for Inactive)
REMARK    1  A    between atoms: C_2  and  C_3
REMARK    2  A    between atoms: C_3  and  C_4
REMARK    3  A    between atoms: N_14  and  C_15
REMARK    4  A    between atoms: C_15  and  C_16
REMARK    5  A    between atoms: C_15  and  C_22
REMARK                            x       y       z     vdW  Elec       q    Type
REMARK                         _______ _______ _______ _____ _____    ______ ____
ROOT
ATOM      1  O   UNL     1       2.004   8.128  19.861  0.00  0.00    +0.000 OA
ATOM      2  C   UNL     1       2.195   8.125  18.648  0.00  0.00    +0.000 C 
ATOM      3  N   UNL     1       2.962   7.181  18.004  0.00  0.00    +0.000 N 
ATOM      4  H   UNL     1       3.000   7.166  16.995  0.00  0.00    +0.000 HD
ENDROOT
BRANCH   2   5
ATOM      5  C   UNL     1       1.620   9.201  17.738  0.00  0.00    +0.000 C 
BRANCH   5   6
ATOM      6  C   UNL     1       0.563  10.049  18.401  0.00  0.00    +0.000 A 
ATOM      7  C   UNL     1      -0.769   9.972  17.979  0.00  0.00    +0.000 A 
ATOM      8  C   UNL     1      -1.751  10.761  18.582  0.00  0.00    +0.000 A 
ATOM      9  C   UNL     1      -1.428  11.638  19.625  0.00  0.00    +0.000 A 
ATOM     10  C   UNL     1      -2.402  12.454  20.222  0.00  0.00    +0.000 A 
ATOM     11  C   UNL     1      -2.066  13.327  21.257  0.00  0.00    +0.000 A 
ATOM     12  C   UNL     1      -0.757  13.388  21.717  0.00  0.00    +0.000 A 
ATOM     13  C   UNL     1       0.226  12.581  21.135  0.00  0.00    +0.000 A 
ATOM     14  C   UNL     1      -0.092  11.707  20.082  0.00  0.00    +0.000 A 
ATOM     15  C   UNL     1       0.887  10.904  19.464  0.00  0.00    +0.000 A 
ENDBRANCH   5   6
ENDBRANCH   2   5
BRANCH   3  16
ATOM     16  C   UNL     1       3.689   6.142  18.720  0.00  0.00    +0.000 C 
BRANCH  16  17
ATOM     17  C   UNL     1       2.736   4.987  19.026  0.00  0.00    +0.000 A 
ATOM     18  C   UNL     1       2.284   4.721  20.331  0.00  0.00    +0.000 A 
ATOM     19  C   UNL     1       1.359   3.705  20.574  0.00  0.00    +0.000 A 
ATOM     20  C   UNL     1       0.889   2.924  19.521  0.00  0.00    +0.000 A 
ATOM     21  C   UNL     1       1.359   3.145  18.229  0.00  0.00    +0.000 A 
ATOM     22  C   UNL     1       2.281   4.165  17.982  0.00  0.00    +0.000 A 
ENDBRANCH  16  17
BRANCH  16  23
ATOM     23  C   UNL     1       4.956   5.700  17.977  0.00  0.00    +0.000 A 
ATOM     24  C   UNL     1       5.089   5.783  16.584  0.00  0.00    +0.000 A 
ATOM     25  C   UNL     1       6.260   5.332  15.991  0.00  0.00    +0.000 A 
ATOM     26  N   UNL     1       7.301   4.815  16.673  0.00  0.00    +0.000 NA
ATOM     27  C   UNL     1       7.176   4.766  18.015  0.00  0.00    +0.000 A 
ATOM     28  C   UNL     1       6.051   5.198  18.700  0.00  0.00    +0.000 A 
ENDBRANCH  16  23
ENDBRANCH   3  16
TORSDOF 5
ENDMDL
