MODEL 1
REMARK VINA RESULT:      -9.0      0.000      0.000
REMARK  Name = 
REMARK  2 active torsions:
REMARK  status: ('A' for Active; 'I' for Inactive)
REMARK    1  A    between atoms: C_2  and  C_17
REMARK    2  A    between atoms: C_6  and  C_7
REMARK                            x       y       z     vdW  Elec       q    Type
REMARK                         _______ _______ _______ _____ _____    ______ ____
ROOT
ATOM      1  O   UNL     1       1.666   4.573  20.014  0.00  0.00    +0.000 OA
ATOM      2  C   UNL     1       2.567   4.618  19.178  0.00  0.00    +0.000 C 
ATOM      3  N   UNL     1       2.961   5.736  18.473  0.00  0.00    +0.000 N 
ATOM      4  C   UNL     1       2.463   6.975  18.757  0.00  0.00    +0.000 A 
ATOM      5  N   UNL     1       1.734   7.355  19.774  0.00  0.00    +0.000 NA
ATOM      6  C   UNL     1       1.444   8.707  19.669  0.00  0.00    +0.000 A 
ATOM      7  C   UNL     1       1.908   9.299  18.509  0.00  0.00    +0.000 A 
ATOM      8  S   UNL     1       2.850   8.177  17.612  0.00  0.00    +0.000 S 
ATOM      9  H   UNL     1       3.627   5.655  17.718  0.00  0.00    +0.000 HD
ENDROOT
BRANCH   2  10
ATOM     10  C   UNL     1       3.281   3.339  18.707  0.00  0.00    +0.000 C 
ATOM     11  C   UNL     1       4.486   3.018  19.586  0.00  0.00    +0.000 C 
ATOM     12  O   UNL     1       5.548   3.965  19.416  0.00  0.00    +0.000 OA
ATOM     13  C   UNL     1       5.729   4.309  18.106  0.00  0.00    +0.000 A 
ATOM     14  C   UNL     1       6.890   5.018  17.805  0.00  0.00    +0.000 A 
ATOM     15  C   UNL     1       7.155   5.392  16.489  0.00  0.00    +0.000 A 
ATOM     16  C   UNL     1       6.260   5.053  15.472  0.00  0.00    +0.000 A 
ATOM     17  C   UNL     1       5.092   4.354  15.775  0.00  0.00    +0.000 A 
ATOM     18  C   UNL     1       4.817   3.999  17.094  0.00  0.00    +0.000 A 
ATOM     19  O   UNL     1       3.627   3.359  17.321  0.00  0.00    +0.000 OA
ENDBRANCH   2  10
BRANCH   6  20
ATOM     20  C   UNL     1       0.685   9.385  20.711  0.00  0.00    +0.000 A 
ATOM     21  C   UNL     1       0.828   8.985  22.048  0.00  0.00    +0.000 A 
ATOM     22  C   UNL     1       0.122   9.637  23.055  0.00  0.00    +0.000 A 
ATOM     23  F   UNL     1       0.261   9.240  24.326  0.00  0.00    +0.000 F 
ATOM     24  C   UNL     1      -0.732  10.698  22.765  0.00  0.00    +0.000 A 
ATOM     25  C   UNL     1      -0.875  11.116  21.446  0.00  0.00    +0.000 A 
ATOM     26  C   UNL     1      -0.171  10.465  20.433  0.00  0.00    +0.000 A 
ATOM     27  F   UNL     1      -0.321  10.921  19.180  0.00  0.00    +0.000 F 
ENDBRANCH   6  20
TORSDOF 2
ENDMDL
MODEL 2
REMARK VINA RESULT:      -9.0      3.227      5.229
REMARK  Name = 
REMARK  2 active torsions:
REMARK  status: ('A' for Active; 'I' for Inactive)
REMARK    1  A    between atoms: C_2  and  C_17
REMARK    2  A    between atoms: C_6  and  C_7
REMARK                            x       y       z     vdW  Elec       q    Type
REMARK                         _______ _______ _______ _____ _____    ______ ____
ROOT
ATOM      1  O   UNL     1       1.768   7.861  17.482  0.00  0.00    +0.000 OA
ATOM      2  C   UNL     1       2.169   7.794  18.643  0.00  0.00    +0.000 C 
ATOM      3  N   UNL     1       1.749   8.586  19.690  0.00  0.00    +0.000 N 
ATOM      4  C   UNL     1       0.700   9.451  19.559  0.00  0.00    +0.000 A 
ATOM      5  N   UNL     1      -0.158   9.561  18.579  0.00  0.00    +0.000 NA
ATOM      6  C   UNL     1      -1.061  10.577  18.852  0.00  0.00    +0.000 A 
ATOM      7  C   UNL     1      -0.801  11.269  20.020  0.00  0.00    +0.000 A 
ATOM      8  S   UNL     1       0.507  10.535  20.860  0.00  0.00    +0.000 S 
ATOM      9  H   UNL     1       2.220   8.545  20.582  0.00  0.00    +0.000 HD
ENDROOT
BRANCH   2  10
ATOM     10  C   UNL     1       3.342   6.876  19.028  0.00  0.00    +0.000 C 
ATOM     11  C   UNL     1       3.810   6.041  17.840  0.00  0.00    +0.000 C 
ATOM     12  O   UNL     1       2.845   5.054  17.459  0.00  0.00    +0.000 OA
ATOM     13  C   UNL     1       2.274   4.444  18.542  0.00  0.00    +0.000 A 
ATOM     14  C   UNL     1       1.519   3.301  18.284  0.00  0.00    +0.000 A 
ATOM     15  C   UNL     1       0.918   2.614  19.338  0.00  0.00    +0.000 A 
ATOM     16  C   UNL     1       1.075   3.067  20.648  0.00  0.00    +0.000 A 
ATOM     17  C   UNL     1       1.820   4.218  20.905  0.00  0.00    +0.000 A 
ATOM     18  C   UNL     1       2.403   4.918  19.850  0.00  0.00    +0.000 A 
ATOM     19  O   UNL     1       3.077   6.066  20.174  0.00  0.00    +0.000 OA
ENDBRANCH   2  10
BRANCH   6  20
ATOM     20  C   UNL     1      -2.155  10.864  17.934  0.00  0.00    +0.000 A 
ATOM     21  C   UNL     1      -2.065  10.452  16.596  0.00  0.00    +0.000 A 
ATOM     22  C   UNL     1      -3.111  10.706  15.713  0.00  0.00    +0.000 A 
ATOM     23  F   UNL     1      -3.010  10.315  14.436  0.00  0.00    +0.000 F 
ATOM     24  C   UNL     1      -4.265  11.361  16.132  0.00  0.00    +0.000 A 
ATOM     25  C   UNL     1      -4.375  11.764  17.459  0.00  0.00    +0.000 A 
ATOM     26  C   UNL     1      -3.329  11.515  18.347  0.00  0.00    +0.000 A 
ATOM     27  F   UNL     1      -3.493  11.898  19.623  0.00  0.00    +0.000 F 
ENDBRANCH   6  20
TORSDOF 2
ENDMDL
MODEL 3
REMARK VINA RESULT:      -9.0      1.395      2.071
REMARK  Name = 
REMARK  2 active torsions:
REMARK  status: ('A' for Active; 'I' for Inactive)
REMARK    1  A    between atoms: C_2  and  C_17
REMARK    2  A    between atoms: C_6  and  C_7
REMARK                            x       y       z     vdW  Elec       q    Type
REMARK                         _______ _______ _______ _____ _____    ______ ____
ROOT
ATOM      1  O   UNL     1       1.958   5.360  19.770  0.00  0.00    +0.000 OA
ATOM      2  C   UNL     1       2.734   5.608  18.850  0.00  0.00    +0.000 C 
ATOM      3  N   UNL     1       2.858   6.818  18.200  0.00  0.00    +0.000 N 
ATOM      4  C   UNL     1       2.206   7.936  18.637  0.00  0.00    +0.000 A 
ATOM      5  N   UNL     1       1.553   8.123  19.754  0.00  0.00    +0.000 NA
ATOM      6  C   UNL     1       1.041   9.411  19.792  0.00  0.00    +0.000 A 
ATOM      7  C   UNL     1       1.262  10.145  18.641  0.00  0.00    +0.000 A 
ATOM      8  S   UNL     1       2.257   9.255  17.559  0.00  0.00    +0.000 S 
ATOM      9  H   UNL     1       3.433   6.897  17.374  0.00  0.00    +0.000 HD
ENDROOT
BRANCH   2  10
ATOM     10  C   UNL     1       3.581   4.499  18.201  0.00  0.00    +0.000 C 
ATOM     11  C   UNL     1       4.332   3.685  19.251  0.00  0.00    +0.000 C 
ATOM     12  O   UNL     1       5.369   4.444  19.884  0.00  0.00    +0.000 OA
ATOM     13  C   UNL     1       6.061   5.217  18.993  0.00  0.00    +0.000 A 
ATOM     14  C   UNL     1       7.243   5.792  19.457  0.00  0.00    +0.000 A 
ATOM     15  C   UNL     1       8.014   6.580  18.604  0.00  0.00    +0.000 A 
ATOM     16  C   UNL     1       7.604   6.791  17.286  0.00  0.00    +0.000 A 
ATOM     17  C   UNL     1       6.414   6.226  16.826  0.00  0.00    +0.000 A 
ATOM     18  C   UNL     1       5.633   5.456  17.685  0.00  0.00    +0.000 A 
ATOM     19  O   UNL     1       4.454   4.976  17.177  0.00  0.00    +0.000 OA
ENDBRANCH   2  10
BRANCH   6  20
ATOM     20  C   UNL     1       0.313   9.886  20.961  0.00  0.00    +0.000 A 
ATOM     21  C   UNL     1      -0.631  10.914  20.822  0.00  0.00    +0.000 A 
ATOM     22  C   UNL     1      -1.344  11.365  21.929  0.00  0.00    +0.000 A 
ATOM     23  F   UNL     1      -2.238  12.352  21.786  0.00  0.00    +0.000 F 
ATOM     24  C   UNL     1      -1.147  10.808  23.190  0.00  0.00    +0.000 A 
ATOM     25  C   UNL     1      -0.224   9.778  23.342  0.00  0.00    +0.000 A 
ATOM     26  C   UNL     1       0.496   9.324  22.236  0.00  0.00    +0.000 A 
ATOM     27  F   UNL     1       1.355   8.311  22.428  0.00  0.00    +0.000 F 
ENDBRANCH   6  20
TORSDOF 2
ENDMDL
MODEL 4
REMARK VINA RESULT:      -8.9      1.089      1.313
REMARK  Name = 
REMARK  2 active torsions:
REMARK  status: ('A' for Active; 'I' for Inactive)
REMARK    1  A    between atoms: C_2  and  C_17
REMARK    2  A    between atoms: C_6  and  C_7
REMARK                            x       y       z     vdW  Elec       q    Type
REMARK                         _______ _______ _______ _____ _____    ______ ____
ROOT
ATOM      1  O   UNL     1       1.955   5.296  19.702  0.00  0.00    +0.000 OA
ATOM      2  C   UNL     1       2.757   5.548  18.805  0.00  0.00    +0.000 C 
ATOM      3  N   UNL     1       2.906   6.764  18.172  0.00  0.00    +0.000 N 
ATOM      4  C   UNL     1       2.252   7.882  18.604  0.00  0.00    +0.000 A 
ATOM      5  N   UNL     1       1.570   8.063  19.705  0.00  0.00    +0.000 NA
ATOM      6  C   UNL     1       1.067   9.353  19.745  0.00  0.00    +0.000 A 
ATOM      7  C   UNL     1       1.324  10.098  18.608  0.00  0.00    +0.000 A 
ATOM      8  S   UNL     1       2.341   9.213  17.542  0.00  0.00    +0.000 S 
ATOM      9  H   UNL     1       3.504   6.849  17.362  0.00  0.00    +0.000 HD
ENDROOT
BRANCH   2  10
ATOM     10  C   UNL     1       3.613   4.440  18.166  0.00  0.00    +0.000 C 
ATOM     11  C   UNL     1       4.351   3.627  19.225  0.00  0.00    +0.000 C 
ATOM     12  O   UNL     1       5.380   4.387  19.870  0.00  0.00    +0.000 OA
ATOM     13  C   UNL     1       6.082   5.160  18.988  0.00  0.00    +0.000 A 
ATOM     14  C   UNL     1       7.258   5.736  19.466  0.00  0.00    +0.000 A 
ATOM     15  C   UNL     1       8.039   6.525  18.622  0.00  0.00    +0.000 A 
ATOM     16  C   UNL     1       7.645   6.736  17.300  0.00  0.00    +0.000 A 
ATOM     17  C   UNL     1       6.461   6.170  16.825  0.00  0.00    +0.000 A 
ATOM     18  C   UNL     1       5.670   5.399  17.675  0.00  0.00    +0.000 A 
ATOM     19  O   UNL     1       4.498   4.919  17.152  0.00  0.00    +0.000 OA
ENDBRANCH   2  10
BRANCH   6  20
ATOM     20  C   UNL     1       0.313   9.821  20.900  0.00  0.00    +0.000 A 
ATOM     21  C   UNL     1       0.551   9.254  22.161  0.00  0.00    +0.000 A 
ATOM     22  C   UNL     1      -0.151   9.704  23.275  0.00  0.00    +0.000 A 
ATOM     23  F   UNL     1       0.079   9.151  24.472  0.00  0.00    +0.000 F 
ATOM     24  C   UNL     1      -1.094  10.723  23.170  0.00  0.00    +0.000 A 
ATOM     25  C   UNL     1      -1.333  11.304  21.929  0.00  0.00    +0.000 A 
ATOM     26  C   UNL     1      -0.634  10.856  20.808  0.00  0.00    +0.000 A 
ATOM     27  F   UNL     1      -0.879  11.465  19.638  0.00  0.00    +0.000 F 
ENDBRANCH   6  20
TORSDOF 2
ENDMDL
MODEL 5
REMARK VINA RESULT:      -8.7      3.620      8.201
REMARK  Name = 
REMARK  2 active torsions:
REMARK  status: ('A' for Active; 'I' for Inactive)
REMARK    1  A    between atoms: C_2  and  C_17
REMARK    2  A    between atoms: C_6  and  C_7
REMARK                            x       y       z     vdW  Elec       q    Type
REMARK                         _______ _______ _______ _____ _____    ______ ____
ROOT
ATOM      1  O   UNL     1       2.107   8.640  19.573  0.00  0.00    +0.000 OA
ATOM      2  C   UNL     1       1.599   8.210  20.608  0.00  0.00    +0.000 C 
ATOM      3  N   UNL     1       1.603   6.895  21.023  0.00  0.00    +0.000 N 
ATOM      4  C   UNL     1       2.327   5.939  20.370  0.00  0.00    +0.000 A 
ATOM      5  N   UNL     1       3.226   6.085  19.433  0.00  0.00    +0.000 NA
ATOM      6  C   UNL     1       3.713   4.846  19.046  0.00  0.00    +0.000 A 
ATOM      7  C   UNL     1       3.094   3.775  19.664  0.00  0.00    +0.000 A 
ATOM      8  S   UNL     1       1.992   4.339  20.855  0.00  0.00    +0.000 S 
ATOM      9  H   UNL     1       1.056   6.611  21.823  0.00  0.00    +0.000 HD
ENDROOT
BRANCH   2  10
ATOM     10  C   UNL     1       0.741   9.113  21.510  0.00  0.00    +0.000 C 
ATOM     11  C   UNL     1      -0.715   9.132  21.055  0.00  0.00    +0.000 C 
ATOM     12  O   UNL     1      -0.882   9.810  19.804  0.00  0.00    +0.000 OA
ATOM     13  C   UNL     1      -0.126  10.946  19.727  0.00  0.00    +0.000 A 
ATOM     14  C   UNL     1      -0.407  11.808  18.668  0.00  0.00    +0.000 A 
ATOM     15  C   UNL     1       0.311  12.995  18.529  0.00  0.00    +0.000 A 
ATOM     16  C   UNL     1       1.306  13.322  19.452  0.00  0.00    +0.000 A 
ATOM     17  C   UNL     1       1.595  12.454  20.504  0.00  0.00    +0.000 A 
ATOM     18  C   UNL     1       0.893  11.257  20.630  0.00  0.00    +0.000 A 
ATOM     19  O   UNL     1       1.267  10.433  21.659  0.00  0.00    +0.000 OA
ENDBRANCH   2  10
BRANCH   6  20
ATOM     20  C   UNL     1       4.768   4.742  18.047  0.00  0.00    +0.000 A 
ATOM     21  C   UNL     1       4.435   4.498  16.707  0.00  0.00    +0.000 A 
ATOM     22  C   UNL     1       5.433   4.414  15.741  0.00  0.00    +0.000 A 
ATOM     23  F   UNL     1       5.103   4.172  14.465  0.00  0.00    +0.000 F 
ATOM     24  C   UNL     1       6.775   4.575  16.074  0.00  0.00    +0.000 A 
ATOM     25  C   UNL     1       7.121   4.831  17.397  0.00  0.00    +0.000 A 
ATOM     26  C   UNL     1       6.125   4.914  18.370  0.00  0.00    +0.000 A 
ATOM     27  F   UNL     1       6.506   5.190  19.627  0.00  0.00    +0.000 F 
ENDBRANCH   6  20
TORSDOF 2
ENDMDL
MODEL 6
REMARK VINA RESULT:      -8.6      0.748      1.637
REMARK  Name = 
REMARK  2 active torsions:
REMARK  status: ('A' for Active; 'I' for Inactive)
REMARK    1  A    between atoms: C_2  and  C_17
REMARK    2  A    between atoms: C_6  and  C_7
REMARK                            x       y       z     vdW  Elec       q    Type
REMARK                         _______ _______ _______ _____ _____    ______ ____
ROOT
ATOM      1  O   UNL     1       1.686   4.736  20.041  0.00  0.00    +0.000 OA
ATOM      2  C   UNL     1       2.566   4.785  19.183  0.00  0.00    +0.000 C 
ATOM      3  N   UNL     1       2.920   5.899  18.452  0.00  0.00    +0.000 N 
ATOM      4  C   UNL     1       2.405   7.133  18.729  0.00  0.00    +0.000 A 
ATOM      5  N   UNL     1       1.693   7.515  19.757  0.00  0.00    +0.000 NA
ATOM      6  C   UNL     1       1.374   8.859  19.638  0.00  0.00    +0.000 A 
ATOM      7  C   UNL     1       1.799   9.441  18.458  0.00  0.00    +0.000 A 
ATOM      8  S   UNL     1       2.741   8.323  17.556  0.00  0.00    +0.000 S 
ATOM      9  H   UNL     1       3.569   5.818  17.682  0.00  0.00    +0.000 HD
ENDROOT
BRANCH   2  10
ATOM     10  C   UNL     1       3.293   3.513  18.715  0.00  0.00    +0.000 C 
ATOM     11  C   UNL     1       4.494   3.199  19.602  0.00  0.00    +0.000 C 
ATOM     12  O   UNL     1       5.549   4.154  19.442  0.00  0.00    +0.000 OA
ATOM     13  C   UNL     1       5.737   4.503  18.134  0.00  0.00    +0.000 A 
ATOM     14  C   UNL     1       6.895   5.222  17.843  0.00  0.00    +0.000 A 
ATOM     15  C   UNL     1       7.167   5.600  16.529  0.00  0.00    +0.000 A 
ATOM     16  C   UNL     1       6.282   5.257  15.506  0.00  0.00    +0.000 A 
ATOM     17  C   UNL     1       5.117   4.548  15.799  0.00  0.00    +0.000 A 
ATOM     18  C   UNL     1       4.835   4.188  17.115  0.00  0.00    +0.000 A 
ATOM     19  O   UNL     1       3.648   3.538  17.332  0.00  0.00    +0.000 OA
ENDBRANCH   2  10
BRANCH   6  20
ATOM     20  C   UNL     1       0.628   9.539  20.688  0.00  0.00    +0.000 A 
ATOM     21  C   UNL     1      -0.270  10.563  20.350  0.00  0.00    +0.000 A 
ATOM     22  C   UNL     1      -1.001  11.209  21.342  0.00  0.00    +0.000 A 
ATOM     23  F   UNL     1      -1.850  12.190  21.008  0.00  0.00    +0.000 F 
ATOM     24  C   UNL     1      -0.869  10.856  22.682  0.00  0.00    +0.000 A 
ATOM     25  C   UNL     1       0.007   9.834  23.032  0.00  0.00    +0.000 A 
ATOM     26  C   UNL     1       0.745   9.184  22.042  0.00  0.00    +0.000 A 
ATOM     27  F   UNL     1       1.556   8.187  22.426  0.00  0.00    +0.000 F 
ENDBRANCH   6  20
TORSDOF 2
ENDMDL
MODEL 7
REMARK VINA RESULT:      -8.5      3.130      5.052
REMARK  Name = 
REMARK  2 active torsions:
REMARK  status: ('A' for Active; 'I' for Inactive)
REMARK    1  A    between atoms: C_2  and  C_17
REMARK    2  A    between atoms: C_6  and  C_7
REMARK                            x       y       z     vdW  Elec       q    Type
REMARK                         _______ _______ _______ _____ _____    ______ ____
ROOT
ATOM      1  O   UNL     1       1.640   7.865  17.553  0.00  0.00    +0.000 OA
ATOM      2  C   UNL     1       2.125   7.784  18.680  0.00  0.00    +0.000 C 
ATOM      3  N   UNL     1       1.777   8.557  19.768  0.00  0.00    +0.000 N 
ATOM      4  C   UNL     1       0.716   9.416  19.727  0.00  0.00    +0.000 A 
ATOM      5  N   UNL     1      -0.212   9.533  18.814  0.00  0.00    +0.000 NA
ATOM      6  C   UNL     1      -1.100  10.538  19.167  0.00  0.00    +0.000 A 
ATOM      7  C   UNL     1      -0.760  11.214  20.324  0.00  0.00    +0.000 A 
ATOM      8  S   UNL     1       0.610  10.478  21.056  0.00  0.00    +0.000 S 
ATOM      9  H   UNL     1       2.313   8.507  20.622  0.00  0.00    +0.000 HD
ENDROOT
BRANCH   2  10
ATOM     10  C   UNL     1       3.329   6.870  18.965  0.00  0.00    +0.000 C 
ATOM     11  C   UNL     1       3.659   5.992  17.762  0.00  0.00    +0.000 C 
ATOM     12  O   UNL     1       2.653   5.000  17.524  0.00  0.00    +0.000 OA
ATOM     13  C   UNL     1       2.203   4.432  18.683  0.00  0.00    +0.000 A 
ATOM     14  C   UNL     1       1.419   3.288  18.549  0.00  0.00    +0.000 A 
ATOM     15  C   UNL     1       0.935   2.641  19.685  0.00  0.00    +0.000 A 
ATOM     16  C   UNL     1       1.238   3.136  20.954  0.00  0.00    +0.000 A 
ATOM     17  C   UNL     1       2.012   4.289  21.087  0.00  0.00    +0.000 A 
ATOM     18  C   UNL     1       2.478   4.948  19.951  0.00  0.00    +0.000 A 
ATOM     19  O   UNL     1       3.189   6.101  20.160  0.00  0.00    +0.000 OA
ENDBRANCH   2  10
BRANCH   6  20
ATOM     20  C   UNL     1      -2.260  10.830  18.336  0.00  0.00    +0.000 A 
ATOM     21  C   UNL     1      -3.273  11.668  18.826  0.00  0.00    +0.000 A 
ATOM     22  C   UNL     1      -4.378  11.968  18.034  0.00  0.00    +0.000 A 
ATOM     23  F   UNL     1      -5.342  12.762  18.516  0.00  0.00    +0.000 F 
ATOM     24  C   UNL     1      -4.502  11.456  16.746  0.00  0.00    +0.000 A 
ATOM     25  C   UNL     1      -3.499  10.635  16.240  0.00  0.00    +0.000 A 
ATOM     26  C   UNL     1      -2.391  10.328  17.030  0.00  0.00    +0.000 A 
ATOM     27  F   UNL     1      -1.438   9.554  16.489  0.00  0.00    +0.000 F 
ENDBRANCH   6  20
TORSDOF 2
ENDMDL
MODEL 8
REMARK VINA RESULT:      -8.5      3.674      8.185
REMARK  Name = 
REMARK  2 active torsions:
REMARK  status: ('A' for Active; 'I' for Inactive)
REMARK    1  A    between atoms: C_2  and  C_17
REMARK    2  A    between atoms: C_6  and  C_7
REMARK                            x       y       z     vdW  Elec       q    Type
REMARK                         _______ _______ _______ _____ _____    ______ ____
ROOT
ATOM      1  O   UNL     1       1.802   8.970  19.311  0.00  0.00    +0.000 OA
ATOM      2  C   UNL     1       1.430   8.569  20.413  0.00  0.00    +0.000 C 
ATOM      3  N   UNL     1       1.569   7.285  20.895  0.00  0.00    +0.000 N 
ATOM      4  C   UNL     1       2.293   6.341  20.224  0.00  0.00    +0.000 A 
ATOM      5  N   UNL     1       3.084   6.490  19.194  0.00  0.00    +0.000 NA
ATOM      6  C   UNL     1       3.618   5.265  18.826  0.00  0.00    +0.000 A 
ATOM      7  C   UNL     1       3.141   4.194  19.559  0.00  0.00    +0.000 A 
ATOM      8  S   UNL     1       2.122   4.755  20.824  0.00  0.00    +0.000 S 
ATOM      9  H   UNL     1       1.124   7.014  21.760  0.00  0.00    +0.000 HD
ENDROOT
BRANCH   2  10
ATOM     10  C   UNL     1       0.601   9.466  21.348  0.00  0.00    +0.000 C 
ATOM     11  C   UNL     1      -0.838   9.600  20.860  0.00  0.00    +0.000 C 
ATOM     12  O   UNL     1      -0.930  10.362  19.650  0.00  0.00    +0.000 OA
ATOM     13  C   UNL     1      -0.106  11.453  19.661  0.00  0.00    +0.000 A 
ATOM     14  C   UNL     1      -0.306  12.392  18.652  0.00  0.00    +0.000 A 
ATOM     15  C   UNL     1       0.484  13.541  18.605  0.00  0.00    +0.000 A 
ATOM     16  C   UNL     1       1.470  13.751  19.570  0.00  0.00    +0.000 A 
ATOM     17  C   UNL     1       1.678  12.804  20.574  0.00  0.00    +0.000 A 
ATOM     18  C   UNL     1       0.903  11.646  20.608  0.00  0.00    +0.000 A 
ATOM     19  O   UNL     1       1.199  10.740  21.592  0.00  0.00    +0.000 OA
ENDBRANCH   2  10
BRANCH   6  20
ATOM     20  C   UNL     1       4.576   5.172  17.733  0.00  0.00    +0.000 A 
ATOM     21  C   UNL     1       5.729   5.970  17.749  0.00  0.00    +0.000 A 
ATOM     22  C   UNL     1       6.660   5.878  16.718  0.00  0.00    +0.000 A 
ATOM     23  F   UNL     1       7.753   6.650  16.741  0.00  0.00    +0.000 F 
ATOM     24  C   UNL     1       6.477   4.994  15.659  0.00  0.00    +0.000 A 
ATOM     25  C   UNL     1       5.345   4.185  15.634  0.00  0.00    +0.000 A 
ATOM     26  C   UNL     1       4.408   4.276  16.663  0.00  0.00    +0.000 A 
ATOM     27  F   UNL     1       3.346   3.456  16.610  0.00  0.00    +0.000 F 
ENDBRANCH   6  20
TORSDOF 2
ENDMDL
MODEL 9
REMARK VINA RESULT:      -8.5      3.871      7.679
REMARK  Name = 
REMARK  2 active torsions:
REMARK  status: ('A' for Active; 'I' for Inactive)
REMARK    1  A    between atoms: C_2  and  C_17
REMARK    2  A    between atoms: C_6  and  C_7
REMARK                            x       y       z     vdW  Elec       q    Type
REMARK                         _______ _______ _______ _____ _____    ______ ____
ROOT
ATOM      1  O   UNL     1       0.925   9.235  22.043  0.00  0.00    +0.000 OA
ATOM      2  C   UNL     1       0.673   9.949  21.075  0.00  0.00    +0.000 C 
ATOM      3  N   UNL     1       1.061   9.713  19.773  0.00  0.00    +0.000 N 
ATOM      4  C   UNL     1       1.659   8.541  19.405  0.00  0.00    +0.000 A 
ATOM      5  N   UNL     1       1.799   7.438  20.092  0.00  0.00    +0.000 NA
ATOM      6  C   UNL     1       2.474   6.492  19.336  0.00  0.00    +0.000 A 
ATOM      7  C   UNL     1       2.900   6.950  18.103  0.00  0.00    +0.000 A 
ATOM      8  S   UNL     1       2.314   8.542  17.831  0.00  0.00    +0.000 S 
ATOM      9  H   UNL     1       0.917  10.415  19.061  0.00  0.00    +0.000 HD
ENDROOT
BRANCH   2  10
ATOM     10  C   UNL     1      -0.007  11.318  21.250  0.00  0.00    +0.000 C 
ATOM     11  C   UNL     1      -0.806  11.706  20.009  0.00  0.00    +0.000 C 
ATOM     12  O   UNL     1       0.040  11.997  18.890  0.00  0.00    +0.000 OA
ATOM     13  C   UNL     1       1.142  12.722  19.249  0.00  0.00    +0.000 A 
ATOM     14  C   UNL     1       1.889  13.272  18.209  0.00  0.00    +0.000 A 
ATOM     15  C   UNL     1       3.018  14.038  18.494  0.00  0.00    +0.000 A 
ATOM     16  C   UNL     1       3.397  14.257  19.819  0.00  0.00    +0.000 A 
ATOM     17  C   UNL     1       2.657  13.696  20.860  0.00  0.00    +0.000 A 
ATOM     18  C   UNL     1       1.541  12.912  20.574  0.00  0.00    +0.000 A 
ATOM     19  O   UNL     1       0.894  12.354  21.645  0.00  0.00    +0.000 OA
ENDBRANCH   2  10
BRANCH   6  20
ATOM     20  C   UNL     1       2.709   5.154  19.860  0.00  0.00    +0.000 A 
ATOM     21  C   UNL     1       1.783   4.581  20.744  0.00  0.00    +0.000 A 
ATOM     22  C   UNL     1       1.988   3.296  21.239  0.00  0.00    +0.000 A 
ATOM     23  F   UNL     1       1.101   2.762  22.087  0.00  0.00    +0.000 F 
ATOM     24  C   UNL     1       3.104   2.550  20.867  0.00  0.00    +0.000 A 
ATOM     25  C   UNL     1       4.025   3.099  19.982  0.00  0.00    +0.000 A 
ATOM     26  C   UNL     1       3.826   4.387  19.485  0.00  0.00    +0.000 A 
ATOM     27  F   UNL     1       4.727   4.863  18.612  0.00  0.00    +0.000 F 
ENDBRANCH   6  20
TORSDOF 2
ENDMDL
