MODEL 1
REMARK VINA RESULT:      -9.7      0.000      0.000
REMARK  Name = 
REMARK  4 active torsions:
REMARK  status: ('A' for Active; 'I' for Inactive)
REMARK    1  A    between atoms: C_8  and  S_9
REMARK    2  A    between atoms: S_9  and  N_12
REMARK    3  A    between atoms: N_12  and  C_13
REMARK    4  A    between atoms: C_15  and  C_16
REMARK                            x       y       z     vdW  Elec       q    Type
REMARK                         _______ _______ _______ _____ _____    ______ ____
ROOT
ATOM      1  S   UNL     1       2.144   3.752  20.779  0.00  0.00    +0.000 S 
ATOM      2  O   UNL     1       0.927   3.207  20.219  0.00  0.00    +0.000 OA
ATOM      3  O   UNL     1       2.821   3.105  21.880  0.00  0.00    +0.000 OA
ENDROOT
BRANCH   1  11
ATOM      4  O   UNL     1       7.865   4.572  15.330  0.00  0.00    +0.000 OA
ATOM      5  C   UNL     1       7.131   4.539  16.313  0.00  0.00    +0.000 A 
ATOM      6  N   UNL     1       7.544   4.995  17.532  0.00  0.00    +0.000 N 
ATOM      7  C   UNL     1       6.795   5.006  18.682  0.00  0.00    +0.000 A 
ATOM      8  O   UNL     1       7.228   5.431  19.747  0.00  0.00    +0.000 OA
ATOM      9  C   UNL     1       5.431   4.477  18.568  0.00  0.00    +0.000 A 
ATOM     10  C   UNL     1       4.560   4.429  19.656  0.00  0.00    +0.000 A 
ATOM     11  C   UNL     1       3.284   3.908  19.452  0.00  0.00    +0.000 A 
ATOM     12  C   UNL     1       2.937   3.440  18.193  0.00  0.00    +0.000 A 
ATOM     13  N   UNL     1       3.774   3.491  17.126  0.00  0.00    +0.000 NA
ATOM     14  C   UNL     1       5.005   4.005  17.334  0.00  0.00    +0.000 A 
ATOM     15  N   UNL     1       5.865   4.052  16.247  0.00  0.00    +0.000 N 
ATOM     16  H   UNL     1       8.484   5.359  17.586  0.00  0.00    +0.000 HD
ATOM     17  H   UNL     1       5.527   3.702  15.363  0.00  0.00    +0.000 HD
ENDBRANCH   1  11
BRANCH   1  18
ATOM     18  N   UNL     1       1.788   5.349  21.184  0.00  0.00    +0.000 NA
ATOM     19  H   UNL     1       2.416   5.677  21.920  0.00  0.00    +0.000 HD
BRANCH  18  20
ATOM     20  C   UNL     1       1.445   6.328  20.142  0.00  0.00    +0.000 C 
ATOM     21  C   UNL     1       2.385   6.852  19.104  0.00  0.00    +0.000 C 
ATOM     22  C   UNL     1       2.017   7.739  20.264  0.00  0.00    +0.000 C 
BRANCH  22  23
ATOM     23  C   UNL     1       1.165   8.977  20.049  0.00  0.00    +0.000 A 
ATOM     24  C   UNL     1       1.114   9.569  18.770  0.00  0.00    +0.000 A 
ATOM     25  C   UNL     1       0.374  10.722  18.521  0.00  0.00    +0.000 A 
ATOM     26  C   UNL     1      -0.370  11.300  19.544  0.00  0.00    +0.000 A 
ATOM     27  C   UNL     1      -0.363  10.742  20.830  0.00  0.00    +0.000 A 
ATOM     28  C   UNL     1      -1.154  11.299  21.849  0.00  0.00    +0.000 A 
ATOM     29  C   UNL     1      -1.140  10.767  23.137  0.00  0.00    +0.000 A 
ATOM     30  C   UNL     1      -0.295   9.707  23.436  0.00  0.00    +0.000 A 
ATOM     31  C   UNL     1       0.494   9.145  22.433  0.00  0.00    +0.000 A 
ATOM     32  C   UNL     1       0.444   9.607  21.102  0.00  0.00    +0.000 A 
ENDBRANCH  22  23
ENDBRANCH  18  20
ENDBRANCH   1  18
TORSDOF 4
ENDMDL
MODEL 2
REMARK VINA RESULT:      -9.3      0.583      2.033
REMARK  Name = 
REMARK  4 active torsions:
REMARK  status: ('A' for Active; 'I' for Inactive)
REMARK    1  A    between atoms: C_8  and  S_9
REMARK    2  A    between atoms: S_9  and  N_12
REMARK    3  A    between atoms: N_12  and  C_13
REMARK    4  A    between atoms: C_15  and  C_16
REMARK                            x       y       z     vdW  Elec       q    Type
REMARK                         _______ _______ _______ _____ _____    ______ ____
ROOT
ATOM      1  S   UNL     1       2.219   3.878  20.559  0.00  0.00    +0.000 S 
ATOM      2  O   UNL     1       0.889   3.719  20.013  0.00  0.00    +0.000 OA
ATOM      3  O   UNL     1       2.789   2.892  21.450  0.00  0.00    +0.000 OA
ENDROOT
BRANCH   1  11
ATOM      4  O   UNL     1       7.730   4.796  14.912  0.00  0.00    +0.000 OA
ATOM      5  C   UNL     1       7.040   4.725  15.925  0.00  0.00    +0.000 A 
ATOM      6  N   UNL     1       7.539   5.045  17.155  0.00  0.00    +0.000 N 
ATOM      7  C   UNL     1       6.845   5.005  18.339  0.00  0.00    +0.000 A 
ATOM      8  O   UNL     1       7.354   5.307  19.412  0.00  0.00    +0.000 OA
ATOM      9  C   UNL     1       5.444   4.578  18.251  0.00  0.00    +0.000 A 
ATOM     10  C   UNL     1       4.622   4.492  19.375  0.00  0.00    +0.000 A 
ATOM     11  C   UNL     1       3.305   4.074  19.194  0.00  0.00    +0.000 A 
ATOM     12  C   UNL     1       2.870   3.740  17.920  0.00  0.00    +0.000 A 
ATOM     13  N   UNL     1       3.659   3.830  16.819  0.00  0.00    +0.000 NA
ATOM     14  C   UNL     1       4.931   4.243  17.006  0.00  0.00    +0.000 A 
ATOM     15  N   UNL     1       5.742   4.329  15.884  0.00  0.00    +0.000 N 
ATOM     16  H   UNL     1       8.503   5.342  17.192  0.00  0.00    +0.000 HD
ATOM     17  H   UNL     1       5.341   4.079  14.992  0.00  0.00    +0.000 HD
ENDBRANCH   1  11
BRANCH   1  18
ATOM     18  N   UNL     1       2.233   5.393  21.297  0.00  0.00    +0.000 NA
ATOM     19  H   UNL     1       3.167   5.606  21.653  0.00  0.00    +0.000 HD
BRANCH  18  20
ATOM     20  C   UNL     1       1.492   6.520  20.710  0.00  0.00    +0.000 C 
ATOM     21  C   UNL     1       2.027   7.466  19.684  0.00  0.00    +0.000 C 
ATOM     22  C   UNL     1       1.902   7.936  21.109  0.00  0.00    +0.000 C 
BRANCH  22  23
ATOM     23  C   UNL     1       0.882   8.996  21.486  0.00  0.00    +0.000 A 
ATOM     24  C   UNL     1       0.463   9.106  22.829  0.00  0.00    +0.000 A 
ATOM     25  C   UNL     1      -0.490  10.039  23.227  0.00  0.00    +0.000 A 
ATOM     26  C   UNL     1      -1.030  10.918  22.294  0.00  0.00    +0.000 A 
ATOM     27  C   UNL     1      -0.637  10.857  20.951  0.00  0.00    +0.000 A 
ATOM     28  C   UNL     1      -1.147  11.778  20.020  0.00  0.00    +0.000 A 
ATOM     29  C   UNL     1      -0.781  11.716  18.677  0.00  0.00    +0.000 A 
ATOM     30  C   UNL     1       0.057  10.700  18.238  0.00  0.00    +0.000 A 
ATOM     31  C   UNL     1       0.570   9.780  19.151  0.00  0.00    +0.000 A 
ATOM     32  C   UNL     1       0.284   9.863  20.530  0.00  0.00    +0.000 A 
ENDBRANCH  22  23
ENDBRANCH  18  20
ENDBRANCH   1  18
TORSDOF 4
ENDMDL
MODEL 3
REMARK VINA RESULT:      -9.2      5.162      9.200
REMARK  Name = 
REMARK  4 active torsions:
REMARK  status: ('A' for Active; 'I' for Inactive)
REMARK    1  A    between atoms: C_8  and  S_9
REMARK    2  A    between atoms: S_9  and  N_12
REMARK    3  A    between atoms: N_12  and  C_13
REMARK    4  A    between atoms: C_15  and  C_16
REMARK                            x       y       z     vdW  Elec       q    Type
REMARK                         _______ _______ _______ _____ _____    ______ ____
ROOT
ATOM      1  S   UNL     1       0.735  10.355  19.919  0.00  0.00    +0.000 S 
ATOM      2  O   UNL     1       1.743  11.198  19.315  0.00  0.00    +0.000 OA
ATOM      3  O   UNL     1       0.664  10.177  21.352  0.00  0.00    +0.000 OA
ENDROOT
BRANCH   1  11
ATOM      4  O   UNL     1      -6.289  12.463  16.867  0.00  0.00    +0.000 OA
ATOM      5  C   UNL     1      -5.179  12.019  17.147  0.00  0.00    +0.000 A 
ATOM      6  N   UNL     1      -4.509  11.180  16.304  0.00  0.00    +0.000 N 
ATOM      7  C   UNL     1      -3.266  10.642  16.526  0.00  0.00    +0.000 A 
ATOM      8  O   UNL     1      -2.719   9.893  15.726  0.00  0.00    +0.000 OA
ATOM      9  C   UNL     1      -2.618  11.015  17.789  0.00  0.00    +0.000 A 
ATOM     10  C   UNL     1      -1.355  10.542  18.144  0.00  0.00    +0.000 A 
ATOM     11  C   UNL     1      -0.821  10.950  19.364  0.00  0.00    +0.000 A 
ATOM     12  C   UNL     1      -1.566  11.785  20.184  0.00  0.00    +0.000 A 
ATOM     13  N   UNL     1      -2.792  12.258  19.844  0.00  0.00    +0.000 NA
ATOM     14  C   UNL     1      -3.296  11.863  18.656  0.00  0.00    +0.000 A 
ATOM     15  N   UNL     1      -4.551  12.338  18.307  0.00  0.00    +0.000 N 
ATOM     16  H   UNL     1      -4.971  10.940  15.439  0.00  0.00    +0.000 HD
ATOM     17  H   UNL     1      -5.019  12.952  18.958  0.00  0.00    +0.000 HD
ENDBRANCH   1  11
BRANCH   1  18
ATOM     18  N   UNL     1       0.878   8.855  19.163  0.00  0.00    +0.000 NA
ATOM     19  H   UNL     1       0.159   8.750  18.445  0.00  0.00    +0.000 HD
BRANCH  18  20
ATOM     20  C   UNL     1       2.202   8.303  18.837  0.00  0.00    +0.000 C 
ATOM     21  C   UNL     1       2.820   8.284  17.476  0.00  0.00    +0.000 C 
ATOM     22  C   UNL     1       2.262   7.004  18.037  0.00  0.00    +0.000 C 
BRANCH  22  23
ATOM     23  C   UNL     1       3.186   5.861  18.421  0.00  0.00    +0.000 A 
ATOM     24  C   UNL     1       4.510   5.848  17.933  0.00  0.00    +0.000 A 
ATOM     25  C   UNL     1       5.392   4.812  18.228  0.00  0.00    +0.000 A 
ATOM     26  C   UNL     1       4.983   3.770  19.054  0.00  0.00    +0.000 A 
ATOM     27  C   UNL     1       3.683   3.744  19.574  0.00  0.00    +0.000 A 
ATOM     28  C   UNL     1       3.288   2.716  20.447  0.00  0.00    +0.000 A 
ATOM     29  C   UNL     1       1.991   2.667  20.956  0.00  0.00    +0.000 A 
ATOM     30  C   UNL     1       1.058   3.613  20.555  0.00  0.00    +0.000 A 
ATOM     31  C   UNL     1       1.437   4.638  19.689  0.00  0.00    +0.000 A 
ATOM     32  C   UNL     1       2.761   4.764  19.221  0.00  0.00    +0.000 A 
ENDBRANCH  22  23
ENDBRANCH  18  20
ENDBRANCH   1  18
TORSDOF 4
ENDMDL
MODEL 4
REMARK VINA RESULT:      -9.2      5.116      9.269
REMARK  Name = 
REMARK  4 active torsions:
REMARK  status: ('A' for Active; 'I' for Inactive)
REMARK    1  A    between atoms: C_8  and  S_9
REMARK    2  A    between atoms: S_9  and  N_12
REMARK    3  A    between atoms: N_12  and  C_13
REMARK    4  A    between atoms: C_15  and  C_16
REMARK                            x       y       z     vdW  Elec       q    Type
REMARK                         _______ _______ _______ _____ _____    ______ ____
ROOT
ATOM      1  S   UNL     1       0.716  10.687  20.622  0.00  0.00    +0.000 S 
ATOM      2  O   UNL     1       1.736  11.509  20.008  0.00  0.00    +0.000 OA
ATOM      3  O   UNL     1       0.557  10.633  22.058  0.00  0.00    +0.000 OA
ENDROOT
BRANCH   1  11
ATOM      4  O   UNL     1      -6.149  12.282  16.957  0.00  0.00    +0.000 OA
ATOM      5  C   UNL     1      -5.046  11.905  17.344  0.00  0.00    +0.000 A 
ATOM      6  N   UNL     1      -4.291  11.033  16.614  0.00  0.00    +0.000 N 
ATOM      7  C   UNL     1      -3.048  10.562  16.959  0.00  0.00    +0.000 A 
ATOM      8  O   UNL     1      -2.421   9.779  16.256  0.00  0.00    +0.000 OA
ATOM      9  C   UNL     1      -2.502  11.054  18.229  0.00  0.00    +0.000 A 
ATOM     10  C   UNL     1      -1.251  10.659  18.703  0.00  0.00    +0.000 A 
ATOM     11  C   UNL     1      -0.817  11.177  19.921  0.00  0.00    +0.000 A 
ATOM     12  C   UNL     1      -1.646  12.040  20.623  0.00  0.00    +0.000 A 
ATOM     13  N   UNL     1      -2.861  12.438  20.167  0.00  0.00    +0.000 NA
ATOM     14  C   UNL     1      -3.267  11.935  18.982  0.00  0.00    +0.000 A 
ATOM     15  N   UNL     1      -4.511  12.334  18.516  0.00  0.00    +0.000 N 
ATOM     16  H   UNL     1      -4.683  10.711  15.741  0.00  0.00    +0.000 HD
ATOM     17  H   UNL     1      -5.044  12.975  19.085  0.00  0.00    +0.000 HD
ENDBRANCH   1  11
BRANCH   1  18
ATOM     18  N   UNL     1       0.952   9.134  20.012  0.00  0.00    +0.000 NA
ATOM     19  H   UNL     1       0.053   8.685  19.826  0.00  0.00    +0.000 HD
BRANCH  18  20
ATOM     20  C   UNL     1       2.022   8.864  19.040  0.00  0.00    +0.000 C 
ATOM     21  C   UNL     1       1.930   9.095  17.566  0.00  0.00    +0.000 C 
ATOM     22  C   UNL     1       1.847   7.684  18.086  0.00  0.00    +0.000 C 
BRANCH  22  23
ATOM     23  C   UNL     1       2.965   6.693  17.814  0.00  0.00    +0.000 A 
ATOM     24  C   UNL     1       4.241   7.173  17.450  0.00  0.00    +0.000 A 
ATOM     25  C   UNL     1       5.296   6.311  17.161  0.00  0.00    +0.000 A 
ATOM     26  C   UNL     1       5.112   4.936  17.261  0.00  0.00    +0.000 A 
ATOM     27  C   UNL     1       3.867   4.411  17.631  0.00  0.00    +0.000 A 
ATOM     28  C   UNL     1       3.698   3.024  17.779  0.00  0.00    +0.000 A 
ATOM     29  C   UNL     1       2.459   2.486  18.126  0.00  0.00    +0.000 A 
ATOM     30  C   UNL     1       1.363   3.323  18.276  0.00  0.00    +0.000 A 
ATOM     31  C   UNL     1       1.517   4.702  18.132  0.00  0.00    +0.000 A 
ATOM     32  C   UNL     1       2.773   5.285  17.861  0.00  0.00    +0.000 A 
ENDBRANCH  22  23
ENDBRANCH  18  20
ENDBRANCH   1  18
TORSDOF 4
ENDMDL
MODEL 5
REMARK VINA RESULT:      -9.0      1.835      2.709
REMARK  Name = 
REMARK  4 active torsions:
REMARK  status: ('A' for Active; 'I' for Inactive)
REMARK    1  A    between atoms: C_8  and  S_9
REMARK    2  A    between atoms: S_9  and  N_12
REMARK    3  A    between atoms: N_12  and  C_13
REMARK    4  A    between atoms: C_15  and  C_16
REMARK                            x       y       z     vdW  Elec       q    Type
REMARK                         _______ _______ _______ _____ _____    ______ ____
ROOT
ATOM      1  S   UNL     1       3.072   3.912  18.426  0.00  0.00    +0.000 S 
ATOM      2  O   UNL     1       1.954   3.687  17.537  0.00  0.00    +0.000 OA
ATOM      3  O   UNL     1       3.510   2.897  19.358  0.00  0.00    +0.000 OA
ENDROOT
BRANCH   1  11
ATOM      4  O   UNL     1       8.791   5.753  13.230  0.00  0.00    +0.000 OA
ATOM      5  C   UNL     1       7.806   5.372  13.855  0.00  0.00    +0.000 A 
ATOM      6  N   UNL     1       6.791   4.691  13.247  0.00  0.00    +0.000 N 
ATOM      7  C   UNL     1       5.659   4.218  13.863  0.00  0.00    +0.000 A 
ATOM      8  O   UNL     1       4.783   3.613  13.257  0.00  0.00    +0.000 OA
ATOM      9  C   UNL     1       5.551   4.479  15.303  0.00  0.00    +0.000 A 
ATOM     10  C   UNL     1       4.455   4.056  16.055  0.00  0.00    +0.000 A 
ATOM     11  C   UNL     1       4.440   4.352  17.416  0.00  0.00    +0.000 A 
ATOM     12  C   UNL     1       5.493   5.068  17.965  0.00  0.00    +0.000 A 
ATOM     13  N   UNL     1       6.569   5.476  17.244  0.00  0.00    +0.000 NA
ATOM     14  C   UNL     1       6.576   5.177  15.928  0.00  0.00    +0.000 A 
ATOM     15  N   UNL     1       7.670   5.599  15.187  0.00  0.00    +0.000 N 
ATOM     16  H   UNL     1       6.888   4.518  12.257  0.00  0.00    +0.000 HD
ATOM     17  H   UNL     1       8.399   6.104  15.669  0.00  0.00    +0.000 HD
ENDBRANCH   1  11
BRANCH   1  18
ATOM     18  N   UNL     1       2.719   5.337  19.255  0.00  0.00    +0.000 NA
ATOM     19  H   UNL     1       3.445   5.535  19.946  0.00  0.00    +0.000 HD
BRANCH  18  20
ATOM     20  C   UNL     1       2.167   6.500  18.545  0.00  0.00    +0.000 C 
ATOM     21  C   UNL     1       2.971   7.532  17.820  0.00  0.00    +0.000 C 
ATOM     22  C   UNL     1       2.378   7.883  19.158  0.00  0.00    +0.000 C 
BRANCH  22  23
ATOM     23  C   UNL     1       1.254   8.900  19.262  0.00  0.00    +0.000 A 
ATOM     24  C   UNL     1       0.731   9.475  18.085  0.00  0.00    +0.000 A 
ATOM     25  C   UNL     1      -0.279  10.433  18.121  0.00  0.00    +0.000 A 
ATOM     26  C   UNL     1      -0.821  10.821  19.342  0.00  0.00    +0.000 A 
ATOM     27  C   UNL     1      -0.344  10.268  20.538  0.00  0.00    +0.000 A 
ATOM     28  C   UNL     1      -0.927  10.625  21.766  0.00  0.00    +0.000 A 
ATOM     29  C   UNL     1      -0.449  10.100  22.965  0.00  0.00    +0.000 A 
ATOM     30  C   UNL     1       0.652   9.255  22.956  0.00  0.00    +0.000 A 
ATOM     31  C   UNL     1       1.240   8.893  21.744  0.00  0.00    +0.000 A 
ATOM     32  C   UNL     1       0.730   9.342  20.509  0.00  0.00    +0.000 A 
ENDBRANCH  22  23
ENDBRANCH  18  20
ENDBRANCH   1  18
TORSDOF 4
ENDMDL
MODEL 6
REMARK VINA RESULT:      -9.0      1.929      2.657
REMARK  Name = 
REMARK  4 active torsions:
REMARK  status: ('A' for Active; 'I' for Inactive)
REMARK    1  A    between atoms: C_8  and  S_9
REMARK    2  A    between atoms: S_9  and  N_12
REMARK    3  A    between atoms: N_12  and  C_13
REMARK    4  A    between atoms: C_15  and  C_16
REMARK                            x       y       z     vdW  Elec       q    Type
REMARK                         _______ _______ _______ _____ _____    ______ ____
ROOT
ATOM      1  S   UNL     1       3.318   2.202  18.386  0.00  0.00    +0.000 S 
ATOM      2  O   UNL     1       2.258   2.108  17.408  0.00  0.00    +0.000 OA
ATOM      3  O   UNL     1       4.190   1.082  18.660  0.00  0.00    +0.000 OA
ENDROOT
BRANCH   1  11
ATOM      4  O   UNL     1       8.313   8.193  16.883  0.00  0.00    +0.000 OA
ATOM      5  C   UNL     1       7.646   7.258  17.316  0.00  0.00    +0.000 A 
ATOM      6  N   UNL     1       7.859   6.741  18.562  0.00  0.00    +0.000 N 
ATOM      7  C   UNL     1       7.161   5.706  19.133  0.00  0.00    +0.000 A 
ATOM      8  O   UNL     1       7.404   5.289  20.259  0.00  0.00    +0.000 OA
ATOM      9  C   UNL     1       6.094   5.119  18.314  0.00  0.00    +0.000 A 
ATOM     10  C   UNL     1       5.304   4.063  18.769  0.00  0.00    +0.000 A 
ATOM     11  C   UNL     1       4.316   3.569  17.920  0.00  0.00    +0.000 A 
ATOM     12  C   UNL     1       4.169   4.125  16.658  0.00  0.00    +0.000 A 
ATOM     13  N   UNL     1       4.925   5.159  16.209  0.00  0.00    +0.000 NA
ATOM     14  C   UNL     1       5.874   5.634  17.044  0.00  0.00    +0.000 A 
ATOM     15  N   UNL     1       6.654   6.686  16.586  0.00  0.00    +0.000 N 
ATOM     16  H   UNL     1       8.595   7.163  19.109  0.00  0.00    +0.000 HD
ATOM     17  H   UNL     1       6.471   7.039  15.658  0.00  0.00    +0.000 HD
ENDBRANCH   1  11
BRANCH   1  18
ATOM     18  N   UNL     1       2.582   2.717  19.812  0.00  0.00    +0.000 NA
ATOM     19  H   UNL     1       2.642   1.989  20.526  0.00  0.00    +0.000 HD
BRANCH  18  20
ATOM     20  C   UNL     1       2.748   4.100  20.284  0.00  0.00    +0.000 C 
ATOM     21  C   UNL     1       2.062   4.697  21.472  0.00  0.00    +0.000 C 
ATOM     22  C   UNL     1       1.583   5.070  20.094  0.00  0.00    +0.000 C 
BRANCH  22  23
ATOM     23  C   UNL     1       1.783   6.478  19.561  0.00  0.00    +0.000 A 
ATOM     24  C   UNL     1       2.553   6.672  18.394  0.00  0.00    +0.000 A 
ATOM     25  C   UNL     1       2.795   7.942  17.876  0.00  0.00    +0.000 A 
ATOM     26  C   UNL     1       2.240   9.058  18.494  0.00  0.00    +0.000 A 
ATOM     27  C   UNL     1       1.457   8.915  19.648  0.00  0.00    +0.000 A 
ATOM     28  C   UNL     1       0.858  10.039  20.241  0.00  0.00    +0.000 A 
ATOM     29  C   UNL     1       0.094   9.915  21.401  0.00  0.00    +0.000 A 
ATOM     30  C   UNL     1      -0.034   8.675  22.011  0.00  0.00    +0.000 A 
ATOM     31  C   UNL     1       0.555   7.552  21.431  0.00  0.00    +0.000 A 
ATOM     32  C   UNL     1       1.266   7.629  20.216  0.00  0.00    +0.000 A 
ENDBRANCH  22  23
ENDBRANCH  18  20
ENDBRANCH   1  18
TORSDOF 4
ENDMDL
MODEL 7
REMARK VINA RESULT:      -8.8      5.168      9.312
REMARK  Name = 
REMARK  4 active torsions:
REMARK  status: ('A' for Active; 'I' for Inactive)
REMARK    1  A    between atoms: C_8  and  S_9
REMARK    2  A    between atoms: S_9  and  N_12
REMARK    3  A    between atoms: N_12  and  C_13
REMARK    4  A    between atoms: C_15  and  C_16
REMARK                            x       y       z     vdW  Elec       q    Type
REMARK                         _______ _______ _______ _____ _____    ______ ____
ROOT
ATOM      1  S   UNL     1       1.016  10.135  18.467  0.00  0.00    +0.000 S 
ATOM      2  O   UNL     1       1.040   8.953  17.634  0.00  0.00    +0.000 OA
ATOM      3  O   UNL     1       1.938  11.228  18.250  0.00  0.00    +0.000 OA
ENDROOT
BRANCH   1  11
ATOM      4  O   UNL     1      -6.520  12.477  17.555  0.00  0.00    +0.000 OA
ATOM      5  C   UNL     1      -5.387  12.008  17.500  0.00  0.00    +0.000 A 
ATOM      6  N   UNL     1      -4.992  11.209  16.465  0.00  0.00    +0.000 N 
ATOM      7  C   UNL     1      -3.749  10.646  16.313  0.00  0.00    +0.000 A 
ATOM      8  O   UNL     1      -3.459   9.937  15.357  0.00  0.00    +0.000 OA
ATOM      9  C   UNL     1      -2.773  10.944  17.368  0.00  0.00    +0.000 A 
ATOM     10  C   UNL     1      -1.473  10.440  17.341  0.00  0.00    +0.000 A 
ATOM     11  C   UNL     1      -0.617  10.775  18.388  0.00  0.00    +0.000 A 
ATOM     12  C   UNL     1      -1.091  11.572  19.420  0.00  0.00    +0.000 A 
ATOM     13  N   UNL     1      -2.351  12.075  19.451  0.00  0.00    +0.000 NA
ATOM     14  C   UNL     1      -3.168  11.750  18.427  0.00  0.00    +0.000 A 
ATOM     15  N   UNL     1      -4.459  12.257  18.459  0.00  0.00    +0.000 N 
ATOM     16  H   UNL     1      -5.678  11.021  15.748  0.00  0.00    +0.000 HD
ATOM     17  H   UNL     1      -4.717  12.839  19.242  0.00  0.00    +0.000 HD
ENDBRANCH   1  11
BRANCH   1  18
ATOM     18  N   UNL     1       1.147   9.581  20.053  0.00  0.00    +0.000 NA
ATOM     19  H   UNL     1       0.803  10.288  20.706  0.00  0.00    +0.000 HD
BRANCH  18  20
ATOM     20  C   UNL     1       0.831   8.184  20.388  0.00  0.00    +0.000 C 
ATOM     21  C   UNL     1       1.054   7.542  21.720  0.00  0.00    +0.000 C 
ATOM     22  C   UNL     1       1.991   7.212  20.589  0.00  0.00    +0.000 C 
BRANCH  22  23
ATOM     23  C   UNL     1       1.999   5.825  19.971  0.00  0.00    +0.000 A 
ATOM     24  C   UNL     1       1.179   4.818  20.522  0.00  0.00    +0.000 A 
ATOM     25  C   UNL     1       1.166   3.521  20.016  0.00  0.00    +0.000 A 
ATOM     26  C   UNL     1       1.953   3.201  18.915  0.00  0.00    +0.000 A 
ATOM     27  C   UNL     1       2.775   4.170  18.323  0.00  0.00    +0.000 A 
ATOM     28  C   UNL     1       3.531   3.856  17.181  0.00  0.00    +0.000 A 
ATOM     29  C   UNL     1       4.369   4.804  16.595  0.00  0.00    +0.000 A 
ATOM     30  C   UNL     1       4.502   6.058  17.175  0.00  0.00    +0.000 A 
ATOM     31  C   UNL     1       3.757   6.381  18.309  0.00  0.00    +0.000 A 
ATOM     32  C   UNL     1       2.840   5.474  18.879  0.00  0.00    +0.000 A 
ENDBRANCH  22  23
ENDBRANCH  18  20
ENDBRANCH   1  18
TORSDOF 4
ENDMDL
MODEL 8
REMARK VINA RESULT:      -8.8      5.231      9.660
REMARK  Name = 
REMARK  4 active torsions:
REMARK  status: ('A' for Active; 'I' for Inactive)
REMARK    1  A    between atoms: C_8  and  S_9
REMARK    2  A    between atoms: S_9  and  N_12
REMARK    3  A    between atoms: N_12  and  C_13
REMARK    4  A    between atoms: C_15  and  C_16
REMARK                            x       y       z     vdW  Elec       q    Type
REMARK                         _______ _______ _______ _____ _____    ______ ____
ROOT
ATOM      1  S   UNL     1       1.012  10.702  19.182  0.00  0.00    +0.000 S 
ATOM      2  O   UNL     1       1.839  11.803  18.742  0.00  0.00    +0.000 OA
ATOM      3  O   UNL     1       1.088  10.197  20.534  0.00  0.00    +0.000 OA
ENDROOT
BRANCH   1  11
ATOM      4  O   UNL     1      -6.526  12.212  17.183  0.00  0.00    +0.000 OA
ATOM      5  C   UNL     1      -5.353  11.867  17.295  0.00  0.00    +0.000 A 
ATOM      6  N   UNL     1      -4.734  11.112  16.341  0.00  0.00    +0.000 N 
ATOM      7  C   UNL     1      -3.429  10.686  16.374  0.00  0.00    +0.000 A 
ATOM      8  O   UNL     1      -2.934  10.009  15.482  0.00  0.00    +0.000 OA
ATOM      9  C   UNL     1      -2.649  11.092  17.549  0.00  0.00    +0.000 A 
ATOM     10  C   UNL     1      -1.312  10.731  17.714  0.00  0.00    +0.000 A 
ATOM     11  C   UNL     1      -0.653  11.161  18.863  0.00  0.00    +0.000 A 
ATOM     12  C   UNL     1      -1.348  11.906  19.804  0.00  0.00    +0.000 A 
ATOM     13  N   UNL     1      -2.647  12.270  19.649  0.00  0.00    +0.000 NA
ATOM     14  C   UNL     1      -3.273  11.854  18.528  0.00  0.00    +0.000 A 
ATOM     15  N   UNL     1      -4.602  12.219  18.369  0.00  0.00    +0.000 N 
ATOM     16  H   UNL     1      -5.288  10.848  15.539  0.00  0.00    +0.000 HD
ATOM     17  H   UNL     1      -5.028  12.773  19.098  0.00  0.00    +0.000 HD
ENDBRANCH   1  11
BRANCH   1  18
ATOM     18  N   UNL     1       1.293   9.451  18.087  0.00  0.00    +0.000 NA
ATOM     19  H   UNL     1       1.945   9.755  17.361  0.00  0.00    +0.000 HD
BRANCH  18  20
ATOM     20  C   UNL     1       1.448   8.065  18.555  0.00  0.00    +0.000 C 
ATOM     21  C   UNL     1       2.168   7.647  19.797  0.00  0.00    +0.000 C 
ATOM     22  C   UNL     1       2.831   7.425  18.464  0.00  0.00    +0.000 C 
BRANCH  22  23
ATOM     23  C   UNL     1       3.036   6.019  17.927  0.00  0.00    +0.000 A 
ATOM     24  C   UNL     1       2.007   5.064  18.077  0.00  0.00    +0.000 A 
ATOM     25  C   UNL     1       2.150   3.753  17.632  0.00  0.00    +0.000 A 
ATOM     26  C   UNL     1       3.320   3.365  16.988  0.00  0.00    +0.000 A 
ATOM     27  C   UNL     1       4.366   4.280  16.803  0.00  0.00    +0.000 A 
ATOM     28  C   UNL     1       5.527   3.899  16.110  0.00  0.00    +0.000 A 
ATOM     29  C   UNL     1       6.583   4.791  15.937  0.00  0.00    +0.000 A 
ATOM     30  C   UNL     1       6.515   6.057  16.502  0.00  0.00    +0.000 A 
ATOM     31  C   UNL     1       5.368   6.447  17.193  0.00  0.00    +0.000 A 
ATOM     32  C   UNL     1       4.249   5.598  17.316  0.00  0.00    +0.000 A 
ENDBRANCH  22  23
ENDBRANCH  18  20
ENDBRANCH   1  18
TORSDOF 4
ENDMDL
MODEL 9
REMARK VINA RESULT:      -8.7      5.185      9.486
REMARK  Name = 
REMARK  4 active torsions:
REMARK  status: ('A' for Active; 'I' for Inactive)
REMARK    1  A    between atoms: C_8  and  S_9
REMARK    2  A    between atoms: S_9  and  N_12
REMARK    3  A    between atoms: N_12  and  C_13
REMARK    4  A    between atoms: C_15  and  C_16
REMARK                            x       y       z     vdW  Elec       q    Type
REMARK                         _______ _______ _______ _____ _____    ______ ____
ROOT
ATOM      1  S   UNL     1       0.993  10.578  19.291  0.00  0.00    +0.000 S 
ATOM      2  O   UNL     1       1.856  11.579  18.703  0.00  0.00    +0.000 OA
ATOM      3  O   UNL     1       1.072  10.249  20.697  0.00  0.00    +0.000 OA
ENDROOT
BRANCH   1  11
ATOM      4  O   UNL     1      -6.481  12.187  17.135  0.00  0.00    +0.000 OA
ATOM      5  C   UNL     1      -5.318  11.822  17.275  0.00  0.00    +0.000 A 
ATOM      6  N   UNL     1      -4.698  11.032  16.349  0.00  0.00    +0.000 N 
ATOM      7  C   UNL     1      -3.403  10.582  16.413  0.00  0.00    +0.000 A 
ATOM      8  O   UNL     1      -2.907   9.874  15.546  0.00  0.00    +0.000 OA
ATOM      9  C   UNL     1      -2.633  11.001  17.591  0.00  0.00    +0.000 A 
ATOM     10  C   UNL     1      -1.306  10.618  17.785  0.00  0.00    +0.000 A 
ATOM     11  C   UNL     1      -0.657  11.062  18.935  0.00  0.00    +0.000 A 
ATOM     12  C   UNL     1      -1.353  11.843  19.847  0.00  0.00    +0.000 A 
ATOM     13  N   UNL     1      -2.641  12.229  19.662  0.00  0.00    +0.000 NA
ATOM     14  C   UNL     1      -3.257  11.798  18.541  0.00  0.00    +0.000 A 
ATOM     15  N   UNL     1      -4.576  12.184  18.352  0.00  0.00    +0.000 N 
ATOM     16  H   UNL     1      -5.245  10.760  15.545  0.00  0.00    +0.000 HD
ATOM     17  H   UNL     1      -5.003  12.764  19.060  0.00  0.00    +0.000 HD
ENDBRANCH   1  11
BRANCH   1  18
ATOM     18  N   UNL     1       1.206   9.187  18.364  0.00  0.00    +0.000 NA
ATOM     19  H   UNL     1       1.141   9.410  17.369  0.00  0.00    +0.000 HD
BRANCH  18  20
ATOM     20  C   UNL     1       2.215   8.184  18.737  0.00  0.00    +0.000 C 
ATOM     21  C   UNL     1       3.217   7.577  17.808  0.00  0.00    +0.000 C 
ATOM     22  C   UNL     1       2.029   6.754  18.234  0.00  0.00    +0.000 C 
BRANCH  22  23
ATOM     23  C   UNL     1       2.209   5.549  19.140  0.00  0.00    +0.000 A 
ATOM     24  C   UNL     1       1.861   5.651  20.503  0.00  0.00    +0.000 A 
ATOM     25  C   UNL     1       2.032   4.589  21.387  0.00  0.00    +0.000 A 
ATOM     26  C   UNL     1       2.526   3.375  20.922  0.00  0.00    +0.000 A 
ATOM     27  C   UNL     1       2.873   3.219  19.573  0.00  0.00    +0.000 A 
ATOM     28  C   UNL     1       3.325   1.977  19.096  0.00  0.00    +0.000 A 
ATOM     29  C   UNL     1       3.695   1.814  17.762  0.00  0.00    +0.000 A 
ATOM     30  C   UNL     1       3.668   2.903  16.902  0.00  0.00    +0.000 A 
ATOM     31  C   UNL     1       3.221   4.141  17.363  0.00  0.00    +0.000 A 
ATOM     32  C   UNL     1       2.764   4.321  18.685  0.00  0.00    +0.000 A 
ENDBRANCH  22  23
ENDBRANCH  18  20
ENDBRANCH   1  18
TORSDOF 4
ENDMDL
