MODEL 1
REMARK VINA RESULT:      -8.6      0.000      0.000
REMARK  Name = 
REMARK  7 active torsions:
REMARK  status: ('A' for Active; 'I' for Inactive)
REMARK    1  A    between atoms: C_1  and  C_2
REMARK    2  A    between atoms: C_6  and  C_7
REMARK    3  A    between atoms: N_9  and  C_10
REMARK    4  A    between atoms: C_10  and  C_11
REMARK    5  A    between atoms: N_13  and  C_14
REMARK    6  A    between atoms: C_17  and  O_18
REMARK    7  A    between atoms: O_18  and  C_19
REMARK                            x       y       z     vdW  Elec       q    Type
REMARK                         _______ _______ _______ _____ _____    ______ ____
ROOT
ATOM      1  C   UNL     1      -1.169  10.636  17.827  0.00  0.00    +0.000 C 
ATOM      2  O   UNL     1      -1.634   9.636  17.282  0.00  0.00    +0.000 OA
ATOM      3  N   UNL     1      -0.031  10.682  18.616  0.00  0.00    +0.000 N 
ATOM      4  H   UNL     1       0.061  11.503  19.216  0.00  0.00    +0.000 HD
ENDROOT
BRANCH   3   5
ATOM      5  C   UNL     1       0.871   9.616  18.832  0.00  0.00    +0.000 A 
ATOM      6  C   UNL     1       1.680   9.066  17.838  0.00  0.00    +0.000 A 
ATOM      7  C   UNL     1       2.474   7.951  18.117  0.00  0.00    +0.000 A 
ATOM      8  C   UNL     1       2.436   7.427  19.396  0.00  0.00    +0.000 A 
ATOM      9  N   UNL     1       1.743   7.992  20.411  0.00  0.00    +0.000 NA
ATOM     10  C   UNL     1       0.971   9.060  20.104  0.00  0.00    +0.000 A 
BRANCH   8  11
ATOM     11  O   UNL     1       3.138   6.244  19.611  0.00  0.00    +0.000 OA
BRANCH  11  12
ATOM     12  C   UNL     1       2.483   5.065  19.323  0.00  0.00    +0.000 A 
ATOM     13  C   UNL     1       2.601   4.400  18.095  0.00  0.00    +0.000 A 
ATOM     14  C   UNL     1       1.851   3.252  17.846  0.00  0.00    +0.000 A 
ATOM     15  C   UNL     1       1.033   2.744  18.846  0.00  0.00    +0.000 A 
ATOM     16  F   UNL     1       0.294   1.655  18.599  0.00  0.00    +0.000 F 
ATOM     17  C   UNL     1       0.969   3.348  20.099  0.00  0.00    +0.000 A 
ATOM     18  C   UNL     1       1.702   4.511  20.341  0.00  0.00    +0.000 A 
ENDBRANCH  11  12
ENDBRANCH   8  11
ENDBRANCH   3   5
BRANCH   1  19
ATOM     19  C   UNL     1      -1.920  11.963  17.771  0.00  0.00    +0.000 C 
BRANCH  19  22
ATOM     20  C   UNL     1      -4.329  11.711  18.197  0.00  0.00    +0.000 C 
ATOM     21  O   UNL     1      -4.562  11.538  17.004  0.00  0.00    +0.000 OA
ATOM     22  N   UNL     1      -3.056  11.926  18.671  0.00  0.00    +0.000 N 
ATOM     23  H   UNL     1      -2.889  12.123  19.650  0.00  0.00    +0.000 HD
BRANCH  20  29
ATOM     24  C   UNL     1      -6.187  13.428  22.502  0.00  0.00    +0.000 C 
ATOM     25  C   UNL     1      -6.312  12.526  21.309  0.00  0.00    +0.000 A 
ATOM     26  C   UNL     1      -7.422  11.681  21.162  0.00  0.00    +0.000 A 
ATOM     27  C   UNL     1      -7.529  10.843  20.052  0.00  0.00    +0.000 A 
ATOM     28  C   UNL     1      -6.535  10.842  19.072  0.00  0.00    +0.000 A 
ATOM     29  C   UNL     1      -5.425  11.687  19.203  0.00  0.00    +0.000 A 
ATOM     30  C   UNL     1      -5.316  12.519  20.325  0.00  0.00    +0.000 A 
ENDBRANCH  20  29
ENDBRANCH  19  22
ENDBRANCH   1  19
TORSDOF 6
ENDMDL
MODEL 2
REMARK VINA RESULT:      -8.5      4.432     10.877
REMARK  Name = 
REMARK  7 active torsions:
REMARK  status: ('A' for Active; 'I' for Inactive)
REMARK    1  A    between atoms: C_1  and  C_2
REMARK    2  A    between atoms: C_6  and  C_7
REMARK    3  A    between atoms: N_9  and  C_10
REMARK    4  A    between atoms: C_10  and  C_11
REMARK    5  A    between atoms: N_13  and  C_14
REMARK    6  A    between atoms: C_17  and  O_18
REMARK    7  A    between atoms: O_18  and  C_19
REMARK                            x       y       z     vdW  Elec       q    Type
REMARK                         _______ _______ _______ _____ _____    ______ ____
ROOT
ATOM      1  C   UNL     1       3.216   4.820  17.978  0.00  0.00    +0.000 C 
ATOM      2  O   UNL     1       2.059   4.494  17.722  0.00  0.00    +0.000 OA
ATOM      3  N   UNL     1       3.654   6.095  18.299  0.00  0.00    +0.000 N 
ATOM      4  H   UNL     1       4.658   6.257  18.204  0.00  0.00    +0.000 HD
ENDROOT
BRANCH   3   5
ATOM      5  C   UNL     1       2.833   7.223  18.516  0.00  0.00    +0.000 A 
ATOM      6  C   UNL     1       2.679   8.263  17.599  0.00  0.00    +0.000 A 
ATOM      7  C   UNL     1       1.921   9.387  17.933  0.00  0.00    +0.000 A 
ATOM      8  C   UNL     1       1.330   9.427  19.183  0.00  0.00    +0.000 A 
ATOM      9  N   UNL     1       1.372   8.397  20.059  0.00  0.00    +0.000 NA
ATOM     10  C   UNL     1       2.129   7.330  19.712  0.00  0.00    +0.000 A 
BRANCH   8  11
ATOM     11  O   UNL     1       0.688  10.611  19.536  0.00  0.00    +0.000 OA
BRANCH  11  12
ATOM     12  C   UNL     1      -0.580  10.812  19.032  0.00  0.00    +0.000 A 
ATOM     13  C   UNL     1      -1.109  10.073  17.965  0.00  0.00    +0.000 A 
ATOM     14  C   UNL     1      -2.371  10.381  17.459  0.00  0.00    +0.000 A 
ATOM     15  C   UNL     1      -3.117  11.387  18.057  0.00  0.00    +0.000 A 
ATOM     16  F   UNL     1      -4.318  11.700  17.555  0.00  0.00    +0.000 F 
ATOM     17  C   UNL     1      -2.636  12.074  19.168  0.00  0.00    +0.000 A 
ATOM     18  C   UNL     1      -1.364  11.783  19.662  0.00  0.00    +0.000 A 
ENDBRANCH  11  12
ENDBRANCH   8  11
ENDBRANCH   3   5
BRANCH   1  19
ATOM     19  C   UNL     1       4.350   3.809  17.838  0.00  0.00    +0.000 C 
BRANCH  19  22
ATOM     20  C   UNL     1       5.901   4.590  16.096  0.00  0.00    +0.000 C 
ATOM     21  O   UNL     1       6.480   5.328  16.888  0.00  0.00    +0.000 OA
ATOM     22  N   UNL     1       4.839   3.800  16.473  0.00  0.00    +0.000 N 
ATOM     23  H   UNL     1       4.337   3.240  15.796  0.00  0.00    +0.000 HD
BRANCH  20  29
ATOM     24  C   UNL     1       5.278   2.541  11.584  0.00  0.00    +0.000 C 
ATOM     25  C   UNL     1       6.019   3.488  12.483  0.00  0.00    +0.000 A 
ATOM     26  C   UNL     1       7.087   4.254  11.992  0.00  0.00    +0.000 A 
ATOM     27  C   UNL     1       7.773   5.130  12.834  0.00  0.00    +0.000 A 
ATOM     28  C   UNL     1       7.398   5.257  14.173  0.00  0.00    +0.000 A 
ATOM     29  C   UNL     1       6.328   4.504  14.673  0.00  0.00    +0.000 A 
ATOM     30  C   UNL     1       5.649   3.618  13.826  0.00  0.00    +0.000 A 
ENDBRANCH  20  29
ENDBRANCH  19  22
ENDBRANCH   1  19
TORSDOF 6
ENDMDL
MODEL 3
REMARK VINA RESULT:      -8.4      3.383     10.188
REMARK  Name = 
REMARK  7 active torsions:
REMARK  status: ('A' for Active; 'I' for Inactive)
REMARK    1  A    between atoms: C_1  and  C_2
REMARK    2  A    between atoms: C_6  and  C_7
REMARK    3  A    between atoms: N_9  and  C_10
REMARK    4  A    between atoms: C_10  and  C_11
REMARK    5  A    between atoms: N_13  and  C_14
REMARK    6  A    between atoms: C_17  and  O_18
REMARK    7  A    between atoms: O_18  and  C_19
REMARK                            x       y       z     vdW  Elec       q    Type
REMARK                         _______ _______ _______ _____ _____    ______ ____
ROOT
ATOM      1  C   UNL     1       1.883   5.342  20.406  0.00  0.00    +0.000 C 
ATOM      2  O   UNL     1       0.669   5.167  20.494  0.00  0.00    +0.000 OA
ATOM      3  N   UNL     1       2.516   6.539  20.110  0.00  0.00    +0.000 N 
ATOM      4  H   UNL     1       3.485   6.463  19.796  0.00  0.00    +0.000 HD
ENDROOT
BRANCH   3   5
ATOM      5  C   UNL     1       1.890   7.798  19.982  0.00  0.00    +0.000 A 
ATOM      6  C   UNL     1       1.134   8.399  20.988  0.00  0.00    +0.000 A 
ATOM      7  C   UNL     1       0.471   9.603  20.744  0.00  0.00    +0.000 A 
ATOM      8  C   UNL     1       0.596  10.174  19.490  0.00  0.00    +0.000 A 
ATOM      9  N   UNL     1       1.399   9.675  18.523  0.00  0.00    +0.000 NA
ATOM     10  C   UNL     1       2.013   8.498  18.785  0.00  0.00    +0.000 A 
BRANCH   8  11
ATOM     11  O   UNL     1      -0.177  11.304  19.236  0.00  0.00    +0.000 OA
BRANCH  11  12
ATOM     12  C   UNL     1      -1.450  11.098  18.749  0.00  0.00    +0.000 A 
ATOM     13  C   UNL     1      -1.769  10.083  17.837  0.00  0.00    +0.000 A 
ATOM     14  C   UNL     1      -3.063   9.980  17.330  0.00  0.00    +0.000 A 
ATOM     15  C   UNL     1      -4.042  10.856  17.779  0.00  0.00    +0.000 A 
ATOM     16  F   UNL     1      -5.279  10.773  17.273  0.00  0.00    +0.000 F 
ATOM     17  C   UNL     1      -3.757  11.818  18.745  0.00  0.00    +0.000 A 
ATOM     18  C   UNL     1      -2.457  11.937  19.237  0.00  0.00    +0.000 A 
ENDBRANCH  11  12
ENDBRANCH   8  11
ENDBRANCH   3   5
BRANCH   1  19
ATOM     19  C   UNL     1       2.841   4.159  20.505  0.00  0.00    +0.000 C 
BRANCH  19  22
ATOM     20  C   UNL     1       3.886   3.903  18.293  0.00  0.00    +0.000 C 
ATOM     21  O   UNL     1       2.892   3.337  17.846  0.00  0.00    +0.000 OA
ATOM     22  N   UNL     1       3.953   4.346  19.594  0.00  0.00    +0.000 N 
ATOM     23  H   UNL     1       4.800   4.760  19.962  0.00  0.00    +0.000 HD
BRANCH  20  29
ATOM     24  C   UNL     1       5.906   3.957  13.726  0.00  0.00    +0.000 C 
ATOM     25  C   UNL     1       6.052   4.159  15.207  0.00  0.00    +0.000 A 
ATOM     26  C   UNL     1       7.280   4.553  15.759  0.00  0.00    +0.000 A 
ATOM     27  C   UNL     1       7.408   4.736  17.137  0.00  0.00    +0.000 A 
ATOM     28  C   UNL     1       6.312   4.534  17.978  0.00  0.00    +0.000 A 
ATOM     29  C   UNL     1       5.079   4.148  17.438  0.00  0.00    +0.000 A 
ATOM     30  C   UNL     1       4.958   3.955  16.055  0.00  0.00    +0.000 A 
ENDBRANCH  20  29
ENDBRANCH  19  22
ENDBRANCH   1  19
TORSDOF 6
ENDMDL
MODEL 4
REMARK VINA RESULT:      -8.4      1.375      2.024
REMARK  Name = 
REMARK  7 active torsions:
REMARK  status: ('A' for Active; 'I' for Inactive)
REMARK    1  A    between atoms: C_1  and  C_2
REMARK    2  A    between atoms: C_6  and  C_7
REMARK    3  A    between atoms: N_9  and  C_10
REMARK    4  A    between atoms: C_10  and  C_11
REMARK    5  A    between atoms: N_13  and  C_14
REMARK    6  A    between atoms: C_17  and  O_18
REMARK    7  A    between atoms: O_18  and  C_19
REMARK                            x       y       z     vdW  Elec       q    Type
REMARK                         _______ _______ _______ _____ _____    ______ ____
ROOT
ATOM      1  C   UNL     1      -1.212  10.754  17.961  0.00  0.00    +0.000 C 
ATOM      2  O   UNL     1      -1.846   9.727  17.728  0.00  0.00    +0.000 OA
ATOM      3  N   UNL     1       0.062  10.823  18.501  0.00  0.00    +0.000 N 
ATOM      4  H   UNL     1       0.331  11.727  18.892  0.00  0.00    +0.000 HD
ENDROOT
BRANCH   3   5
ATOM      5  C   UNL     1       0.912   9.726  18.762  0.00  0.00    +0.000 A 
ATOM      6  C   UNL     1       1.717   9.117  17.800  0.00  0.00    +0.000 A 
ATOM      7  C   UNL     1       2.455   7.977  18.123  0.00  0.00    +0.000 A 
ATOM      8  C   UNL     1       2.368   7.487  19.413  0.00  0.00    +0.000 A 
ATOM      9  N   UNL     1       1.680   8.106  20.399  0.00  0.00    +0.000 NA
ATOM     10  C   UNL     1       0.961   9.198  20.049  0.00  0.00    +0.000 A 
BRANCH   8  11
ATOM     11  O   UNL     1       3.014   6.280  19.671  0.00  0.00    +0.000 OA
BRANCH  11  12
ATOM     12  C   UNL     1       2.299   5.124  19.437  0.00  0.00    +0.000 A 
ATOM     13  C   UNL     1       1.454   4.537  20.389  0.00  0.00    +0.000 A 
ATOM     14  C   UNL     1       0.821   3.327  20.110  0.00  0.00    +0.000 A 
ATOM     15  C   UNL     1       0.992   2.741  18.864  0.00  0.00    +0.000 A 
ATOM     16  F   UNL     1       0.404   1.566  18.605  0.00  0.00    +0.000 F 
ATOM     17  C   UNL     1       1.764   3.354  17.881  0.00  0.00    +0.000 A 
ATOM     18  C   UNL     1       2.417   4.554  18.166  0.00  0.00    +0.000 A 
ENDBRANCH  11  12
ENDBRANCH   8  11
ENDBRANCH   3   5
BRANCH   1  19
ATOM     19  C   UNL     1      -1.864  12.121  17.773  0.00  0.00    +0.000 C 
BRANCH  19  22
ATOM     20  C   UNL     1      -2.592  12.698  20.050  0.00  0.00    +0.000 C 
ATOM     21  O   UNL     1      -1.436  12.895  20.412  0.00  0.00    +0.000 OA
ATOM     22  N   UNL     1      -2.902  12.314  18.766  0.00  0.00    +0.000 N 
ATOM     23  H   UNL     1      -3.855  12.101  18.499  0.00  0.00    +0.000 HD
BRANCH  20  29
ATOM     24  C   UNL     1      -4.304  12.506  24.738  0.00  0.00    +0.000 C 
ATOM     25  C   UNL     1      -4.553  12.765  23.280  0.00  0.00    +0.000 A 
ATOM     26  C   UNL     1      -5.825  13.147  22.827  0.00  0.00    +0.000 A 
ATOM     27  C   UNL     1      -6.049  13.382  21.470  0.00  0.00    +0.000 A 
ATOM     28  C   UNL     1      -5.008  13.246  20.551  0.00  0.00    +0.000 A 
ATOM     29  C   UNL     1      -3.731  12.873  20.992  0.00  0.00    +0.000 A 
ATOM     30  C   UNL     1      -3.513  12.627  22.354  0.00  0.00    +0.000 A 
ENDBRANCH  20  29
ENDBRANCH  19  22
ENDBRANCH   1  19
TORSDOF 6
ENDMDL
MODEL 5
REMARK VINA RESULT:      -8.3      4.133     10.619
REMARK  Name = 
REMARK  7 active torsions:
REMARK  status: ('A' for Active; 'I' for Inactive)
REMARK    1  A    between atoms: C_1  and  C_2
REMARK    2  A    between atoms: C_6  and  C_7
REMARK    3  A    between atoms: N_9  and  C_10
REMARK    4  A    between atoms: C_10  and  C_11
REMARK    5  A    between atoms: N_13  and  C_14
REMARK    6  A    between atoms: C_17  and  O_18
REMARK    7  A    between atoms: O_18  and  C_19
REMARK                            x       y       z     vdW  Elec       q    Type
REMARK                         _______ _______ _______ _____ _____    ______ ____
ROOT
ATOM      1  C   UNL     1       2.659   5.075  18.111  0.00  0.00    +0.000 C 
ATOM      2  O   UNL     1       1.518   4.935  17.674  0.00  0.00    +0.000 OA
ATOM      3  N   UNL     1       3.200   6.242  18.625  0.00  0.00    +0.000 N 
ATOM      4  H   UNL     1       4.220   6.274  18.678  0.00  0.00    +0.000 HD
ENDROOT
BRANCH   3   5
ATOM      5  C   UNL     1       2.501   7.446  18.858  0.00  0.00    +0.000 A 
ATOM      6  C   UNL     1       1.873   7.763  20.063  0.00  0.00    +0.000 A 
ATOM      7  C   UNL     1       1.123   8.935  20.176  0.00  0.00    +0.000 A 
ATOM      8  C   UNL     1       1.035   9.763  19.072  0.00  0.00    +0.000 A 
ATOM      9  N   UNL     1       1.710   9.542  17.921  0.00  0.00    +0.000 NA
ATOM     10  C   UNL     1       2.413   8.388  17.838  0.00  0.00    +0.000 A 
BRANCH   8  11
ATOM     11  O   UNL     1       0.179  10.857  19.174  0.00  0.00    +0.000 OA
BRANCH  11  12
ATOM     12  C   UNL     1      -1.025  10.777  18.507  0.00  0.00    +0.000 A 
ATOM     13  C   UNL     1      -1.284   9.838  17.499  0.00  0.00    +0.000 A 
ATOM     14  C   UNL     1      -2.498   9.864  16.815  0.00  0.00    +0.000 A 
ATOM     15  C   UNL     1      -3.466  10.789  17.181  0.00  0.00    +0.000 A 
ATOM     16  F   UNL     1      -4.623  10.830  16.508  0.00  0.00    +0.000 F 
ATOM     17  C   UNL     1      -3.253  11.674  18.235  0.00  0.00    +0.000 A 
ATOM     18  C   UNL     1      -2.029  11.665  18.905  0.00  0.00    +0.000 A 
ENDBRANCH  11  12
ENDBRANCH   8  11
ENDBRANCH   3   5
BRANCH   1  19
ATOM     19  C   UNL     1       3.669   3.935  18.006  0.00  0.00    +0.000 C 
BRANCH  19  22
ATOM     20  C   UNL     1       5.416   4.621  16.415  0.00  0.00    +0.000 C 
ATOM     21  O   UNL     1       5.993   5.280  17.275  0.00  0.00    +0.000 OA
ATOM     22  N   UNL     1       4.262   3.921  16.683  0.00  0.00    +0.000 N 
ATOM     23  H   UNL     1       3.767   3.428  15.950  0.00  0.00    +0.000 HD
BRANCH  20  29
ATOM     24  C   UNL     1       4.775   3.090  11.705  0.00  0.00    +0.000 C 
ATOM     25  C   UNL     1       5.623   3.775  12.738  0.00  0.00    +0.000 A 
ATOM     26  C   UNL     1       6.877   4.303  12.400  0.00  0.00    +0.000 A 
ATOM     27  C   UNL     1       7.661   4.935  13.367  0.00  0.00    +0.000 A 
ATOM     28  C   UNL     1       7.200   5.053  14.679  0.00  0.00    +0.000 A 
ATOM     29  C   UNL     1       5.945   4.536  15.027  0.00  0.00    +0.000 A 
ATOM     30  C   UNL     1       5.166   3.893  14.056  0.00  0.00    +0.000 A 
ENDBRANCH  20  29
ENDBRANCH  19  22
ENDBRANCH   1  19
TORSDOF 6
ENDMDL
MODEL 6
REMARK VINA RESULT:      -8.3      1.388      2.246
REMARK  Name = 
REMARK  7 active torsions:
REMARK  status: ('A' for Active; 'I' for Inactive)
REMARK    1  A    between atoms: C_1  and  C_2
REMARK    2  A    between atoms: C_6  and  C_7
REMARK    3  A    between atoms: N_9  and  C_10
REMARK    4  A    between atoms: C_10  and  C_11
REMARK    5  A    between atoms: N_13  and  C_14
REMARK    6  A    between atoms: C_17  and  O_18
REMARK    7  A    between atoms: O_18  and  C_19
REMARK                            x       y       z     vdW  Elec       q    Type
REMARK                         _______ _______ _______ _____ _____    ______ ____
ROOT
ATOM      1  C   UNL     1      -1.360  10.837  18.229  0.00  0.00    +0.000 C 
ATOM      2  O   UNL     1      -1.953   9.817  17.881  0.00  0.00    +0.000 OA
ATOM      3  N   UNL     1      -0.098  10.894  18.797  0.00  0.00    +0.000 N 
ATOM      4  H   UNL     1       0.132  11.763  19.283  0.00  0.00    +0.000 HD
ENDROOT
BRANCH   3   5
ATOM      5  C   UNL     1       0.786   9.806  18.963  0.00  0.00    +0.000 A 
ATOM      6  C   UNL     1       1.569   9.274  17.938  0.00  0.00    +0.000 A 
ATOM      7  C   UNL     1       2.346   8.136  18.166  0.00  0.00    +0.000 A 
ATOM      8  C   UNL     1       2.318   7.570  19.428  0.00  0.00    +0.000 A 
ATOM      9  N   UNL     1       1.652   8.114  20.472  0.00  0.00    +0.000 NA
ATOM     10  C   UNL     1       0.896   9.205  20.213  0.00  0.00    +0.000 A 
BRANCH   8  11
ATOM     11  O   UNL     1       3.001   6.367  19.591  0.00  0.00    +0.000 OA
BRANCH  11  12
ATOM     12  C   UNL     1       2.284   5.207  19.391  0.00  0.00    +0.000 A 
ATOM     13  C   UNL     1       1.547   4.574  20.401  0.00  0.00    +0.000 A 
ATOM     14  C   UNL     1       0.907   3.363  20.147  0.00  0.00    +0.000 A 
ATOM     15  C   UNL     1       0.961   2.820  18.870  0.00  0.00    +0.000 A 
ATOM     16  F   UNL     1       0.367   1.644  18.631  0.00  0.00    +0.000 F 
ATOM     17  C   UNL     1       1.621   3.479  17.836  0.00  0.00    +0.000 A 
ATOM     18  C   UNL     1       2.281   4.681  18.095  0.00  0.00    +0.000 A 
ENDBRANCH  11  12
ENDBRANCH   8  11
ENDBRANCH   3   5
BRANCH   1  19
ATOM     19  C   UNL     1      -2.058  12.192  18.166  0.00  0.00    +0.000 C 
BRANCH  19  22
ATOM     20  C   UNL     1      -2.640  12.706  20.501  0.00  0.00    +0.000 C 
ATOM     21  O   UNL     1      -1.476  12.994  20.768  0.00  0.00    +0.000 OA
ATOM     22  N   UNL     1      -3.023  12.301  19.243  0.00  0.00    +0.000 N 
ATOM     23  H   UNL     1      -3.975  12.014  19.053  0.00  0.00    +0.000 HD
BRANCH  20  29
ATOM     24  C   UNL     1      -7.515  12.769  21.580  0.00  0.00    +0.000 C 
ATOM     25  C   UNL     1      -6.088  12.830  22.042  0.00  0.00    +0.000 A 
ATOM     26  C   UNL     1      -5.781  12.974  23.403  0.00  0.00    +0.000 A 
ATOM     27  C   UNL     1      -4.451  13.032  23.824  0.00  0.00    +0.000 A 
ATOM     28  C   UNL     1      -3.414  12.942  22.894  0.00  0.00    +0.000 A 
ATOM     29  C   UNL     1      -3.708  12.790  21.533  0.00  0.00    +0.000 A 
ATOM     30  C   UNL     1      -5.044  12.742  21.114  0.00  0.00    +0.000 A 
ENDBRANCH  20  29
ENDBRANCH  19  22
ENDBRANCH   1  19
TORSDOF 6
ENDMDL
MODEL 7
REMARK VINA RESULT:      -8.3      7.845     10.191
REMARK  Name = 
REMARK  7 active torsions:
REMARK  status: ('A' for Active; 'I' for Inactive)
REMARK    1  A    between atoms: C_1  and  C_2
REMARK    2  A    between atoms: C_6  and  C_7
REMARK    3  A    between atoms: N_9  and  C_10
REMARK    4  A    between atoms: C_10  and  C_11
REMARK    5  A    between atoms: N_13  and  C_14
REMARK    6  A    between atoms: C_17  and  O_18
REMARK    7  A    between atoms: O_18  and  C_19
REMARK                            x       y       z     vdW  Elec       q    Type
REMARK                         _______ _______ _______ _____ _____    ______ ____
ROOT
ATOM      1  C   UNL     1       7.907   7.978  17.915  0.00  0.00    +0.000 C 
ATOM      2  O   UNL     1       8.219   7.233  18.842  0.00  0.00    +0.000 OA
ATOM      3  N   UNL     1       6.923   7.737  16.970  0.00  0.00    +0.000 N 
ATOM      4  H   UNL     1       6.977   8.298  16.119  0.00  0.00    +0.000 HD
ENDROOT
BRANCH   3   5
ATOM      5  C   UNL     1       6.016   6.654  16.975  0.00  0.00    +0.000 A 
ATOM      6  C   UNL     1       4.678   6.760  17.354  0.00  0.00    +0.000 A 
ATOM      7  C   UNL     1       3.875   5.620  17.420  0.00  0.00    +0.000 A 
ATOM      8  C   UNL     1       4.444   4.402  17.093  0.00  0.00    +0.000 A 
ATOM      9  N   UNL     1       5.706   4.272  16.626  0.00  0.00    +0.000 NA
ATOM     10  C   UNL     1       6.462   5.394  16.591  0.00  0.00    +0.000 A 
BRANCH   8  11
ATOM     11  O   UNL     1       3.657   3.269  17.291  0.00  0.00    +0.000 OA
BRANCH  11  12
ATOM     12  C   UNL     1       3.029   3.146  18.512  0.00  0.00    +0.000 A 
ATOM     13  C   UNL     1       3.722   3.011  19.723  0.00  0.00    +0.000 A 
ATOM     14  C   UNL     1       3.021   2.815  20.911  0.00  0.00    +0.000 A 
ATOM     15  C   UNL     1       1.634   2.812  20.891  0.00  0.00    +0.000 A 
ATOM     16  F   UNL     1       0.961   2.600  22.028  0.00  0.00    +0.000 F 
ATOM     17  C   UNL     1       0.932   3.026  19.707  0.00  0.00    +0.000 A 
ATOM     18  C   UNL     1       1.632   3.199  18.512  0.00  0.00    +0.000 A 
ENDBRANCH  11  12
ENDBRANCH   8  11
ENDBRANCH   3   5
BRANCH   1  19
ATOM     19  C   UNL     1       8.706   9.249  17.645  0.00  0.00    +0.000 C 
BRANCH  19  22
ATOM     20  C   UNL     1       9.648  11.033  19.053  0.00  0.00    +0.000 C 
ATOM     21  O   UNL     1      10.629  11.144  18.324  0.00  0.00    +0.000 OA
ATOM     22  N   UNL     1       8.645  10.126  18.798  0.00  0.00    +0.000 N 
ATOM     23  H   UNL     1       7.871  10.008  19.440  0.00  0.00    +0.000 HD
BRANCH  20  29
ATOM     24  C   UNL     1       7.995  11.508  23.742  0.00  0.00    +0.000 C 
ATOM     25  C   UNL     1       8.666  12.108  22.540  0.00  0.00    +0.000 A 
ATOM     26  C   UNL     1       9.112  13.438  22.559  0.00  0.00    +0.000 A 
ATOM     27  C   UNL     1       9.732  13.991  21.436  0.00  0.00    +0.000 A 
ATOM     28  C   UNL     1       9.920  13.221  20.287  0.00  0.00    +0.000 A 
ATOM     29  C   UNL     1       9.487  11.890  20.259  0.00  0.00    +0.000 A 
ATOM     30  C   UNL     1       8.855  11.343  21.385  0.00  0.00    +0.000 A 
ENDBRANCH  20  29
ENDBRANCH  19  22
ENDBRANCH   1  19
TORSDOF 6
ENDMDL
MODEL 8
REMARK VINA RESULT:      -8.3      7.908     10.388
REMARK  Name = 
REMARK  7 active torsions:
REMARK  status: ('A' for Active; 'I' for Inactive)
REMARK    1  A    between atoms: C_1  and  C_2
REMARK    2  A    between atoms: C_6  and  C_7
REMARK    3  A    between atoms: N_9  and  C_10
REMARK    4  A    between atoms: C_10  and  C_11
REMARK    5  A    between atoms: N_13  and  C_14
REMARK    6  A    between atoms: C_17  and  O_18
REMARK    7  A    between atoms: O_18  and  C_19
REMARK                            x       y       z     vdW  Elec       q    Type
REMARK                         _______ _______ _______ _____ _____    ______ ____
ROOT
ATOM      1  C   UNL     1       8.431   9.003  18.441  0.00  0.00    +0.000 C 
ATOM      2  O   UNL     1       7.653   9.523  17.643  0.00  0.00    +0.000 OA
ATOM      3  N   UNL     1       8.463   7.664  18.797  0.00  0.00    +0.000 N 
ATOM      4  H   UNL     1       8.960   7.445  19.661  0.00  0.00    +0.000 HD
ENDROOT
BRANCH   3   5
ATOM      5  C   UNL     1       7.695   6.633  18.212  0.00  0.00    +0.000 A 
ATOM      6  C   UNL     1       7.231   6.656  16.897  0.00  0.00    +0.000 A 
ATOM      7  C   UNL     1       6.398   5.638  16.428  0.00  0.00    +0.000 A 
ATOM      8  C   UNL     1       6.061   4.619  17.300  0.00  0.00    +0.000 A 
ATOM      9  N   UNL     1       6.570   4.509  18.548  0.00  0.00    +0.000 NA
ATOM     10  C   UNL     1       7.360   5.520  18.977  0.00  0.00    +0.000 A 
BRANCH   8  11
ATOM     11  O   UNL     1       5.129   3.688  16.846  0.00  0.00    +0.000 OA
BRANCH  11  12
ATOM     12  C   UNL     1       3.979   3.536  17.591  0.00  0.00    +0.000 A 
ATOM     13  C   UNL     1       3.641   2.346  18.249  0.00  0.00    +0.000 A 
ATOM     14  C   UNL     1       2.425   2.241  18.922  0.00  0.00    +0.000 A 
ATOM     15  C   UNL     1       1.583   3.342  18.983  0.00  0.00    +0.000 A 
ATOM     16  F   UNL     1       0.404   3.234  19.609  0.00  0.00    +0.000 F 
ATOM     17  C   UNL     1       1.944   4.556  18.403  0.00  0.00    +0.000 A 
ATOM     18  C   UNL     1       3.150   4.656  17.709  0.00  0.00    +0.000 A 
ENDBRANCH  11  12
ENDBRANCH   8  11
ENDBRANCH   3   5
BRANCH   1  19
ATOM     19  C   UNL     1       9.403   9.864  19.242  0.00  0.00    +0.000 C 
BRANCH  19  22
ATOM     20  C   UNL     1       9.906  12.033  18.196  0.00  0.00    +0.000 C 
ATOM     21  O   UNL     1      10.880  11.569  17.610  0.00  0.00    +0.000 OA
ATOM     22  N   UNL     1       9.116  11.268  19.022  0.00  0.00    +0.000 N 
ATOM     23  H   UNL     1       8.351  11.680  19.542  0.00  0.00    +0.000 HD
BRANCH  20  29
ATOM     24  C   UNL     1       6.314  15.503  18.233  0.00  0.00    +0.000 C 
ATOM     25  C   UNL     1       7.759  15.139  18.046  0.00  0.00    +0.000 A 
ATOM     26  C   UNL     1       8.707  16.119  17.717  0.00  0.00    +0.000 A 
ATOM     27  C   UNL     1      10.048  15.773  17.541  0.00  0.00    +0.000 A 
ATOM     28  C   UNL     1      10.459  14.448  17.698  0.00  0.00    +0.000 A 
ATOM     29  C   UNL     1       9.523  13.462  18.035  0.00  0.00    +0.000 A 
ATOM     30  C   UNL     1       8.176  13.813  18.200  0.00  0.00    +0.000 A 
ENDBRANCH  20  29
ENDBRANCH  19  22
ENDBRANCH   1  19
TORSDOF 6
ENDMDL
MODEL 9
REMARK VINA RESULT:      -8.2      7.682     10.129
REMARK  Name = 
REMARK  7 active torsions:
REMARK  status: ('A' for Active; 'I' for Inactive)
REMARK    1  A    between atoms: C_1  and  C_2
REMARK    2  A    between atoms: C_6  and  C_7
REMARK    3  A    between atoms: N_9  and  C_10
REMARK    4  A    between atoms: C_10  and  C_11
REMARK    5  A    between atoms: N_13  and  C_14
REMARK    6  A    between atoms: C_17  and  O_18
REMARK    7  A    between atoms: O_18  and  C_19
REMARK                            x       y       z     vdW  Elec       q    Type
REMARK                         _______ _______ _______ _____ _____    ______ ____
ROOT
ATOM      1  C   UNL     1       8.548   9.228  18.436  0.00  0.00    +0.000 C 
ATOM      2  O   UNL     1       7.653   9.696  17.735  0.00  0.00    +0.000 OA
ATOM      3  N   UNL     1       8.668   7.905  18.832  0.00  0.00    +0.000 N 
ATOM      4  H   UNL     1       9.286   7.734  19.626  0.00  0.00    +0.000 HD
ENDROOT
BRANCH   3   5
ATOM      5  C   UNL     1       7.857   6.834  18.398  0.00  0.00    +0.000 A 
ATOM      6  C   UNL     1       7.331   6.725  17.111  0.00  0.00    +0.000 A 
ATOM      7  C   UNL     1       6.461   5.681  16.794  0.00  0.00    +0.000 A 
ATOM      8  C   UNL     1       6.152   4.766  17.784  0.00  0.00    +0.000 A 
ATOM      9  N   UNL     1       6.719   4.780  19.012  0.00  0.00    +0.000 NA
ATOM     10  C   UNL     1       7.544   5.815  19.293  0.00  0.00    +0.000 A 
BRANCH   8  11
ATOM     11  O   UNL     1       5.185   3.811  17.477  0.00  0.00    +0.000 OA
BRANCH  11  12
ATOM     12  C   UNL     1       3.983   3.898  18.146  0.00  0.00    +0.000 A 
ATOM     13  C   UNL     1       3.141   5.016  18.072  0.00  0.00    +0.000 A 
ATOM     14  C   UNL     1       1.975   5.065  18.834  0.00  0.00    +0.000 A 
ATOM     15  C   UNL     1       1.629   3.975  19.620  0.00  0.00    +0.000 A 
ATOM     16  F   UNL     1       0.522   4.032  20.372  0.00  0.00    +0.000 F 
ATOM     17  C   UNL     1       2.415   2.825  19.640  0.00  0.00    +0.000 A 
ATOM     18  C   UNL     1       3.594   2.783  18.896  0.00  0.00    +0.000 A 
ENDBRANCH  11  12
ENDBRANCH   8  11
ENDBRANCH   3   5
BRANCH   1  19
ATOM     19  C   UNL     1       9.596  10.144  19.061  0.00  0.00    +0.000 C 
BRANCH  19  22
ATOM     20  C   UNL     1       9.780  11.725  20.937  0.00  0.00    +0.000 C 
ATOM     21  O   UNL     1      10.966  11.931  20.697  0.00  0.00    +0.000 OA
ATOM     22  N   UNL     1       9.021  10.860  20.183  0.00  0.00    +0.000 N 
ATOM     23  H   UNL     1       8.060  10.658  20.428  0.00  0.00    +0.000 HD
BRANCH  20  29
ATOM     24  C   UNL     1       6.644  11.446  24.813  0.00  0.00    +0.000 C 
ATOM     25  C   UNL     1       7.554  12.264  23.943  0.00  0.00    +0.000 A 
ATOM     26  C   UNL     1       7.736  13.634  24.183  0.00  0.00    +0.000 A 
ATOM     27  C   UNL     1       8.581  14.388  23.367  0.00  0.00    +0.000 A 
ATOM     28  C   UNL     1       9.260  13.782  22.308  0.00  0.00    +0.000 A 
ATOM     29  C   UNL     1       9.093  12.413  22.063  0.00  0.00    +0.000 A 
ATOM     30  C   UNL     1       8.235  11.663  22.878  0.00  0.00    +0.000 A 
ENDBRANCH  20  29
ENDBRANCH  19  22
ENDBRANCH   1  19
TORSDOF 6
ENDMDL
