MODEL 1
REMARK VINA RESULT:      -9.5      0.000      0.000
REMARK  Name = 
REMARK  5 active torsions:
REMARK  status: ('A' for Active; 'I' for Inactive)
REMARK    1  A    between atoms: C_2  and  C_16
REMARK    2  A    between atoms: N_3  and  C_4
REMARK    3  A    between atoms: C_4  and  C_5
REMARK    4  A    between atoms: C_5  and  C_6
REMARK    5  A    between atoms: C_9  and  C_10
REMARK                            x       y       z     vdW  Elec       q    Type
REMARK                         _______ _______ _______ _____ _____    ______ ____
ROOT
ATOM      1  O   UNL     1       8.188   4.919  17.004  0.00  0.00    +0.000 OA
ATOM      2  C   UNL     1       7.269   5.241  17.750  0.00  0.00    +0.000 C 
ATOM      3  N   UNL     1       7.235   6.449  18.440  0.00  0.00    +0.000 N 
ATOM      4  H   UNL     1       6.450   6.595  19.068  0.00  0.00    +0.000 HD
ENDROOT
BRANCH   2   5
ATOM      5  C   UNL     1       6.108   4.372  18.082  0.00  0.00    +0.000 A 
ATOM      6  N   UNL     1       5.332   3.888  17.040  0.00  0.00    +0.000 NA
ATOM      7  C   UNL     1       4.235   3.551  17.651  0.00  0.00    +0.000 A 
ATOM      8  N   UNL     1       4.391   3.625  19.017  0.00  0.00    +0.000 N 
ATOM      9  N   UNL     1       5.624   4.081  19.321  0.00  0.00    +0.000 NA
ATOM     10  C   UNL     1       3.291   3.459  19.887  0.00  0.00    +0.000 A 
ATOM     11  C   UNL     1       3.376   2.746  21.083  0.00  0.00    +0.000 A 
ATOM     12  C   UNL     1       2.180   2.392  21.732  0.00  0.00    +0.000 A 
ATOM     13  C   UNL     1       0.933   2.826  21.258  0.00  0.00    +0.000 A 
ATOM     14  C   UNL     1       0.852   3.590  20.098  0.00  0.00    +0.000 A 
ATOM     15  C   UNL     1       2.026   3.853  19.400  0.00  0.00    +0.000 A 
ATOM     16  S   UNL     1       1.917   4.511  17.739  0.00  0.00    +0.000 S 
ATOM     17  O   UNL     1       0.597   4.209  17.252  0.00  0.00    +0.000 OA
ATOM     18  O   UNL     1       2.504   5.829  17.760  0.00  0.00    +0.000 OA
ATOM     19  N   UNL     1       2.991   3.404  16.970  0.00  0.00    +0.000 N 
ATOM     20  H   UNL     1       2.582   2.478  17.115  0.00  0.00    +0.000 HD
ENDBRANCH   2   5
BRANCH   3  21
ATOM     21  C   UNL     1       8.305   7.424  18.365  0.00  0.00    +0.000 C 
BRANCH  21  22
ATOM     22  C   UNL     1       7.899   8.767  17.737  0.00  0.00    +0.000 C 
BRANCH  22  23
ATOM     23  C   UNL     1       8.574   9.997  18.302  0.00  0.00    +0.000 A 
ATOM     24  C   UNL     1       9.355   9.902  19.465  0.00  0.00    +0.000 A 
ATOM     25  C   UNL     1      10.036  11.020  19.962  0.00  0.00    +0.000 A 
ATOM     26  C   UNL     1       9.954  12.257  19.314  0.00  0.00    +0.000 A 
ATOM     27  C   UNL     1       9.173  12.350  18.150  0.00  0.00    +0.000 A 
ATOM     28  C   UNL     1       8.500  11.231  17.649  0.00  0.00    +0.000 A 
BRANCH  26  29
ATOM     29  C   UNL     1      10.688  13.469  19.829  0.00  0.00    +0.000 C 
ATOM     30  F   UNL     1      10.449  14.595  19.097  0.00  0.00    +0.000 F 
ATOM     31  F   UNL     1      10.351  13.781  21.109  0.00  0.00    +0.000 F 
ATOM     32  F   UNL     1      12.040  13.306  19.824  0.00  0.00    +0.000 F 
ENDBRANCH  26  29
ENDBRANCH  22  23
ENDBRANCH  21  22
ENDBRANCH   3  21
TORSDOF 5
ENDMDL
MODEL 2
REMARK VINA RESULT:      -9.0      0.719      1.292
REMARK  Name = 
REMARK  5 active torsions:
REMARK  status: ('A' for Active; 'I' for Inactive)
REMARK    1  A    between atoms: C_2  and  C_16
REMARK    2  A    between atoms: N_3  and  C_4
REMARK    3  A    between atoms: C_4  and  C_5
REMARK    4  A    between atoms: C_5  and  C_6
REMARK    5  A    between atoms: C_9  and  C_10
REMARK                            x       y       z     vdW  Elec       q    Type
REMARK                         _______ _______ _______ _____ _____    ______ ____
ROOT
ATOM      1  O   UNL     1       8.471   5.408  18.209  0.00  0.00    +0.000 OA
ATOM      2  C   UNL     1       7.284   5.671  18.039  0.00  0.00    +0.000 C 
ATOM      3  N   UNL     1       6.829   6.928  17.657  0.00  0.00    +0.000 N 
ATOM      4  H   UNL     1       5.821   7.049  17.590  0.00  0.00    +0.000 HD
ENDROOT
BRANCH   2   5
ATOM      5  C   UNL     1       6.166   4.719  18.286  0.00  0.00    +0.000 A 
ATOM      6  N   UNL     1       5.475   4.223  17.192  0.00  0.00    +0.000 NA
ATOM      7  C   UNL     1       4.373   3.797  17.736  0.00  0.00    +0.000 A 
ATOM      8  N   UNL     1       4.459   3.835  19.110  0.00  0.00    +0.000 N 
ATOM      9  N   UNL     1       5.643   4.357  19.490  0.00  0.00    +0.000 NA
ATOM     10  C   UNL     1       3.331   3.571  19.919  0.00  0.00    +0.000 A 
ATOM     11  C   UNL     1       3.404   2.825  21.094  0.00  0.00    +0.000 A 
ATOM     12  C   UNL     1       2.203   2.374  21.672  0.00  0.00    +0.000 A 
ATOM     13  C   UNL     1       0.955   2.746  21.150  0.00  0.00    +0.000 A 
ATOM     14  C   UNL     1       0.881   3.541  20.011  0.00  0.00    +0.000 A 
ATOM     15  C   UNL     1       2.067   3.901  19.381  0.00  0.00    +0.000 A 
ATOM     16  S   UNL     1       1.997   4.607  17.737  0.00  0.00    +0.000 S 
ATOM     17  O   UNL     1       0.724   4.239  17.176  0.00  0.00    +0.000 OA
ATOM     18  O   UNL     1       2.496   5.957  17.828  0.00  0.00    +0.000 OA
ATOM     19  N   UNL     1       3.176   3.596  16.989  0.00  0.00    +0.000 N 
ATOM     20  H   UNL     1       2.821   2.642  17.086  0.00  0.00    +0.000 HD
ENDBRANCH   2   5
BRANCH   3  21
ATOM     21  C   UNL     1       7.717   8.055  17.456  0.00  0.00    +0.000 C 
BRANCH  21  22
ATOM     22  C   UNL     1       8.521   8.463  18.702  0.00  0.00    +0.000 C 
BRANCH  22  23
ATOM     23  C   UNL     1       8.933   9.915  18.781  0.00  0.00    +0.000 A 
ATOM     24  C   UNL     1       8.616  10.799  17.737  0.00  0.00    +0.000 A 
ATOM     25  C   UNL     1       8.936  12.159  17.827  0.00  0.00    +0.000 A 
ATOM     26  C   UNL     1       9.581  12.669  18.958  0.00  0.00    +0.000 A 
ATOM     27  C   UNL     1       9.898  11.785  20.002  0.00  0.00    +0.000 A 
ATOM     28  C   UNL     1       9.570  10.428  19.916  0.00  0.00    +0.000 A 
BRANCH  26  29
ATOM     29  C   UNL     1       9.926  14.132  19.078  0.00  0.00    +0.000 C 
ATOM     30  F   UNL     1       9.247  14.766  20.077  0.00  0.00    +0.000 F 
ATOM     31  F   UNL     1      11.245  14.340  19.337  0.00  0.00    +0.000 F 
ATOM     32  F   UNL     1       9.650  14.832  17.942  0.00  0.00    +0.000 F 
ENDBRANCH  26  29
ENDBRANCH  22  23
ENDBRANCH  21  22
ENDBRANCH   3  21
TORSDOF 5
ENDMDL
MODEL 3
REMARK VINA RESULT:      -8.8      6.969      9.169
REMARK  Name = 
REMARK  5 active torsions:
REMARK  status: ('A' for Active; 'I' for Inactive)
REMARK    1  A    between atoms: C_2  and  C_16
REMARK    2  A    between atoms: N_3  and  C_4
REMARK    3  A    between atoms: C_4  and  C_5
REMARK    4  A    between atoms: C_5  and  C_6
REMARK    5  A    between atoms: C_9  and  C_10
REMARK                            x       y       z     vdW  Elec       q    Type
REMARK                         _______ _______ _______ _____ _____    ______ ____
ROOT
ATOM      1  O   UNL     1       1.583   6.326  20.756  0.00  0.00    +0.000 OA
ATOM      2  C   UNL     1       2.196   6.647  19.743  0.00  0.00    +0.000 C 
ATOM      3  N   UNL     1       2.129   7.918  19.182  0.00  0.00    +0.000 N 
ATOM      4  H   UNL     1       2.640   8.064  18.316  0.00  0.00    +0.000 HD
ENDROOT
BRANCH   2   5
ATOM      5  C   UNL     1       3.031   5.720  18.933  0.00  0.00    +0.000 A 
ATOM      6  N   UNL     1       3.879   4.849  19.600  0.00  0.00    +0.000 NA
ATOM      7  C   UNL     1       4.716   4.512  18.663  0.00  0.00    +0.000 A 
ATOM      8  N   UNL     1       4.294   4.979  17.438  0.00  0.00    +0.000 N 
ATOM      9  N   UNL     1       3.163   5.699  17.577  0.00  0.00    +0.000 NA
ATOM     10  C   UNL     1       5.118   4.874  16.295  0.00  0.00    +0.000 A 
ATOM     11  C   UNL     1       4.621   4.536  15.037  0.00  0.00    +0.000 A 
ATOM     12  C   UNL     1       5.540   4.176  14.034  0.00  0.00    +0.000 A 
ATOM     13  C   UNL     1       6.925   4.252  14.248  0.00  0.00    +0.000 A 
ATOM     14  C   UNL     1       7.421   4.648  15.485  0.00  0.00    +0.000 A 
ATOM     15  C   UNL     1       6.513   4.904  16.507  0.00  0.00    +0.000 A 
ATOM     16  S   UNL     1       7.119   5.060  18.185  0.00  0.00    +0.000 S 
ATOM     17  O   UNL     1       8.407   4.422  18.229  0.00  0.00    +0.000 OA
ATOM     18  O   UNL     1       6.857   6.412  18.612  0.00  0.00    +0.000 OA
ATOM     19  N   UNL     1       6.009   3.981  18.944  0.00  0.00    +0.000 N 
ATOM     20  H   UNL     1       6.155   3.074  18.493  0.00  0.00    +0.000 HD
ENDBRANCH   2   5
BRANCH   3  21
ATOM     21  C   UNL     1       1.297   8.973  19.728  0.00  0.00    +0.000 C 
BRANCH  21  22
ATOM     22  C   UNL     1       0.984  10.112  18.744  0.00  0.00    +0.000 C 
BRANCH  22  23
ATOM     23  C   UNL     1      -0.476  10.471  18.585  0.00  0.00    +0.000 A 
ATOM     24  C   UNL     1      -1.011  11.575  19.268  0.00  0.00    +0.000 A 
ATOM     25  C   UNL     1      -2.346  11.954  19.080  0.00  0.00    +0.000 A 
ATOM     26  C   UNL     1      -3.177  11.243  18.209  0.00  0.00    +0.000 A 
ATOM     27  C   UNL     1      -2.641  10.140  17.526  0.00  0.00    +0.000 A 
ATOM     28  C   UNL     1      -1.305   9.766  17.707  0.00  0.00    +0.000 A 
BRANCH  26  29
ATOM     29  C   UNL     1      -4.614  11.643  17.986  0.00  0.00    +0.000 C 
ATOM     30  F   UNL     1      -5.071  12.543  18.903  0.00  0.00    +0.000 F 
ATOM     31  F   UNL     1      -4.816  12.217  16.770  0.00  0.00    +0.000 F 
ATOM     32  F   UNL     1      -5.469  10.585  18.049  0.00  0.00    +0.000 F 
ENDBRANCH  26  29
ENDBRANCH  22  23
ENDBRANCH  21  22
ENDBRANCH   3  21
TORSDOF 5
ENDMDL
MODEL 4
REMARK VINA RESULT:      -8.5      7.528      8.861
REMARK  Name = 
REMARK  5 active torsions:
REMARK  status: ('A' for Active; 'I' for Inactive)
REMARK    1  A    between atoms: C_2  and  C_16
REMARK    2  A    between atoms: N_3  and  C_4
REMARK    3  A    between atoms: C_4  and  C_5
REMARK    4  A    between atoms: C_5  and  C_6
REMARK    5  A    between atoms: C_9  and  C_10
REMARK                            x       y       z     vdW  Elec       q    Type
REMARK                         _______ _______ _______ _____ _____    ______ ____
ROOT
ATOM      1  O   UNL     1       2.156   9.971  17.555  0.00  0.00    +0.000 OA
ATOM      2  C   UNL     1       1.688   9.244  18.425  0.00  0.00    +0.000 C 
ATOM      3  N   UNL     1       0.595   9.600  19.210  0.00  0.00    +0.000 N 
ATOM      4  H   UNL     1       0.317   8.941  19.933  0.00  0.00    +0.000 HD
ENDROOT
BRANCH   2   5
ATOM      5  C   UNL     1       2.254   7.925  18.817  0.00  0.00    +0.000 A 
ATOM      6  N   UNL     1       3.098   7.283  17.924  0.00  0.00    +0.000 NA
ATOM      7  C   UNL     1       3.070   6.056  18.354  0.00  0.00    +0.000 A 
ATOM      8  N   UNL     1       2.415   5.977  19.564  0.00  0.00    +0.000 N 
ATOM      9  N   UNL     1       1.946   7.190  19.921  0.00  0.00    +0.000 NA
ATOM     10  C   UNL     1       2.119   4.727  20.152  0.00  0.00    +0.000 A 
ATOM     11  C   UNL     1       2.242   4.490  21.521  0.00  0.00    +0.000 A 
ATOM     12  C   UNL     1       2.206   3.158  21.971  0.00  0.00    +0.000 A 
ATOM     13  C   UNL     1       1.949   2.095  21.092  0.00  0.00    +0.000 A 
ATOM     14  C   UNL     1       1.766   2.337  19.735  0.00  0.00    +0.000 A 
ATOM     15  C   UNL     1       1.904   3.642  19.274  0.00  0.00    +0.000 A 
ATOM     16  S   UNL     1       2.032   3.931  17.512  0.00  0.00    +0.000 S 
ATOM     17  O   UNL     1       2.438   2.689  16.910  0.00  0.00    +0.000 OA
ATOM     18  O   UNL     1       0.875   4.696  17.117  0.00  0.00    +0.000 OA
ATOM     19  N   UNL     1       3.425   4.946  17.534  0.00  0.00    +0.000 N 
ATOM     20  H   UNL     1       4.169   4.383  17.955  0.00  0.00    +0.000 HD
ENDBRANCH   2   5
BRANCH   3  21
ATOM     21  C   UNL     1      -0.070  10.882  19.091  0.00  0.00    +0.000 C 
BRANCH  21  22
ATOM     22  C   UNL     1       0.135  11.819  20.294  0.00  0.00    +0.000 C 
BRANCH  22  23
ATOM     23  C   UNL     1      -1.066  12.023  21.189  0.00  0.00    +0.000 A 
ATOM     24  C   UNL     1      -1.044  11.567  22.517  0.00  0.00    +0.000 A 
ATOM     25  C   UNL     1      -2.125  11.805  23.374  0.00  0.00    +0.000 A 
ATOM     26  C   UNL     1      -3.253  12.501  22.928  0.00  0.00    +0.000 A 
ATOM     27  C   UNL     1      -3.275  12.957  21.600  0.00  0.00    +0.000 A 
ATOM     28  C   UNL     1      -2.191  12.727  20.746  0.00  0.00    +0.000 A 
BRANCH  26  29
ATOM     29  C   UNL     1      -4.423  12.776  23.839  0.00  0.00    +0.000 C 
ATOM     30  F   UNL     1      -5.630  12.682  23.210  0.00  0.00    +0.000 F 
ATOM     31  F   UNL     1      -4.484  11.913  24.888  0.00  0.00    +0.000 F 
ATOM     32  F   UNL     1      -4.385  14.025  24.381  0.00  0.00    +0.000 F 
ENDBRANCH  26  29
ENDBRANCH  22  23
ENDBRANCH  21  22
ENDBRANCH   3  21
TORSDOF 5
ENDMDL
MODEL 5
REMARK VINA RESULT:      -8.5      6.233      8.504
REMARK  Name = 
REMARK  5 active torsions:
REMARK  status: ('A' for Active; 'I' for Inactive)
REMARK    1  A    between atoms: C_2  and  C_16
REMARK    2  A    between atoms: N_3  and  C_4
REMARK    3  A    between atoms: C_4  and  C_5
REMARK    4  A    between atoms: C_5  and  C_6
REMARK    5  A    between atoms: C_9  and  C_10
REMARK                            x       y       z     vdW  Elec       q    Type
REMARK                         _______ _______ _______ _____ _____    ______ ____
ROOT
ATOM      1  O   UNL     1       0.770   4.550  20.546  0.00  0.00    +0.000 OA
ATOM      2  C   UNL     1       1.745   5.148  20.102  0.00  0.00    +0.000 C 
ATOM      3  N   UNL     1       1.990   6.495  20.347  0.00  0.00    +0.000 N 
ATOM      4  H   UNL     1       2.803   6.903  19.892  0.00  0.00    +0.000 HD
ENDROOT
BRANCH   2   5
ATOM      5  C   UNL     1       2.756   4.551  19.188  0.00  0.00    +0.000 A 
ATOM      6  N   UNL     1       3.770   3.785  19.742  0.00  0.00    +0.000 NA
ATOM      7  C   UNL     1       4.658   3.777  18.792  0.00  0.00    +0.000 A 
ATOM      8  N   UNL     1       4.145   4.328  17.638  0.00  0.00    +0.000 N 
ATOM      9  N   UNL     1       2.886   4.766  17.849  0.00  0.00    +0.000 NA
ATOM     10  C   UNL     1       4.970   4.574  16.518  0.00  0.00    +0.000 A 
ATOM     11  C   UNL     1       4.553   4.336  15.209  0.00  0.00    +0.000 A 
ATOM     12  C   UNL     1       5.525   4.335  14.192  0.00  0.00    +0.000 A 
ATOM     13  C   UNL     1       6.863   4.664  14.457  0.00  0.00    +0.000 A 
ATOM     14  C   UNL     1       7.267   4.961  15.754  0.00  0.00    +0.000 A 
ATOM     15  C   UNL     1       6.328   4.862  16.775  0.00  0.00    +0.000 A 
ATOM     16  S   UNL     1       6.889   4.882  18.475  0.00  0.00    +0.000 S 
ATOM     17  O   UNL     1       8.284   4.528  18.462  0.00  0.00    +0.000 OA
ATOM     18  O   UNL     1       6.348   6.068  19.092  0.00  0.00    +0.000 OA
ATOM     19  N   UNL     1       6.034   3.492  19.029  0.00  0.00    +0.000 N 
ATOM     20  H   UNL     1       6.368   2.716  18.452  0.00  0.00    +0.000 HD
ENDBRANCH   2   5
BRANCH   3  21
ATOM     21  C   UNL     1       1.092   7.326  21.125  0.00  0.00    +0.000 C 
BRANCH  21  22
ATOM     22  C   UNL     1       1.448   8.821  21.126  0.00  0.00    +0.000 C 
BRANCH  22  23
ATOM     23  C   UNL     1       0.336   9.769  21.514  0.00  0.00    +0.000 A 
ATOM     24  C   UNL     1      -0.167   9.770  22.825  0.00  0.00    +0.000 A 
ATOM     25  C   UNL     1      -1.153  10.685  23.213  0.00  0.00    +0.000 A 
ATOM     26  C   UNL     1      -1.661  11.620  22.304  0.00  0.00    +0.000 A 
ATOM     27  C   UNL     1      -1.157  11.618  20.994  0.00  0.00    +0.000 A 
ATOM     28  C   UNL     1      -0.166  10.710  20.608  0.00  0.00    +0.000 A 
BRANCH  26  29
ATOM     29  C   UNL     1      -2.716  12.619  22.705  0.00  0.00    +0.000 C 
ATOM     30  F   UNL     1      -3.887  12.471  22.023  0.00  0.00    +0.000 F 
ATOM     31  F   UNL     1      -3.042  12.536  24.023  0.00  0.00    +0.000 F 
ATOM     32  F   UNL     1      -2.326  13.907  22.494  0.00  0.00    +0.000 F 
ENDBRANCH  26  29
ENDBRANCH  22  23
ENDBRANCH  21  22
ENDBRANCH   3  21
TORSDOF 5
ENDMDL
MODEL 6
REMARK VINA RESULT:      -8.5      7.069      9.269
REMARK  Name = 
REMARK  5 active torsions:
REMARK  status: ('A' for Active; 'I' for Inactive)
REMARK    1  A    between atoms: C_2  and  C_16
REMARK    2  A    between atoms: N_3  and  C_4
REMARK    3  A    between atoms: C_4  and  C_5
REMARK    4  A    between atoms: C_5  and  C_6
REMARK    5  A    between atoms: C_9  and  C_10
REMARK                            x       y       z     vdW  Elec       q    Type
REMARK                         _______ _______ _______ _____ _____    ______ ____
ROOT
ATOM      1  O   UNL     1       1.955   6.759  20.914  0.00  0.00    +0.000 OA
ATOM      2  C   UNL     1       2.342   6.950  19.766  0.00  0.00    +0.000 C 
ATOM      3  N   UNL     1       2.048   8.101  19.043  0.00  0.00    +0.000 N 
ATOM      4  H   UNL     1       2.380   8.136  18.083  0.00  0.00    +0.000 HD
ENDROOT
BRANCH   2   5
ATOM      5  C   UNL     1       3.111   5.963  18.961  0.00  0.00    +0.000 A 
ATOM      6  N   UNL     1       3.919   5.057  19.631  0.00  0.00    +0.000 NA
ATOM      7  C   UNL     1       4.721   4.656  18.689  0.00  0.00    +0.000 A 
ATOM      8  N   UNL     1       4.308   5.126  17.462  0.00  0.00    +0.000 N 
ATOM      9  N   UNL     1       3.221   5.911  17.604  0.00  0.00    +0.000 NA
ATOM     10  C   UNL     1       5.107   4.955  16.309  0.00  0.00    +0.000 A 
ATOM     11  C   UNL     1       4.572   4.624  15.064  0.00  0.00    +0.000 A 
ATOM     12  C   UNL     1       5.454   4.196  14.055  0.00  0.00    +0.000 A 
ATOM     13  C   UNL     1       6.844   4.197  14.248  0.00  0.00    +0.000 A 
ATOM     14  C   UNL     1       7.380   4.585  15.471  0.00  0.00    +0.000 A 
ATOM     15  C   UNL     1       6.504   4.909  16.501  0.00  0.00    +0.000 A 
ATOM     16  S   UNL     1       7.143   5.059  18.167  0.00  0.00    +0.000 S 
ATOM     17  O   UNL     1       8.394   4.349  18.203  0.00  0.00    +0.000 OA
ATOM     18  O   UNL     1       6.965   6.431  18.574  0.00  0.00    +0.000 OA
ATOM     19  N   UNL     1       5.986   4.058  18.960  0.00  0.00    +0.000 N 
ATOM     20  H   UNL     1       6.074   3.137  18.524  0.00  0.00    +0.000 HD
ENDBRANCH   2   5
BRANCH   3  21
ATOM     21  C   UNL     1       1.223   9.169  19.572  0.00  0.00    +0.000 C 
BRANCH  21  22
ATOM     22  C   UNL     1       0.881  10.273  18.558  0.00  0.00    +0.000 C 
BRANCH  22  23
ATOM     23  C   UNL     1      -0.587  10.598  18.399  0.00  0.00    +0.000 A 
ATOM     24  C   UNL     1      -1.405   9.796  17.588  0.00  0.00    +0.000 A 
ATOM     25  C   UNL     1      -2.778  10.051  17.483  0.00  0.00    +0.000 A 
ATOM     26  C   UNL     1      -3.367  11.109  18.182  0.00  0.00    +0.000 A 
ATOM     27  C   UNL     1      -2.548  11.910  18.994  0.00  0.00    +0.000 A 
ATOM     28  C   UNL     1      -1.178  11.651  19.106  0.00  0.00    +0.000 A 
BRANCH  26  29
ATOM     29  C   UNL     1      -4.845  11.393  18.089  0.00  0.00    +0.000 C 
ATOM     30  F   UNL     1      -5.130  12.565  17.454  0.00  0.00    +0.000 F 
ATOM     31  F   UNL     1      -5.521  10.429  17.409  0.00  0.00    +0.000 F 
ATOM     32  F   UNL     1      -5.441  11.480  19.311  0.00  0.00    +0.000 F 
ENDBRANCH  26  29
ENDBRANCH  22  23
ENDBRANCH  21  22
ENDBRANCH   3  21
TORSDOF 5
ENDMDL
MODEL 7
REMARK VINA RESULT:      -8.4      7.432      8.645
REMARK  Name = 
REMARK  5 active torsions:
REMARK  status: ('A' for Active; 'I' for Inactive)
REMARK    1  A    between atoms: C_2  and  C_16
REMARK    2  A    between atoms: N_3  and  C_4
REMARK    3  A    between atoms: C_4  and  C_5
REMARK    4  A    between atoms: C_5  and  C_6
REMARK    5  A    between atoms: C_9  and  C_10
REMARK                            x       y       z     vdW  Elec       q    Type
REMARK                         _______ _______ _______ _____ _____    ______ ____
ROOT
ATOM      1  O   UNL     1       2.120   9.781  17.343  0.00  0.00    +0.000 OA
ATOM      2  C   UNL     1       1.803   9.187  18.369  0.00  0.00    +0.000 C 
ATOM      3  N   UNL     1       0.939   9.717  19.321  0.00  0.00    +0.000 N 
ATOM      4  H   UNL     1       0.779   9.160  20.156  0.00  0.00    +0.000 HD
ENDROOT
BRANCH   2   5
ATOM      5  C   UNL     1       2.344   7.862  18.778  0.00  0.00    +0.000 A 
ATOM      6  N   UNL     1       3.180   7.195  17.896  0.00  0.00    +0.000 NA
ATOM      7  C   UNL     1       3.127   5.974  18.340  0.00  0.00    +0.000 A 
ATOM      8  N   UNL     1       2.466   5.921  19.547  0.00  0.00    +0.000 N 
ATOM      9  N   UNL     1       2.017   7.146  19.889  0.00  0.00    +0.000 NA
ATOM     10  C   UNL     1       2.145   4.683  20.148  0.00  0.00    +0.000 A 
ATOM     11  C   UNL     1       2.258   4.460  21.520  0.00  0.00    +0.000 A 
ATOM     12  C   UNL     1       2.196   3.134  21.986  0.00  0.00    +0.000 A 
ATOM     13  C   UNL     1       1.924   2.065  21.117  0.00  0.00    +0.000 A 
ATOM     14  C   UNL     1       1.750   2.296  19.757  0.00  0.00    +0.000 A 
ATOM     15  C   UNL     1       1.914   3.593  19.282  0.00  0.00    +0.000 A 
ATOM     16  S   UNL     1       2.055   3.859  17.517  0.00  0.00    +0.000 S 
ATOM     17  O   UNL     1       2.441   2.602  16.932  0.00  0.00    +0.000 OA
ATOM     18  O   UNL     1       0.914   4.640  17.109  0.00  0.00    +0.000 OA
ATOM     19  N   UNL     1       3.466   4.849  17.534  0.00  0.00    +0.000 N 
ATOM     20  H   UNL     1       4.198   4.277  17.964  0.00  0.00    +0.000 HD
ENDBRANCH   2   5
BRANCH   3  21
ATOM     21  C   UNL     1       0.359  11.041  19.202  0.00  0.00    +0.000 C 
BRANCH  21  22
ATOM     22  C   UNL     1       0.642  11.969  20.394  0.00  0.00    +0.000 C 
BRANCH  22  23
ATOM     23  C   UNL     1      -0.516  12.215  21.335  0.00  0.00    +0.000 A 
ATOM     24  C   UNL     1      -1.366  13.316  21.137  0.00  0.00    +0.000 A 
ATOM     25  C   UNL     1      -2.478  13.518  21.963  0.00  0.00    +0.000 A 
ATOM     26  C   UNL     1      -2.768  12.631  23.005  0.00  0.00    +0.000 A 
ATOM     27  C   UNL     1      -1.918  11.531  23.201  0.00  0.00    +0.000 A 
ATOM     28  C   UNL     1      -0.812  11.324  22.371  0.00  0.00    +0.000 A 
BRANCH  26  29
ATOM     29  C   UNL     1      -3.967  12.828  23.899  0.00  0.00    +0.000 C 
ATOM     30  F   UNL     1      -3.896  13.961  24.655  0.00  0.00    +0.000 F 
ATOM     31  F   UNL     1      -5.131  12.920  23.202  0.00  0.00    +0.000 F 
ATOM     32  F   UNL     1      -4.137  11.805  24.782  0.00  0.00    +0.000 F 
ENDBRANCH  26  29
ENDBRANCH  22  23
ENDBRANCH  21  22
ENDBRANCH   3  21
TORSDOF 5
ENDMDL
MODEL 8
REMARK VINA RESULT:      -8.4      8.740     10.763
REMARK  Name = 
REMARK  5 active torsions:
REMARK  status: ('A' for Active; 'I' for Inactive)
REMARK    1  A    between atoms: C_2  and  C_16
REMARK    2  A    between atoms: N_3  and  C_4
REMARK    3  A    between atoms: C_4  and  C_5
REMARK    4  A    between atoms: C_5  and  C_6
REMARK    5  A    between atoms: C_9  and  C_10
REMARK                            x       y       z     vdW  Elec       q    Type
REMARK                         _______ _______ _______ _____ _____    ______ ____
ROOT
ATOM      1  O   UNL     1       1.103   9.564  20.200  0.00  0.00    +0.000 OA
ATOM      2  C   UNL     1       0.759   9.847  19.057  0.00  0.00    +0.000 C 
ATOM      3  N   UNL     1       1.445   9.419  17.926  0.00  0.00    +0.000 N 
ATOM      4  H   UNL     1       1.100   9.750  17.029  0.00  0.00    +0.000 HD
ENDROOT
BRANCH   2   5
ATOM      5  C   UNL     1      -0.382  10.740  18.718  0.00  0.00    +0.000 A 
ATOM      6  N   UNL     1      -0.250  12.097  18.969  0.00  0.00    +0.000 NA
ATOM      7  C   UNL     1      -1.487  12.498  18.965  0.00  0.00    +0.000 A 
ATOM      8  N   UNL     1      -2.325  11.494  18.532  0.00  0.00    +0.000 N 
ATOM      9  N   UNL     1      -1.621  10.369  18.292  0.00  0.00    +0.000 NA
ATOM     10  C   UNL     1      -3.729  11.639  18.593  0.00  0.00    +0.000 A 
ATOM     11  C   UNL     1      -4.577  11.197  17.578  0.00  0.00    +0.000 A 
ATOM     12  C   UNL     1      -5.914  11.637  17.589  0.00  0.00    +0.000 A 
ATOM     13  C   UNL     1      -6.420  12.413  18.643  0.00  0.00    +0.000 A 
ATOM     14  C   UNL     1      -5.589  12.803  19.687  0.00  0.00    +0.000 A 
ATOM     15  C   UNL     1      -4.244  12.455  19.623  0.00  0.00    +0.000 A 
ATOM     16  S   UNL     1      -3.091  13.238  20.748  0.00  0.00    +0.000 S 
ATOM     17  O   UNL     1      -3.714  14.449  21.214  0.00  0.00    +0.000 OA
ATOM     18  O   UNL     1      -2.559  12.206  21.604  0.00  0.00    +0.000 OA
ATOM     19  N   UNL     1      -1.905  13.708  19.590  0.00  0.00    +0.000 N 
ATOM     20  H   UNL     1      -2.389  14.329  18.937  0.00  0.00    +0.000 HD
ENDBRANCH   2   5
BRANCH   3  21
ATOM     21  C   UNL     1       2.653   8.622  17.998  0.00  0.00    +0.000 C 
BRANCH  21  22
ATOM     22  C   UNL     1       2.537   7.229  17.356  0.00  0.00    +0.000 C 
BRANCH  22  23
ATOM     23  C   UNL     1       2.308   6.076  18.306  0.00  0.00    +0.000 A 
ATOM     24  C   UNL     1       2.035   4.792  17.807  0.00  0.00    +0.000 A 
ATOM     25  C   UNL     1       1.884   3.704  18.675  0.00  0.00    +0.000 A 
ATOM     26  C   UNL     1       1.999   3.870  20.059  0.00  0.00    +0.000 A 
ATOM     27  C   UNL     1       2.273   5.154  20.557  0.00  0.00    +0.000 A 
ATOM     28  C   UNL     1       2.433   6.240  19.690  0.00  0.00    +0.000 A 
BRANCH  26  29
ATOM     29  C   UNL     1       1.849   2.709  21.010  0.00  0.00    +0.000 C 
ATOM     30  F   UNL     1       0.847   2.882  21.918  0.00  0.00    +0.000 F 
ATOM     31  F   UNL     1       1.571   1.541  20.370  0.00  0.00    +0.000 F 
ATOM     32  F   UNL     1       2.975   2.479  21.741  0.00  0.00    +0.000 F 
ENDBRANCH  26  29
ENDBRANCH  22  23
ENDBRANCH  21  22
ENDBRANCH   3  21
TORSDOF 5
ENDMDL
MODEL 9
REMARK VINA RESULT:      -8.4      6.379      8.652
REMARK  Name = 
REMARK  5 active torsions:
REMARK  status: ('A' for Active; 'I' for Inactive)
REMARK    1  A    between atoms: C_2  and  C_16
REMARK    2  A    between atoms: N_3  and  C_4
REMARK    3  A    between atoms: C_4  and  C_5
REMARK    4  A    between atoms: C_5  and  C_6
REMARK    5  A    between atoms: C_9  and  C_10
REMARK                            x       y       z     vdW  Elec       q    Type
REMARK                         _______ _______ _______ _____ _____    ______ ____
ROOT
ATOM      1  O   UNL     1       1.103   5.389  20.800  0.00  0.00    +0.000 OA
ATOM      2  C   UNL     1       1.991   5.897  20.123  0.00  0.00    +0.000 C 
ATOM      3  N   UNL     1       2.236   7.266  20.089  0.00  0.00    +0.000 N 
ATOM      4  H   UNL     1       2.966   7.585  19.458  0.00  0.00    +0.000 HD
ENDROOT
BRANCH   2   5
ATOM      5  C   UNL     1       2.877   5.145  19.194  0.00  0.00    +0.000 A 
ATOM      6  N   UNL     1       3.778   4.241  19.735  0.00  0.00    +0.000 NA
ATOM      7  C   UNL     1       4.630   4.090  18.764  0.00  0.00    +0.000 A 
ATOM      8  N   UNL     1       4.176   4.700  17.615  0.00  0.00    +0.000 N 
ATOM      9  N   UNL     1       3.004   5.323  17.849  0.00  0.00    +0.000 NA
ATOM     10  C   UNL     1       5.000   4.807  16.472  0.00  0.00    +0.000 A 
ATOM     11  C   UNL     1       4.519   4.621  15.177  0.00  0.00    +0.000 A 
ATOM     12  C   UNL     1       5.453   4.462  14.137  0.00  0.00    +0.000 A 
ATOM     13  C   UNL     1       6.832   4.590  14.366  0.00  0.00    +0.000 A 
ATOM     14  C   UNL     1       7.309   4.836  15.649  0.00  0.00    +0.000 A 
ATOM     15  C   UNL     1       6.392   4.890  16.693  0.00  0.00    +0.000 A 
ATOM     16  S   UNL     1       6.994   4.844  18.379  0.00  0.00    +0.000 S 
ATOM     17  O   UNL     1       8.319   4.284  18.337  0.00  0.00    +0.000 OA
ATOM     18  O   UNL     1       6.653   6.104  18.991  0.00  0.00    +0.000 OA
ATOM     19  N   UNL     1       5.954   3.604  18.972  0.00  0.00    +0.000 N 
ATOM     20  H   UNL     1       6.153   2.780  18.399  0.00  0.00    +0.000 HD
ENDBRANCH   2   5
BRANCH   3  21
ATOM     21  C   UNL     1       1.437   8.223  20.828  0.00  0.00    +0.000 C 
BRANCH  21  22
ATOM     22  C   UNL     1       1.394   9.630  20.210  0.00  0.00    +0.000 C 
BRANCH  22  23
ATOM     23  C   UNL     1       0.213   9.926  19.314  0.00  0.00    +0.000 A 
ATOM     24  C   UNL     1      -0.772  10.840  19.721  0.00  0.00    +0.000 A 
ATOM     25  C   UNL     1      -1.837  11.170  18.874  0.00  0.00    +0.000 A 
ATOM     26  C   UNL     1      -1.946  10.597  17.603  0.00  0.00    +0.000 A 
ATOM     27  C   UNL     1      -0.960   9.683  17.196  0.00  0.00    +0.000 A 
ATOM     28  C   UNL     1       0.108   9.360  18.039  0.00  0.00    +0.000 A 
BRANCH  26  29
ATOM     29  C   UNL     1      -3.080  10.947  16.673  0.00  0.00    +0.000 C 
ATOM     30  F   UNL     1      -4.045  11.709  17.263  0.00  0.00    +0.000 F 
ATOM     31  F   UNL     1      -2.667  11.649  15.584  0.00  0.00    +0.000 F 
ATOM     32  F   UNL     1      -3.722   9.847  16.190  0.00  0.00    +0.000 F 
ENDBRANCH  26  29
ENDBRANCH  22  23
ENDBRANCH  21  22
ENDBRANCH   3  21
TORSDOF 5
ENDMDL
