MODEL 1
REMARK VINA RESULT:      -7.9      0.000      0.000
REMARK  Name = 
REMARK  3 active torsions:
REMARK  status: ('A' for Active; 'I' for Inactive)
REMARK    1  A    between atoms: C_2  and  C_13
REMARK    2  A    between atoms: N_3  and  C_4
REMARK    3  A    between atoms: N_20  and  C_21
REMARK                            x       y       z     vdW  Elec       q    Type
REMARK                         _______ _______ _______ _____ _____    ______ ____
ROOT
ATOM      1  C   UNL     1       1.980   3.952  19.717  0.00  0.00    +0.000 C 
ATOM      2  C   UNL     1       1.556   4.088  21.186  0.00  0.00    +0.000 C 
ATOM      3  C   UNL     1       2.153   2.851  21.845  0.00  0.00    +0.000 C 
ATOM      4  C   UNL     1       3.419   2.577  21.045  0.00  0.00    +0.000 C 
ATOM      5  N   UNL     1       3.353   3.439  19.875  0.00  0.00    +0.000 N 
ATOM      6  C   UNL     1       4.362   3.298  18.934  0.00  0.00    +0.000 C 
ATOM      7  O   UNL     1       5.207   2.415  19.076  0.00  0.00    +0.000 OA
ATOM      8  N   UNL     1       4.367   4.228  17.926  0.00  0.00    +0.000 N 
ATOM      9  H   UNL     1       3.762   5.029  18.061  0.00  0.00    +0.000 HD
ENDROOT
BRANCH   8  10
ATOM     10  C   UNL     1       5.343   4.410  16.920  0.00  0.00    +0.000 A 
ATOM     11  C   UNL     1       6.605   4.962  17.142  0.00  0.00    +0.000 A 
ATOM     12  C   UNL     1       7.507   5.133  16.087  0.00  0.00    +0.000 A 
ATOM     13  C   UNL     1       7.159   4.743  14.797  0.00  0.00    +0.000 A 
ATOM     14  C   UNL     1       5.901   4.196  14.558  0.00  0.00    +0.000 A 
ATOM     15  C   UNL     1       4.996   4.037  15.612  0.00  0.00    +0.000 A 
ENDBRANCH   8  10
BRANCH   1  17
ATOM     16  O   UNL     1       1.420   5.318  17.822  0.00  0.00    +0.000 OA
ATOM     17  C   UNL     1       1.758   5.290  19.008  0.00  0.00    +0.000 C 
ATOM     18  N   UNL     1       1.961   6.409  19.804  0.00  0.00    +0.000 N 
ATOM     19  H   UNL     1       2.420   6.286  20.696  0.00  0.00    +0.000 HD
BRANCH  18  20
ATOM     20  C   UNL     1       1.762   7.749  19.389  0.00  0.00    +0.000 A 
ATOM     21  C   UNL     1       2.208   8.233  18.147  0.00  0.00    +0.000 A 
ATOM     22  C   UNL     1       2.110   9.580  17.805  0.00  0.00    +0.000 A 
ATOM     23  C   UNL     1       1.548  10.500  18.686  0.00  0.00    +0.000 A 
ATOM     24  C   UNL     1       1.040  10.008  19.891  0.00  0.00    +0.000 A 
ATOM     25  N   UNL     1       0.431  10.690  20.923  0.00  0.00    +0.000 N 
ATOM     26  C   UNL     1       0.068   9.818  21.910  0.00  0.00    +0.000 A 
ATOM     27  C   UNL     1       0.464   8.558  21.529  0.00  0.00    +0.000 A 
ATOM     28  C   UNL     1       1.103   8.663  20.257  0.00  0.00    +0.000 A 
ATOM     29  H   UNL     1       0.274  11.688  20.932  0.00  0.00    +0.000 HD
ENDBRANCH  18  20
ENDBRANCH   1  17
TORSDOF 3
ENDMDL
MODEL 2
REMARK VINA RESULT:      -7.6      5.539      9.558
REMARK  Name = 
REMARK  3 active torsions:
REMARK  status: ('A' for Active; 'I' for Inactive)
REMARK    1  A    between atoms: C_2  and  C_13
REMARK    2  A    between atoms: N_3  and  C_4
REMARK    3  A    between atoms: N_20  and  C_21
REMARK                            x       y       z     vdW  Elec       q    Type
REMARK                         _______ _______ _______ _____ _____    ______ ____
ROOT
ATOM      1  C   UNL     1       0.602  10.446  19.881  0.00  0.00    +0.000 C 
ATOM      2  C   UNL     1       0.831   9.092  19.193  0.00  0.00    +0.000 C 
ATOM      3  C   UNL     1       1.611   8.294  20.230  0.00  0.00    +0.000 C 
ATOM      4  C   UNL     1       1.105   8.821  21.565  0.00  0.00    +0.000 C 
ATOM      5  N   UNL     1       0.318  10.006  21.260  0.00  0.00    +0.000 N 
ATOM      6  C   UNL     1      -0.175  10.726  22.338  0.00  0.00    +0.000 C 
ATOM      7  O   UNL     1       0.133  10.396  23.483  0.00  0.00    +0.000 OA
ATOM      8  N   UNL     1      -1.043  11.742  22.026  0.00  0.00    +0.000 N 
ATOM      9  H   UNL     1      -1.387  11.752  21.072  0.00  0.00    +0.000 HD
ENDROOT
BRANCH   8  10
ATOM     10  C   UNL     1      -1.797  12.542  22.914  0.00  0.00    +0.000 A 
ATOM     11  C   UNL     1      -1.367  13.767  23.424  0.00  0.00    +0.000 A 
ATOM     12  C   UNL     1      -2.162  14.488  24.320  0.00  0.00    +0.000 A 
ATOM     13  C   UNL     1      -3.404  13.994  24.709  0.00  0.00    +0.000 A 
ATOM     14  C   UNL     1      -3.845  12.771  24.213  0.00  0.00    +0.000 A 
ATOM     15  C   UNL     1      -3.043  12.045  23.326  0.00  0.00    +0.000 A 
ENDBRANCH   8  10
BRANCH   1  17
ATOM     16  O   UNL     1      -0.186  12.294  18.564  0.00  0.00    +0.000 OA
ATOM     17  C   UNL     1      -0.466  11.224  19.110  0.00  0.00    +0.000 C 
ATOM     18  N   UNL     1      -1.717  10.622  19.084  0.00  0.00    +0.000 N 
ATOM     19  H   UNL     1      -1.892   9.853  19.716  0.00  0.00    +0.000 HD
BRANCH  18  20
ATOM     20  C   UNL     1      -2.845  11.120  18.386  0.00  0.00    +0.000 A 
ATOM     21  C   UNL     1      -3.807  11.946  18.993  0.00  0.00    +0.000 A 
ATOM     22  C   UNL     1      -4.970  12.330  18.328  0.00  0.00    +0.000 A 
ATOM     23  C   UNL     1      -5.216  11.914  17.023  0.00  0.00    +0.000 A 
ATOM     24  C   UNL     1      -4.227  11.151  16.396  0.00  0.00    +0.000 A 
ATOM     25  N   UNL     1      -4.210  10.625  15.121  0.00  0.00    +0.000 N 
ATOM     26  C   UNL     1      -3.038   9.957  14.906  0.00  0.00    +0.000 A 
ATOM     27  C   UNL     1      -2.291  10.029  16.059  0.00  0.00    +0.000 A 
ATOM     28  C   UNL     1      -3.042  10.766  17.023  0.00  0.00    +0.000 A 
ATOM     29  H   UNL     1      -4.958  10.732  14.451  0.00  0.00    +0.000 HD
ENDBRANCH  18  20
ENDBRANCH   1  17
TORSDOF 3
ENDMDL
MODEL 3
REMARK VINA RESULT:      -7.5      7.837     12.476
REMARK  Name = 
REMARK  3 active torsions:
REMARK  status: ('A' for Active; 'I' for Inactive)
REMARK    1  A    between atoms: C_2  and  C_13
REMARK    2  A    between atoms: N_3  and  C_4
REMARK    3  A    between atoms: N_20  and  C_21
REMARK                            x       y       z     vdW  Elec       q    Type
REMARK                         _______ _______ _______ _____ _____    ______ ____
ROOT
ATOM      1  C   UNL     1      -7.248  13.277  17.763  0.00  0.00    +0.000 C 
ATOM      2  C   UNL     1      -7.124  14.076  16.458  0.00  0.00    +0.000 C 
ATOM      3  C   UNL     1      -7.916  15.345  16.741  0.00  0.00    +0.000 C 
ATOM      4  C   UNL     1      -7.737  15.572  18.236  0.00  0.00    +0.000 C 
ATOM      5  N   UNL     1      -7.126  14.359  18.758  0.00  0.00    +0.000 N 
ATOM      6  C   UNL     1      -6.949  14.286  20.131  0.00  0.00    +0.000 C 
ATOM      7  O   UNL     1      -7.382  15.188  20.849  0.00  0.00    +0.000 OA
ATOM      8  N   UNL     1      -6.229  13.209  20.581  0.00  0.00    +0.000 N 
ATOM      9  H   UNL     1      -5.738  12.678  19.870  0.00  0.00    +0.000 HD
ENDROOT
BRANCH   8  10
ATOM     10  C   UNL     1      -5.782  12.954  21.897  0.00  0.00    +0.000 A 
ATOM     11  C   UNL     1      -6.628  12.762  22.990  0.00  0.00    +0.000 A 
ATOM     12  C   UNL     1      -6.106  12.539  24.268  0.00  0.00    +0.000 A 
ATOM     13  C   UNL     1      -4.729  12.494  24.465  0.00  0.00    +0.000 A 
ATOM     14  C   UNL     1      -3.872  12.689  23.386  0.00  0.00    +0.000 A 
ATOM     15  C   UNL     1      -4.395  12.925  22.110  0.00  0.00    +0.000 A 
ENDBRANCH   8  10
BRANCH   1  17
ATOM     16  O   UNL     1      -6.476  11.062  18.283  0.00  0.00    +0.000 OA
ATOM     17  C   UNL     1      -6.216  12.147  17.757  0.00  0.00    +0.000 C 
ATOM     18  N   UNL     1      -5.021  12.456  17.120  0.00  0.00    +0.000 N 
ATOM     19  H   UNL     1      -4.835  13.424  16.895  0.00  0.00    +0.000 HD
BRANCH  18  20
ATOM     20  C   UNL     1      -3.942  11.557  16.936  0.00  0.00    +0.000 A 
ATOM     21  C   UNL     1      -3.826  10.734  15.803  0.00  0.00    +0.000 A 
ATOM     22  C   UNL     1      -2.824   9.772  15.693  0.00  0.00    +0.000 A 
ATOM     23  C   UNL     1      -1.887   9.600  16.708  0.00  0.00    +0.000 A 
ATOM     24  C   UNL     1      -1.959  10.465  17.802  0.00  0.00    +0.000 A 
ATOM     25  N   UNL     1      -1.160  10.520  18.924  0.00  0.00    +0.000 N 
ATOM     26  C   UNL     1      -1.569  11.534  19.743  0.00  0.00    +0.000 A 
ATOM     27  C   UNL     1      -2.661  12.134  19.160  0.00  0.00    +0.000 A 
ATOM     28  C   UNL     1      -2.935  11.453  17.936  0.00  0.00    +0.000 A 
ATOM     29  H   UNL     1      -0.382   9.899  19.100  0.00  0.00    +0.000 HD
ENDBRANCH  18  20
ENDBRANCH   1  17
TORSDOF 3
ENDMDL
MODEL 4
REMARK VINA RESULT:      -7.5      6.244      9.867
REMARK  Name = 
REMARK  3 active torsions:
REMARK  status: ('A' for Active; 'I' for Inactive)
REMARK    1  A    between atoms: C_2  and  C_13
REMARK    2  A    between atoms: N_3  and  C_4
REMARK    3  A    between atoms: N_20  and  C_21
REMARK                            x       y       z     vdW  Elec       q    Type
REMARK                         _______ _______ _______ _____ _____    ______ ____
ROOT
ATOM      1  C   UNL     1       0.228  10.672  20.378  0.00  0.00    +0.000 C 
ATOM      2  C   UNL     1       0.663   9.206  20.232  0.00  0.00    +0.000 C 
ATOM      3  C   UNL     1       1.127   8.833  21.634  0.00  0.00    +0.000 C 
ATOM      4  C   UNL     1       0.256   9.676  22.554  0.00  0.00    +0.000 C 
ATOM      5  N   UNL     1      -0.429  10.631  21.698  0.00  0.00    +0.000 N 
ATOM      6  C   UNL     1      -1.219  11.583  22.325  0.00  0.00    +0.000 C 
ATOM      7  O   UNL     1      -1.244  11.639  23.554  0.00  0.00    +0.000 OA
ATOM      8  N   UNL     1      -1.977  12.368  21.494  0.00  0.00    +0.000 N 
ATOM      9  H   UNL     1      -2.036  12.061  20.529  0.00  0.00    +0.000 HD
ENDROOT
BRANCH   8  10
ATOM     10  C   UNL     1      -2.964  13.313  21.855  0.00  0.00    +0.000 A 
ATOM     11  C   UNL     1      -2.742  14.689  21.930  0.00  0.00    +0.000 A 
ATOM     12  C   UNL     1      -3.766  15.557  22.322  0.00  0.00    +0.000 A 
ATOM     13  C   UNL     1      -5.028  15.060  22.631  0.00  0.00    +0.000 A 
ATOM     14  C   UNL     1      -5.263  13.689  22.565  0.00  0.00    +0.000 A 
ATOM     15  C   UNL     1      -4.235  12.820  22.187  0.00  0.00    +0.000 A 
ENDBRANCH   8  10
BRANCH   1  17
ATOM     16  O   UNL     1      -0.383  12.155  18.590  0.00  0.00    +0.000 OA
ATOM     17  C   UNL     1      -0.588  11.075  19.148  0.00  0.00    +0.000 C 
ATOM     18  N   UNL     1      -1.529  10.137  18.743  0.00  0.00    +0.000 N 
ATOM     19  H   UNL     1      -1.751   9.379  19.374  0.00  0.00    +0.000 HD
BRANCH  18  20
ATOM     20  C   UNL     1      -2.360  10.259  17.602  0.00  0.00    +0.000 A 
ATOM     21  C   UNL     1      -2.014   9.717  16.352  0.00  0.00    +0.000 A 
ATOM     22  C   UNL     1      -2.783   9.947  15.213  0.00  0.00    +0.000 A 
ATOM     23  C   UNL     1      -3.940  10.720  15.278  0.00  0.00    +0.000 A 
ATOM     24  C   UNL     1      -4.321  11.200  16.534  0.00  0.00    +0.000 A 
ATOM     25  N   UNL     1      -5.413  11.969  16.878  0.00  0.00    +0.000 N 
ATOM     26  C   UNL     1      -5.418  12.200  18.224  0.00  0.00    +0.000 A 
ATOM     27  C   UNL     1      -4.307  11.594  18.762  0.00  0.00    +0.000 A 
ATOM     28  C   UNL     1      -3.587  10.971  17.698  0.00  0.00    +0.000 A 
ATOM     29  H   UNL     1      -6.105  12.301  16.221  0.00  0.00    +0.000 HD
ENDBRANCH  18  20
ENDBRANCH   1  17
TORSDOF 3
ENDMDL
MODEL 5
REMARK VINA RESULT:      -7.4      5.659      9.412
REMARK  Name = 
REMARK  3 active torsions:
REMARK  status: ('A' for Active; 'I' for Inactive)
REMARK    1  A    between atoms: C_2  and  C_13
REMARK    2  A    between atoms: N_3  and  C_4
REMARK    3  A    between atoms: N_20  and  C_21
REMARK                            x       y       z     vdW  Elec       q    Type
REMARK                         _______ _______ _______ _____ _____    ______ ____
ROOT
ATOM      1  C   UNL     1       0.628  10.316  20.016  0.00  0.00    +0.000 C 
ATOM      2  C   UNL     1       1.028   8.916  19.528  0.00  0.00    +0.000 C 
ATOM      3  C   UNL     1       1.696   8.292  20.747  0.00  0.00    +0.000 C 
ATOM      4  C   UNL     1       0.976   8.923  21.931  0.00  0.00    +0.000 C 
ATOM      5  N   UNL     1       0.176  10.008  21.386  0.00  0.00    +0.000 N 
ATOM      6  C   UNL     1      -0.505  10.804  22.295  0.00  0.00    +0.000 C 
ATOM      7  O   UNL     1      -0.346  10.622  23.502  0.00  0.00    +0.000 OA
ATOM      8  N   UNL     1      -1.376  11.714  21.752  0.00  0.00    +0.000 N 
ATOM      9  H   UNL     1      -1.580  11.597  20.767  0.00  0.00    +0.000 HD
ENDROOT
BRANCH   8  10
ATOM     10  C   UNL     1      -2.292  12.550  22.431  0.00  0.00    +0.000 A 
ATOM     11  C   UNL     1      -3.139  12.118  23.452  0.00  0.00    +0.000 A 
ATOM     12  C   UNL     1      -4.038  13.002  24.057  0.00  0.00    +0.000 A 
ATOM     13  C   UNL     1      -4.090  14.333  23.656  0.00  0.00    +0.000 A 
ATOM     14  C   UNL     1      -3.254  14.778  22.635  0.00  0.00    +0.000 A 
ATOM     15  C   UNL     1      -2.365  13.889  22.021  0.00  0.00    +0.000 A 
ENDBRANCH   8  10
BRANCH   1  17
ATOM     16  O   UNL     1      -0.237  12.100  18.660  0.00  0.00    +0.000 OA
ATOM     17  C   UNL     1      -0.361  10.927  19.022  0.00  0.00    +0.000 C 
ATOM     18  N   UNL     1      -1.357  10.062  18.588  0.00  0.00    +0.000 N 
ATOM     19  H   UNL     1      -1.486   9.192  19.085  0.00  0.00    +0.000 HD
BRANCH  18  20
ATOM     20  C   UNL     1      -2.348  10.380  17.627  0.00  0.00    +0.000 A 
ATOM     21  C   UNL     1      -2.277   9.946  16.292  0.00  0.00    +0.000 A 
ATOM     22  C   UNL     1      -3.196  10.366  15.333  0.00  0.00    +0.000 A 
ATOM     23  C   UNL     1      -4.235  11.229  15.670  0.00  0.00    +0.000 A 
ATOM     24  C   UNL     1      -4.347  11.604  17.011  0.00  0.00    +0.000 A 
ATOM     25  N   UNL     1      -5.276  12.429  17.610  0.00  0.00    +0.000 N 
ATOM     26  C   UNL     1      -5.031  12.514  18.951  0.00  0.00    +0.000 A 
ATOM     27  C   UNL     1      -3.918  11.755  19.228  0.00  0.00    +0.000 A 
ATOM     28  C   UNL     1      -3.458  11.187  18.002  0.00  0.00    +0.000 A 
ATOM     29  H   UNL     1      -6.029  12.891  17.119  0.00  0.00    +0.000 HD
ENDBRANCH  18  20
ENDBRANCH   1  17
TORSDOF 3
ENDMDL
MODEL 6
REMARK VINA RESULT:      -7.3      5.317      9.100
REMARK  Name = 
REMARK  3 active torsions:
REMARK  status: ('A' for Active; 'I' for Inactive)
REMARK    1  A    between atoms: C_2  and  C_13
REMARK    2  A    between atoms: N_3  and  C_4
REMARK    3  A    between atoms: N_20  and  C_21
REMARK                            x       y       z     vdW  Elec       q    Type
REMARK                         _______ _______ _______ _____ _____    ______ ____
ROOT
ATOM      1  C   UNL     1       0.869  10.103  19.817  0.00  0.00    +0.000 C 
ATOM      2  C   UNL     1       1.110   8.705  19.228  0.00  0.00    +0.000 C 
ATOM      3  C   UNL     1       1.869   7.980  20.332  0.00  0.00    +0.000 C 
ATOM      4  C   UNL     1       1.337   8.597  21.618  0.00  0.00    +0.000 C 
ATOM      5  N   UNL     1       0.558   9.758  21.217  0.00  0.00    +0.000 N 
ATOM      6  C   UNL     1       0.044  10.550  22.232  0.00  0.00    +0.000 C 
ATOM      7  O   UNL     1       0.329  10.299  23.403  0.00  0.00    +0.000 OA
ATOM      8  N   UNL     1      -0.817  11.541  21.835  0.00  0.00    +0.000 N 
ATOM      9  H   UNL     1      -1.142  11.486  20.876  0.00  0.00    +0.000 HD
ENDROOT
BRANCH   8  10
ATOM     10  C   UNL     1      -1.588  12.400  22.651  0.00  0.00    +0.000 A 
ATOM     11  C   UNL     1      -1.152  13.642  23.114  0.00  0.00    +0.000 A 
ATOM     12  C   UNL     1      -1.966  14.422  23.941  0.00  0.00    +0.000 A 
ATOM     13  C   UNL     1      -3.231  13.973  24.306  0.00  0.00    +0.000 A 
ATOM     14  C   UNL     1      -3.678  12.733  23.857  0.00  0.00    +0.000 A 
ATOM     15  C   UNL     1      -2.858  11.948  23.040  0.00  0.00    +0.000 A 
ENDBRANCH   8  10
BRANCH   1  17
ATOM     16  O   UNL     1      -0.045  12.017  18.690  0.00  0.00    +0.000 OA
ATOM     17  C   UNL     1      -0.184  10.825  18.973  0.00  0.00    +0.000 C 
ATOM     18  N   UNL     1      -1.252  10.032  18.574  0.00  0.00    +0.000 N 
ATOM     19  H   UNL     1      -1.370   9.130  19.015  0.00  0.00    +0.000 HD
BRANCH  18  20
ATOM     20  C   UNL     1      -2.316  10.460  17.742  0.00  0.00    +0.000 A 
ATOM     21  C   UNL     1      -2.392  10.128  16.379  0.00  0.00    +0.000 A 
ATOM     22  C   UNL     1      -3.379  10.655  15.548  0.00  0.00    +0.000 A 
ATOM     23  C   UNL     1      -4.342  11.526  16.049  0.00  0.00    +0.000 A 
ATOM     24  C   UNL     1      -4.309  11.801  17.419  0.00  0.00    +0.000 A 
ATOM     25  N   UNL     1      -5.139  12.609  18.166  0.00  0.00    +0.000 N 
ATOM     26  C   UNL     1      -4.763  12.581  19.479  0.00  0.00    +0.000 A 
ATOM     27  C   UNL     1      -3.663  11.763  19.587  0.00  0.00    +0.000 A 
ATOM     28  C   UNL     1      -3.348  11.275  18.283  0.00  0.00    +0.000 A 
ATOM     29  H   UNL     1      -5.914  13.135  17.786  0.00  0.00    +0.000 HD
ENDBRANCH  18  20
ENDBRANCH   1  17
TORSDOF 3
ENDMDL
MODEL 7
REMARK VINA RESULT:      -7.1      0.836      1.258
REMARK  Name = 
REMARK  3 active torsions:
REMARK  status: ('A' for Active; 'I' for Inactive)
REMARK    1  A    between atoms: C_2  and  C_13
REMARK    2  A    between atoms: N_3  and  C_4
REMARK    3  A    between atoms: N_20  and  C_21
REMARK                            x       y       z     vdW  Elec       q    Type
REMARK                         _______ _______ _______ _____ _____    ______ ____
ROOT
ATOM      1  C   UNL     1       2.277   4.502  19.956  0.00  0.00    +0.000 C 
ATOM      2  C   UNL     1       2.131   4.297  21.471  0.00  0.00    +0.000 C 
ATOM      3  C   UNL     1       2.199   2.784  21.633  0.00  0.00    +0.000 C 
ATOM      4  C   UNL     1       3.114   2.328  20.505  0.00  0.00    +0.000 C 
ATOM      5  N   UNL     1       3.295   3.483  19.640  0.00  0.00    +0.000 N 
ATOM      6  C   UNL     1       4.024   3.287  18.476  0.00  0.00    +0.000 C 
ATOM      7  O   UNL     1       4.406   2.155  18.181  0.00  0.00    +0.000 OA
ATOM      8  N   UNL     1       4.317   4.421  17.762  0.00  0.00    +0.000 N 
ATOM      9  H   UNL     1       4.144   5.299  18.236  0.00  0.00    +0.000 HD
ENDROOT
BRANCH   8  10
ATOM     10  C   UNL     1       5.149   4.538  16.625  0.00  0.00    +0.000 A 
ATOM     11  C   UNL     1       4.739   4.262  15.320  0.00  0.00    +0.000 A 
ATOM     12  C   UNL     1       5.632   4.378  14.251  0.00  0.00    +0.000 A 
ATOM     13  C   UNL     1       6.945   4.783  14.474  0.00  0.00    +0.000 A 
ATOM     14  C   UNL     1       7.370   5.057  15.770  0.00  0.00    +0.000 A 
ATOM     15  C   UNL     1       6.479   4.928  16.841  0.00  0.00    +0.000 A 
ENDBRANCH   8  10
BRANCH   1  17
ATOM     16  O   UNL     1       3.750   6.365  19.593  0.00  0.00    +0.000 OA
ATOM     17  C   UNL     1       2.583   5.976  19.680  0.00  0.00    +0.000 C 
ATOM     18  N   UNL     1       1.463   6.784  19.536  0.00  0.00    +0.000 N 
ATOM     19  H   UNL     1       0.565   6.412  19.814  0.00  0.00    +0.000 HD
BRANCH  18  20
ATOM     20  C   UNL     1       1.491   8.164  19.219  0.00  0.00    +0.000 A 
ATOM     21  C   UNL     1       2.021   8.654  18.013  0.00  0.00    +0.000 A 
ATOM     22  C   UNL     1       2.150  10.020  17.769  0.00  0.00    +0.000 A 
ATOM     23  C   UNL     1       1.743  10.955  18.715  0.00  0.00    +0.000 A 
ATOM     24  C   UNL     1       1.152  10.470  19.885  0.00  0.00    +0.000 A 
ATOM     25  N   UNL     1       0.656  11.168  20.966  0.00  0.00    +0.000 N 
ATOM     26  C   UNL     1       0.147  10.301  21.890  0.00  0.00    +0.000 A 
ATOM     27  C   UNL     1       0.331   9.022  21.418  0.00  0.00    +0.000 A 
ATOM     28  C   UNL     1       0.987   9.111  20.154  0.00  0.00    +0.000 A 
ATOM     29  H   UNL     1       0.668  12.175  21.047  0.00  0.00    +0.000 HD
ENDBRANCH  18  20
ENDBRANCH   1  17
TORSDOF 3
ENDMDL
MODEL 8
REMARK VINA RESULT:      -7.1      7.478     10.814
REMARK  Name = 
REMARK  3 active torsions:
REMARK  status: ('A' for Active; 'I' for Inactive)
REMARK    1  A    between atoms: C_2  and  C_13
REMARK    2  A    between atoms: N_3  and  C_4
REMARK    3  A    between atoms: N_20  and  C_21
REMARK                            x       y       z     vdW  Elec       q    Type
REMARK                         _______ _______ _______ _____ _____    ______ ____
ROOT
ATOM      1  C   UNL     1      -4.110  14.408  23.378  0.00  0.00    +0.000 C 
ATOM      2  C   UNL     1      -4.646  15.818  23.088  0.00  0.00    +0.000 C 
ATOM      3  C   UNL     1      -3.684  16.726  23.845  0.00  0.00    +0.000 C 
ATOM      4  C   UNL     1      -2.357  15.981  23.803  0.00  0.00    +0.000 C 
ATOM      5  N   UNL     1      -2.657  14.649  23.304  0.00  0.00    +0.000 N 
ATOM      6  C   UNL     1      -1.608  13.742  23.266  0.00  0.00    +0.000 C 
ATOM      7  O   UNL     1      -0.511  14.061  23.725  0.00  0.00    +0.000 OA
ATOM      8  N   UNL     1      -1.876  12.549  22.645  0.00  0.00    +0.000 N 
ATOM      9  H   UNL     1      -2.738  12.512  22.112  0.00  0.00    +0.000 HD
ENDROOT
BRANCH   8  10
ATOM     10  C   UNL     1      -0.971  11.506  22.342  0.00  0.00    +0.000 A 
ATOM     11  C   UNL     1      -0.141  11.489  21.220  0.00  0.00    +0.000 A 
ATOM     12  C   UNL     1       0.710  10.406  20.977  0.00  0.00    +0.000 A 
ATOM     13  C   UNL     1       0.748   9.332  21.860  0.00  0.00    +0.000 A 
ATOM     14  C   UNL     1      -0.078   9.332  22.981  0.00  0.00    +0.000 A 
ATOM     15  C   UNL     1      -0.938  10.410  23.216  0.00  0.00    +0.000 A 
ENDBRANCH   8  10
BRANCH   1  17
ATOM     16  O   UNL     1      -5.128  12.311  22.796  0.00  0.00    +0.000 OA
ATOM     17  C   UNL     1      -4.755  13.420  22.404  0.00  0.00    +0.000 C 
ATOM     18  N   UNL     1      -4.877  13.884  21.101  0.00  0.00    +0.000 N 
ATOM     19  H   UNL     1      -4.372  14.720  20.842  0.00  0.00    +0.000 HD
BRANCH  18  20
ATOM     20  C   UNL     1      -5.492  13.176  20.039  0.00  0.00    +0.000 A 
ATOM     21  C   UNL     1      -6.870  13.256  19.773  0.00  0.00    +0.000 A 
ATOM     22  C   UNL     1      -7.478  12.462  18.802  0.00  0.00    +0.000 A 
ATOM     23  C   UNL     1      -6.731  11.563  18.047  0.00  0.00    +0.000 A 
ATOM     24  C   UNL     1      -5.351  11.533  18.263  0.00  0.00    +0.000 A 
ATOM     25  N   UNL     1      -4.389  10.755  17.653  0.00  0.00    +0.000 N 
ATOM     26  C   UNL     1      -3.155  11.059  18.152  0.00  0.00    +0.000 A 
ATOM     27  C   UNL     1      -3.314  12.030  19.113  0.00  0.00    +0.000 A 
ATOM     28  C   UNL     1      -4.706  12.328  19.211  0.00  0.00    +0.000 A 
ATOM     29  H   UNL     1      -4.582  10.069  16.937  0.00  0.00    +0.000 HD
ENDBRANCH  18  20
ENDBRANCH   1  17
TORSDOF 3
ENDMDL
MODEL 9
REMARK VINA RESULT:      -7.0      3.179      7.711
REMARK  Name = 
REMARK  3 active torsions:
REMARK  status: ('A' for Active; 'I' for Inactive)
REMARK    1  A    between atoms: C_2  and  C_13
REMARK    2  A    between atoms: N_3  and  C_4
REMARK    3  A    between atoms: N_20  and  C_21
REMARK                            x       y       z     vdW  Elec       q    Type
REMARK                         _______ _______ _______ _____ _____    ______ ____
ROOT
ATOM      1  C   UNL     1       0.995   9.703  21.102  0.00  0.00    +0.000 C 
ATOM      2  C   UNL     1       1.240   8.965  22.426  0.00  0.00    +0.000 C 
ATOM      3  C   UNL     1       0.493   9.813  23.448  0.00  0.00    +0.000 C 
ATOM      4  C   UNL     1      -0.678  10.393  22.668  0.00  0.00    +0.000 C 
ATOM      5  N   UNL     1      -0.416  10.100  21.268  0.00  0.00    +0.000 N 
ATOM      6  C   UNL     1      -1.306  10.619  20.340  0.00  0.00    +0.000 C 
ATOM      7  O   UNL     1      -2.214  11.361  20.717  0.00  0.00    +0.000 OA
ATOM      8  N   UNL     1      -1.130  10.197  19.047  0.00  0.00    +0.000 N 
ATOM      9  H   UNL     1      -0.500   9.414  18.920  0.00  0.00    +0.000 HD
ENDROOT
BRANCH   8  10
ATOM     10  C   UNL     1      -1.961  10.450  17.932  0.00  0.00    +0.000 A 
ATOM     11  C   UNL     1      -3.005  11.375  17.925  0.00  0.00    +0.000 A 
ATOM     12  C   UNL     1      -3.800  11.548  16.787  0.00  0.00    +0.000 A 
ATOM     13  C   UNL     1      -3.550  10.805  15.637  0.00  0.00    +0.000 A 
ATOM     14  C   UNL     1      -2.514   9.875  15.630  0.00  0.00    +0.000 A 
ATOM     15  C   UNL     1      -1.729   9.693  16.773  0.00  0.00    +0.000 A 
ENDBRANCH   8  10
BRANCH   1  17
ATOM     16  O   UNL     1       1.216   9.151  18.775  0.00  0.00    +0.000 OA
ATOM     17  C   UNL     1       1.382   8.785  19.940  0.00  0.00    +0.000 C 
ATOM     18  N   UNL     1       1.920   7.563  20.321  0.00  0.00    +0.000 N 
ATOM     19  H   UNL     1       1.836   7.283  21.289  0.00  0.00    +0.000 HD
BRANCH  18  20
ATOM     20  C   UNL     1       2.405   6.574  19.429  0.00  0.00    +0.000 A 
ATOM     21  C   UNL     1       3.301   6.868  18.388  0.00  0.00    +0.000 A 
ATOM     22  C   UNL     1       3.674   5.909  17.448  0.00  0.00    +0.000 A 
ATOM     23  C   UNL     1       3.177   4.611  17.517  0.00  0.00    +0.000 A 
ATOM     24  C   UNL     1       2.341   4.301  18.593  0.00  0.00    +0.000 A 
ATOM     25  N   UNL     1       1.728   3.105  18.904  0.00  0.00    +0.000 N 
ATOM     26  C   UNL     1       1.010   3.233  20.058  0.00  0.00    +0.000 A 
ATOM     27  C   UNL     1       1.137   4.531  20.495  0.00  0.00    +0.000 A 
ATOM     28  C   UNL     1       1.964   5.229  19.564  0.00  0.00    +0.000 A 
ATOM     29  H   UNL     1       1.812   2.262  18.353  0.00  0.00    +0.000 HD
ENDBRANCH  18  20
ENDBRANCH   1  17
TORSDOF 3
ENDMDL
