MODEL 1
REMARK VINA RESULT:      -7.5      0.000      0.000
REMARK  Name = 
REMARK  4 active torsions:
REMARK  status: ('A' for Active; 'I' for Inactive)
REMARK    1  A    between atoms: C_1  and  O_2
REMARK    2  A    between atoms: O_2  and  C_3
REMARK    3  A    between atoms: C_8  and  N_9
REMARK    4  A    between atoms: C_21  and  C_22
REMARK                            x       y       z     vdW  Elec       q    Type
REMARK                         _______ _______ _______ _____ _____    ______ ____
ROOT
ATOM      1  N   UNL     1      -1.713  12.931  21.677  0.00  0.00    +0.000 N 
ATOM      2  C   UNL     1      -2.671  12.858  22.682  0.00  0.00    +0.000 C 
ATOM      3  O   UNL     1      -3.487  11.953  22.797  0.00  0.00    +0.000 OA
ATOM      4  N   UNL     1      -2.654  14.018  23.482  0.00  0.00    +0.000 N 
ATOM      5  C   UNL     1      -1.371  14.682  23.747  0.00  0.00    +0.000 C 
ATOM      6  C   UNL     1      -1.298  15.461  25.051  0.00  0.00    +0.000 C 
ATOM      7  C   UNL     1      -2.466  16.397  25.114  0.00  0.00    +0.000 A 
ATOM      8  C   UNL     1      -2.300  17.730  25.512  0.00  0.00    +0.000 A 
ATOM      9  C   UNL     1      -3.397  18.584  25.564  0.00  0.00    +0.000 A 
ATOM     10  C   UNL     1      -4.664  18.098  25.255  0.00  0.00    +0.000 A 
ATOM     11  C   UNL     1      -4.835  16.762  24.877  0.00  0.00    +0.000 A 
ATOM     12  C   UNL     1      -3.734  15.894  24.760  0.00  0.00    +0.000 A 
ATOM     13  C   UNL     1      -3.849  14.421  24.284  0.00  0.00    +0.000 C 
ATOM     14  H   UNL     1      -1.428  13.879  21.493  0.00  0.00    +0.000 HD
ENDROOT
BRANCH   1  20
ATOM     15  C   UNL     1      -2.877  10.833  16.212  0.00  0.00    +0.000 C 
ATOM     16  C   UNL     1      -1.940   9.840  16.944  0.00  0.00    +0.000 C 
ATOM     17  C   UNL     1      -1.694  10.549  18.243  0.00  0.00    +0.000 A 
ATOM     18  C   UNL     1      -0.733  10.293  19.208  0.00  0.00    +0.000 A 
ATOM     19  C   UNL     1      -0.731  11.068  20.379  0.00  0.00    +0.000 A 
ATOM     20  C   UNL     1      -1.670  12.096  20.548  0.00  0.00    +0.000 A 
ATOM     21  C   UNL     1      -2.628  12.347  19.561  0.00  0.00    +0.000 A 
ATOM     22  C   UNL     1      -2.644  11.555  18.432  0.00  0.00    +0.000 A 
ATOM     23  C   UNL     1      -3.643  11.573  17.324  0.00  0.00    +0.000 C 
BRANCH  15  25
ATOM     24  C   UNL     1      -3.208  10.033  14.003  0.00  0.00    +0.000 C 
ATOM     25  O   UNL     1      -3.745  10.137  15.317  0.00  0.00    +0.000 OA
ENDBRANCH  15  25
ENDBRANCH   1  20
BRANCH  13  26
ATOM     26  C   UNL     1      -5.165  14.151  23.545  0.00  0.00    +0.000 A 
ATOM     27  C   UNL     1      -5.416  14.701  22.273  0.00  0.00    +0.000 A 
ATOM     28  C   UNL     1      -6.611  14.434  21.604  0.00  0.00    +0.000 A 
ATOM     29  C   UNL     1      -7.571  13.614  22.189  0.00  0.00    +0.000 A 
ATOM     30  C   UNL     1      -7.337  13.063  23.447  0.00  0.00    +0.000 A 
ATOM     31  C   UNL     1      -6.144  13.328  24.124  0.00  0.00    +0.000 A 
ENDBRANCH  13  26
TORSDOF 3
ENDMDL
MODEL 2
REMARK VINA RESULT:      -7.3      5.325      8.937
REMARK  Name = 
REMARK  4 active torsions:
REMARK  status: ('A' for Active; 'I' for Inactive)
REMARK    1  A    between atoms: C_1  and  O_2
REMARK    2  A    between atoms: O_2  and  C_3
REMARK    3  A    between atoms: C_8  and  N_9
REMARK    4  A    between atoms: C_21  and  C_22
REMARK                            x       y       z     vdW  Elec       q    Type
REMARK                         _______ _______ _______ _____ _____    ______ ____
ROOT
ATOM      1  N   UNL     1       1.544  13.819  20.132  0.00  0.00    +0.000 N 
ATOM      2  C   UNL     1       1.102  12.564  20.538  0.00  0.00    +0.000 C 
ATOM      3  O   UNL     1       1.777  11.763  21.170  0.00  0.00    +0.000 OA
ATOM      4  N   UNL     1      -0.182  12.292  20.027  0.00  0.00    +0.000 N 
ATOM      5  C   UNL     1      -1.145  13.393  19.892  0.00  0.00    +0.000 C 
ATOM      6  C   UNL     1      -2.609  12.992  19.976  0.00  0.00    +0.000 C 
ATOM      7  C   UNL     1      -2.856  11.877  19.006  0.00  0.00    +0.000 A 
ATOM      8  C   UNL     1      -3.977  11.888  18.167  0.00  0.00    +0.000 A 
ATOM      9  C   UNL     1      -4.189  10.844  17.272  0.00  0.00    +0.000 A 
ATOM     10  C   UNL     1      -3.301   9.773  17.241  0.00  0.00    +0.000 A 
ATOM     11  C   UNL     1      -2.190   9.750  18.091  0.00  0.00    +0.000 A 
ATOM     12  C   UNL     1      -1.922  10.822  18.963  0.00  0.00    +0.000 A 
ATOM     13  C   UNL     1      -0.675  10.887  19.885  0.00  0.00    +0.000 C 
ATOM     14  H   UNL     1       1.053  14.149  19.318  0.00  0.00    +0.000 HD
ENDROOT
BRANCH   1  20
ATOM     15  C   UNL     1       6.894  15.829  18.410  0.00  0.00    +0.000 C 
ATOM     16  C   UNL     1       6.917  15.583  19.940  0.00  0.00    +0.000 C 
ATOM     17  C   UNL     1       5.500  15.165  20.206  0.00  0.00    +0.000 A 
ATOM     18  C   UNL     1       4.833  15.064  21.416  0.00  0.00    +0.000 A 
ATOM     19  C   UNL     1       3.510  14.596  21.419  0.00  0.00    +0.000 A 
ATOM     20  C   UNL     1       2.874  14.265  20.213  0.00  0.00    +0.000 A 
ATOM     21  C   UNL     1       3.558  14.381  18.999  0.00  0.00    +0.000 A 
ATOM     22  C   UNL     1       4.870  14.806  19.013  0.00  0.00    +0.000 A 
ATOM     23  C   UNL     1       5.811  14.885  17.857  0.00  0.00    +0.000 C 
BRANCH  15  25
ATOM     24  C   UNL     1       8.731  14.335  18.258  0.00  0.00    +0.000 C 
ATOM     25  O   UNL     1       8.181  15.581  17.843  0.00  0.00    +0.000 OA
ENDBRANCH  15  25
ENDBRANCH   1  20
BRANCH  13  26
ATOM     26  C   UNL     1       0.430   9.925  19.434  0.00  0.00    +0.000 A 
ATOM     27  C   UNL     1       0.845   8.855  20.249  0.00  0.00    +0.000 A 
ATOM     28  C   UNL     1       1.841   7.976  19.819  0.00  0.00    +0.000 A 
ATOM     29  C   UNL     1       2.434   8.148  18.573  0.00  0.00    +0.000 A 
ATOM     30  C   UNL     1       2.034   9.203  17.756  0.00  0.00    +0.000 A 
ATOM     31  C   UNL     1       1.039  10.088  18.180  0.00  0.00    +0.000 A 
ENDBRANCH  13  26
TORSDOF 3
ENDMDL
MODEL 3
REMARK VINA RESULT:      -7.2      3.352      4.962
REMARK  Name = 
REMARK  4 active torsions:
REMARK  status: ('A' for Active; 'I' for Inactive)
REMARK    1  A    between atoms: C_1  and  O_2
REMARK    2  A    between atoms: O_2  and  C_3
REMARK    3  A    between atoms: C_8  and  N_9
REMARK    4  A    between atoms: C_21  and  C_22
REMARK                            x       y       z     vdW  Elec       q    Type
REMARK                         _______ _______ _______ _____ _____    ______ ____
ROOT
ATOM      1  N   UNL     1      -2.262  13.003  21.526  0.00  0.00    +0.000 N 
ATOM      2  C   UNL     1      -3.643  13.040  21.682  0.00  0.00    +0.000 C 
ATOM      3  O   UNL     1      -4.309  12.137  22.172  0.00  0.00    +0.000 OA
ATOM      4  N   UNL     1      -4.187  14.200  21.098  0.00  0.00    +0.000 N 
ATOM      5  C   UNL     1      -3.418  15.451  21.145  0.00  0.00    +0.000 C 
ATOM      6  C   UNL     1      -4.245  16.726  21.117  0.00  0.00    +0.000 C 
ATOM      7  C   UNL     1      -5.185  16.661  19.952  0.00  0.00    +0.000 A 
ATOM      8  C   UNL     1      -5.355  17.761  19.102  0.00  0.00    +0.000 A 
ATOM      9  C   UNL     1      -6.232  17.680  18.024  0.00  0.00    +0.000 A 
ATOM     10  C   UNL     1      -6.964  16.516  17.818  0.00  0.00    +0.000 A 
ATOM     11  C   UNL     1      -6.811  15.423  18.677  0.00  0.00    +0.000 A 
ATOM     12  C   UNL     1      -5.888  15.458  19.738  0.00  0.00    +0.000 A 
ATOM     13  C   UNL     1      -5.624  14.258  20.687  0.00  0.00    +0.000 C 
ATOM     14  H   UNL     1      -1.949  13.596  20.776  0.00  0.00    +0.000 HD
ENDROOT
BRANCH   1  20
ATOM     15  C   UNL     1       1.706   8.686  20.412  0.00  0.00    +0.000 C 
ATOM     16  C   UNL     1       1.073   8.442  21.806  0.00  0.00    +0.000 C 
ATOM     17  C   UNL     1       0.179   9.637  21.952  0.00  0.00    +0.000 A 
ATOM     18  C   UNL     1      -0.450  10.123  23.087  0.00  0.00    +0.000 A 
ATOM     19  C   UNL     1      -1.290  11.241  22.966  0.00  0.00    +0.000 A 
ATOM     20  C   UNL     1      -1.462  11.865  21.722  0.00  0.00    +0.000 A 
ATOM     21  C   UNL     1      -0.814  11.368  20.587  0.00  0.00    +0.000 A 
ATOM     22  C   UNL     1      -0.021  10.246  20.711  0.00  0.00    +0.000 A 
ATOM     23  C   UNL     1       0.658   9.489  19.620  0.00  0.00    +0.000 C 
BRANCH  15  25
ATOM     24  C   UNL     1       2.457   7.608  18.437  0.00  0.00    +0.000 C 
ATOM     25  O   UNL     1       2.036   7.446  19.787  0.00  0.00    +0.000 OA
ENDBRANCH  15  25
ENDBRANCH   1  20
BRANCH  13  26
ATOM     26  C   UNL     1      -6.114  12.931  20.094  0.00  0.00    +0.000 A 
ATOM     27  C   UNL     1      -5.497  12.363  18.963  0.00  0.00    +0.000 A 
ATOM     28  C   UNL     1      -5.943  11.147  18.443  0.00  0.00    +0.000 A 
ATOM     29  C   UNL     1      -7.005  10.478  19.044  0.00  0.00    +0.000 A 
ATOM     30  C   UNL     1      -7.624  11.028  20.163  0.00  0.00    +0.000 A 
ATOM     31  C   UNL     1      -7.186  12.246  20.688  0.00  0.00    +0.000 A 
ENDBRANCH  13  26
TORSDOF 3
ENDMDL
MODEL 4
REMARK VINA RESULT:      -7.0      4.457      6.840
REMARK  Name = 
REMARK  4 active torsions:
REMARK  status: ('A' for Active; 'I' for Inactive)
REMARK    1  A    between atoms: C_1  and  O_2
REMARK    2  A    between atoms: O_2  and  C_3
REMARK    3  A    between atoms: C_8  and  N_9
REMARK    4  A    between atoms: C_21  and  C_22
REMARK                            x       y       z     vdW  Elec       q    Type
REMARK                         _______ _______ _______ _____ _____    ______ ____
ROOT
ATOM      1  N   UNL     1       0.407  10.015  20.304  0.00  0.00    +0.000 N 
ATOM      2  C   UNL     1       0.091  11.274  19.807  0.00  0.00    +0.000 C 
ATOM      3  O   UNL     1       0.330  11.648  18.666  0.00  0.00    +0.000 OA
ATOM      4  N   UNL     1      -0.435  12.100  20.819  0.00  0.00    +0.000 N 
ATOM      5  C   UNL     1      -1.275  11.500  21.865  0.00  0.00    +0.000 C 
ATOM      6  C   UNL     1      -2.295  12.434  22.496  0.00  0.00    +0.000 C 
ATOM      7  C   UNL     1      -1.591  13.675  22.951  0.00  0.00    +0.000 A 
ATOM      8  C   UNL     1      -1.844  14.224  24.214  0.00  0.00    +0.000 A 
ATOM      9  C   UNL     1      -1.179  15.378  24.619  0.00  0.00    +0.000 A 
ATOM     10  C   UNL     1      -0.290  16.002  23.750  0.00  0.00    +0.000 A 
ATOM     11  C   UNL     1      -0.051  15.466  22.480  0.00  0.00    +0.000 A 
ATOM     12  C   UNL     1      -0.665  14.269  22.069  0.00  0.00    +0.000 A 
ATOM     13  C   UNL     1      -0.393  13.590  20.700  0.00  0.00    +0.000 C 
ATOM     14  H   UNL     1       0.521  10.020  21.304  0.00  0.00    +0.000 HD
ENDROOT
BRANCH   1  20
ATOM     15  C   UNL     1       3.075   4.823  19.057  0.00  0.00    +0.000 C 
ATOM     16  C   UNL     1       3.570   5.897  18.056  0.00  0.00    +0.000 C 
ATOM     17  C   UNL     1       2.756   7.091  18.458  0.00  0.00    +0.000 A 
ATOM     18  C   UNL     1       2.555   8.280  17.775  0.00  0.00    +0.000 A 
ATOM     19  C   UNL     1       1.785   9.285  18.382  0.00  0.00    +0.000 A 
ATOM     20  C   UNL     1       1.212   9.071  19.645  0.00  0.00    +0.000 A 
ATOM     21  C   UNL     1       1.417   7.862  20.318  0.00  0.00    +0.000 A 
ATOM     22  C   UNL     1       2.206   6.897  19.727  0.00  0.00    +0.000 A 
ATOM     23  C   UNL     1       2.648   5.599  20.316  0.00  0.00    +0.000 C 
BRANCH  15  25
ATOM     24  C   UNL     1       5.381   4.304  18.862  0.00  0.00    +0.000 C 
ATOM     25  O   UNL     1       4.106   3.871  19.322  0.00  0.00    +0.000 OA
ENDBRANCH  15  25
ENDBRANCH   1  20
BRANCH  13  26
ATOM     26  C   UNL     1       0.906  14.087  20.055  0.00  0.00    +0.000 A 
ATOM     27  C   UNL     1       0.887  14.958  18.949  0.00  0.00    +0.000 A 
ATOM     28  C   UNL     1       2.077  15.416  18.382  0.00  0.00    +0.000 A 
ATOM     29  C   UNL     1       3.301  15.014  18.907  0.00  0.00    +0.000 A 
ATOM     30  C   UNL     1       3.335  14.152  20.001  0.00  0.00    +0.000 A 
ATOM     31  C   UNL     1       2.148  13.688  20.573  0.00  0.00    +0.000 A 
ENDBRANCH  13  26
TORSDOF 3
ENDMDL
MODEL 5
REMARK VINA RESULT:      -7.0      7.803     13.504
REMARK  Name = 
REMARK  4 active torsions:
REMARK  status: ('A' for Active; 'I' for Inactive)
REMARK    1  A    between atoms: C_1  and  O_2
REMARK    2  A    between atoms: O_2  and  C_3
REMARK    3  A    between atoms: C_8  and  N_9
REMARK    4  A    between atoms: C_21  and  C_22
REMARK                            x       y       z     vdW  Elec       q    Type
REMARK                         _______ _______ _______ _____ _____    ______ ____
ROOT
ATOM      1  N   UNL     1       2.830   6.230  18.418  0.00  0.00    +0.000 N 
ATOM      2  C   UNL     1       4.129   5.767  18.597  0.00  0.00    +0.000 C 
ATOM      3  O   UNL     1       4.799   5.959  19.603  0.00  0.00    +0.000 OA
ATOM      4  N   UNL     1       4.612   5.151  17.426  0.00  0.00    +0.000 N 
ATOM      5  C   UNL     1       3.680   4.390  16.584  0.00  0.00    +0.000 C 
ATOM      6  C   UNL     1       4.305   3.269  15.769  0.00  0.00    +0.000 C 
ATOM      7  C   UNL     1       5.466   3.825  15.003  0.00  0.00    +0.000 A 
ATOM      8  C   UNL     1       5.651   3.513  13.650  0.00  0.00    +0.000 A 
ATOM      9  C   UNL     1       6.736   4.039  12.955  0.00  0.00    +0.000 A 
ATOM     10  C   UNL     1       7.653   4.847  13.620  0.00  0.00    +0.000 A 
ATOM     11  C   UNL     1       7.481   5.144  14.976  0.00  0.00    +0.000 A 
ATOM     12  C   UNL     1       6.362   4.673  15.685  0.00  0.00    +0.000 A 
ATOM     13  C   UNL     1       6.079   5.019  17.172  0.00  0.00    +0.000 C 
ATOM     14  H   UNL     1       2.599   6.346  17.445  0.00  0.00    +0.000 HD
ENDROOT
BRANCH   1  20
ATOM     15  C   UNL     1      -0.107  11.107  20.211  0.00  0.00    +0.000 C 
ATOM     16  C   UNL     1       0.207  10.226  21.446  0.00  0.00    +0.000 C 
ATOM     17  C   UNL     1       0.862   9.033  20.814  0.00  0.00    +0.000 A 
ATOM     18  C   UNL     1       1.130   7.791  21.366  0.00  0.00    +0.000 A 
ATOM     19  C   UNL     1       1.807   6.838  20.587  0.00  0.00    +0.000 A 
ATOM     20  C   UNL     1       2.177   7.138  19.268  0.00  0.00    +0.000 A 
ATOM     21  C   UNL     1       1.892   8.394  18.722  0.00  0.00    +0.000 A 
ATOM     22  C   UNL     1       1.260   9.334  19.510  0.00  0.00    +0.000 A 
ATOM     23  C   UNL     1       0.973  10.758  19.170  0.00  0.00    +0.000 C 
BRANCH  15  25
ATOM     24  C   UNL     1       1.209  12.978  20.840  0.00  0.00    +0.000 C 
ATOM     25  O   UNL     1      -0.100  12.490  20.566  0.00  0.00    +0.000 OA
ENDBRANCH  15  25
ENDBRANCH   1  20
BRANCH  13  26
ATOM     26  C   UNL     1       6.865   6.249  17.640  0.00  0.00    +0.000 A 
ATOM     27  C   UNL     1       7.823   6.158  18.668  0.00  0.00    +0.000 A 
ATOM     28  C   UNL     1       8.543   7.283  19.073  0.00  0.00    +0.000 A 
ATOM     29  C   UNL     1       8.322   8.512  18.460  0.00  0.00    +0.000 A 
ATOM     30  C   UNL     1       7.378   8.617  17.441  0.00  0.00    +0.000 A 
ATOM     31  C   UNL     1       6.652   7.496  17.032  0.00  0.00    +0.000 A 
ENDBRANCH  13  26
TORSDOF 3
ENDMDL
MODEL 6
REMARK VINA RESULT:      -6.9      4.664      6.743
REMARK  Name = 
REMARK  4 active torsions:
REMARK  status: ('A' for Active; 'I' for Inactive)
REMARK    1  A    between atoms: C_1  and  O_2
REMARK    2  A    between atoms: O_2  and  C_3
REMARK    3  A    between atoms: C_8  and  N_9
REMARK    4  A    between atoms: C_21  and  C_22
REMARK                            x       y       z     vdW  Elec       q    Type
REMARK                         _______ _______ _______ _____ _____    ______ ____
ROOT
ATOM      1  N   UNL     1       1.791  10.084  19.698  0.00  0.00    +0.000 N 
ATOM      2  C   UNL     1       0.625  10.686  20.157  0.00  0.00    +0.000 C 
ATOM      3  O   UNL     1      -0.410  10.086  20.411  0.00  0.00    +0.000 OA
ATOM      4  N   UNL     1       0.756  12.089  20.180  0.00  0.00    +0.000 N 
ATOM      5  C   UNL     1       2.059  12.678  20.515  0.00  0.00    +0.000 C 
ATOM      6  C   UNL     1       2.005  14.061  21.145  0.00  0.00    +0.000 C 
ATOM      7  C   UNL     1       1.167  14.949  20.277  0.00  0.00    +0.000 A 
ATOM      8  C   UNL     1       1.588  16.246  19.956  0.00  0.00    +0.000 A 
ATOM      9  C   UNL     1       0.795  17.055  19.147  0.00  0.00    +0.000 A 
ATOM     10  C   UNL     1      -0.432  16.584  18.692  0.00  0.00    +0.000 A 
ATOM     11  C   UNL     1      -0.863  15.296  19.028  0.00  0.00    +0.000 A 
ATOM     12  C   UNL     1      -0.054  14.437  19.794  0.00  0.00    +0.000 A 
ATOM     13  C   UNL     1      -0.446  12.977  20.148  0.00  0.00    +0.000 C 
ATOM     14  H   UNL     1       2.365  10.721  19.171  0.00  0.00    +0.000 HD
ENDROOT
BRANCH   1  20
ATOM     15  C   UNL     1       1.541   4.123  19.863  0.00  0.00    +0.000 C 
ATOM     16  C   UNL     1       2.115   4.565  18.493  0.00  0.00    +0.000 C 
ATOM     17  C   UNL     1       2.035   6.060  18.595  0.00  0.00    +0.000 A 
ATOM     18  C   UNL     1       2.155   7.009  17.593  0.00  0.00    +0.000 A 
ATOM     19  C   UNL     1       2.095   8.368  17.940  0.00  0.00    +0.000 A 
ATOM     20  C   UNL     1       1.891   8.747  19.275  0.00  0.00    +0.000 A 
ATOM     21  C   UNL     1       1.764   7.777  20.274  0.00  0.00    +0.000 A 
ATOM     22  C   UNL     1       1.861   6.446  19.925  0.00  0.00    +0.000 A 
ATOM     23  C   UNL     1       1.874   5.266  20.838  0.00  0.00    +0.000 C 
BRANCH  15  25
ATOM     24  C   UNL     1       1.922   2.611  21.652  0.00  0.00    +0.000 C 
ATOM     25  O   UNL     1       2.107   2.875  20.265  0.00  0.00    +0.000 OA
ENDBRANCH  15  25
ENDBRANCH   1  20
BRANCH  13  26
ATOM     26  C   UNL     1      -1.548  12.434  19.230  0.00  0.00    +0.000 A 
ATOM     27  C   UNL     1      -1.264  12.008  17.918  0.00  0.00    +0.000 A 
ATOM     28  C   UNL     1      -2.273  11.500  17.099  0.00  0.00    +0.000 A 
ATOM     29  C   UNL     1      -3.577  11.407  17.574  0.00  0.00    +0.000 A 
ATOM     30  C   UNL     1      -3.873  11.825  18.870  0.00  0.00    +0.000 A 
ATOM     31  C   UNL     1      -2.869  12.337  19.695  0.00  0.00    +0.000 A 
ENDBRANCH  13  26
TORSDOF 3
ENDMDL
MODEL 7
REMARK VINA RESULT:      -6.7      2.809      3.987
REMARK  Name = 
REMARK  4 active torsions:
REMARK  status: ('A' for Active; 'I' for Inactive)
REMARK    1  A    between atoms: C_1  and  O_2
REMARK    2  A    between atoms: O_2  and  C_3
REMARK    3  A    between atoms: C_8  and  N_9
REMARK    4  A    between atoms: C_21  and  C_22
REMARK                            x       y       z     vdW  Elec       q    Type
REMARK                         _______ _______ _______ _____ _____    ______ ____
ROOT
ATOM      1  N   UNL     1      -2.024  12.825  22.321  0.00  0.00    +0.000 N 
ATOM      2  C   UNL     1      -3.313  12.895  22.838  0.00  0.00    +0.000 C 
ATOM      3  O   UNL     1      -3.913  11.950  23.331  0.00  0.00    +0.000 OA
ATOM      4  N   UNL     1      -3.878  14.166  22.617  0.00  0.00    +0.000 N 
ATOM      5  C   UNL     1      -3.011  15.351  22.665  0.00  0.00    +0.000 C 
ATOM      6  C   UNL     1      -3.699  16.646  23.065  0.00  0.00    +0.000 C 
ATOM      7  C   UNL     1      -4.902  16.837  22.195  0.00  0.00    +0.000 A 
ATOM      8  C   UNL     1      -5.180  18.081  21.613  0.00  0.00    +0.000 A 
ATOM      9  C   UNL     1      -6.303  18.238  20.806  0.00  0.00    +0.000 A 
ATOM     10  C   UNL     1      -7.167  17.165  20.612  0.00  0.00    +0.000 A 
ATOM     11  C   UNL     1      -6.903  15.928  21.208  0.00  0.00    +0.000 A 
ATOM     12  C   UNL     1      -5.743  15.727  21.979  0.00  0.00    +0.000 A 
ATOM     13  C   UNL     1      -5.360  14.363  22.614  0.00  0.00    +0.000 C 
ATOM     14  H   UNL     1      -1.858  13.530  21.622  0.00  0.00    +0.000 HD
ENDROOT
BRANCH   1  20
ATOM     15  C   UNL     1       1.595   8.851  19.727  0.00  0.00    +0.000 C 
ATOM     16  C   UNL     1       0.967   8.210  20.990  0.00  0.00    +0.000 C 
ATOM     17  C   UNL     1       0.166   9.351  21.547  0.00  0.00    +0.000 A 
ATOM     18  C   UNL     1      -0.409   9.482  22.801  0.00  0.00    +0.000 A 
ATOM     19  C   UNL     1      -1.165  10.632  23.079  0.00  0.00    +0.000 A 
ATOM     20  C   UNL     1      -1.309  11.635  22.108  0.00  0.00    +0.000 A 
ATOM     21  C   UNL     1      -0.715  11.491  20.850  0.00  0.00    +0.000 A 
ATOM     22  C   UNL     1      -0.006  10.340  20.577  0.00  0.00    +0.000 A 
ATOM     23  C   UNL     1       0.599   9.934  19.275  0.00  0.00    +0.000 C 
BRANCH  15  25
ATOM     24  C   UNL     1       2.706   6.833  19.159  0.00  0.00    +0.000 C 
ATOM     25  O   UNL     1       1.823   7.861  18.723  0.00  0.00    +0.000 OA
ENDBRANCH  15  25
ENDBRANCH   1  20
BRANCH  13  26
ATOM     26  C   UNL     1      -6.102  13.191  21.962  0.00  0.00    +0.000 A 
ATOM     27  C   UNL     1      -7.176  12.552  22.610  0.00  0.00    +0.000 A 
ATOM     28  C   UNL     1      -7.853  11.497  21.998  0.00  0.00    +0.000 A 
ATOM     29  C   UNL     1      -7.474  11.065  20.731  0.00  0.00    +0.000 A 
ATOM     30  C   UNL     1      -6.413  11.687  20.077  0.00  0.00    +0.000 A 
ATOM     31  C   UNL     1      -5.729  12.743  20.685  0.00  0.00    +0.000 A 
ENDBRANCH  13  26
TORSDOF 3
ENDMDL
MODEL 8
REMARK VINA RESULT:      -6.6      2.801      3.707
REMARK  Name = 
REMARK  4 active torsions:
REMARK  status: ('A' for Active; 'I' for Inactive)
REMARK    1  A    between atoms: C_1  and  O_2
REMARK    2  A    between atoms: O_2  and  C_3
REMARK    3  A    between atoms: C_8  and  N_9
REMARK    4  A    between atoms: C_21  and  C_22
REMARK                            x       y       z     vdW  Elec       q    Type
REMARK                         _______ _______ _______ _____ _____    ______ ____
ROOT
ATOM      1  N   UNL     1      -1.542  12.669  22.617  0.00  0.00    +0.000 N 
ATOM      2  C   UNL     1      -2.871  12.813  23.000  0.00  0.00    +0.000 C 
ATOM      3  O   UNL     1      -3.602  11.887  23.324  0.00  0.00    +0.000 OA
ATOM      4  N   UNL     1      -3.298  14.148  22.855  0.00  0.00    +0.000 N 
ATOM      5  C   UNL     1      -2.345  15.234  23.119  0.00  0.00    +0.000 C 
ATOM      6  C   UNL     1      -2.962  16.545  23.577  0.00  0.00    +0.000 C 
ATOM      7  C   UNL     1      -4.037  16.932  22.609  0.00  0.00    +0.000 A 
ATOM      8  C   UNL     1      -4.140  18.246  22.135  0.00  0.00    +0.000 A 
ATOM      9  C   UNL     1      -5.145  18.586  21.235  0.00  0.00    +0.000 A 
ATOM     10  C   UNL     1      -6.069  17.624  20.838  0.00  0.00    +0.000 A 
ATOM     11  C   UNL     1      -5.981  16.316  21.326  0.00  0.00    +0.000 A 
ATOM     12  C   UNL     1      -4.939  15.933  22.190  0.00  0.00    +0.000 A 
ATOM     13  C   UNL     1      -4.748  14.485  22.715  0.00  0.00    +0.000 C 
ATOM     14  H   UNL     1      -1.237  13.419  22.018  0.00  0.00    +0.000 HD
ENDROOT
BRANCH   1  20
ATOM     15  C   UNL     1       1.829   8.570  19.887  0.00  0.00    +0.000 C 
ATOM     16  C   UNL     1       1.134   7.918  21.110  0.00  0.00    +0.000 C 
ATOM     17  C   UNL     1       0.407   9.086  21.709  0.00  0.00    +0.000 A 
ATOM     18  C   UNL     1      -0.179   9.200  22.959  0.00  0.00    +0.000 A 
ATOM     19  C   UNL     1      -0.856  10.387  23.281  0.00  0.00    +0.000 A 
ATOM     20  C   UNL     1      -0.910  11.442  22.359  0.00  0.00    +0.000 A 
ATOM     21  C   UNL     1      -0.306  11.315  21.104  0.00  0.00    +0.000 A 
ATOM     22  C   UNL     1       0.324  10.130  20.785  0.00  0.00    +0.000 A 
ATOM     23  C   UNL     1       0.921   9.742  19.474  0.00  0.00    +0.000 C 
BRANCH  15  25
ATOM     24  C   UNL     1       2.567   8.187  17.666  0.00  0.00    +0.000 C 
ATOM     25  O   UNL     1       2.003   7.615  18.841  0.00  0.00    +0.000 OA
ENDBRANCH  15  25
ENDBRANCH   1  20
BRANCH  13  26
ATOM     26  C   UNL     1      -5.506  13.456  21.868  0.00  0.00    +0.000 A 
ATOM     27  C   UNL     1      -5.052  13.084  20.589  0.00  0.00    +0.000 A 
ATOM     28  C   UNL     1      -5.743  12.133  19.835  0.00  0.00    +0.000 A 
ATOM     29  C   UNL     1      -6.892  11.539  20.345  0.00  0.00    +0.000 A 
ATOM     30  C   UNL     1      -7.354  11.898  21.610  0.00  0.00    +0.000 A 
ATOM     31  C   UNL     1      -6.669  12.850  22.369  0.00  0.00    +0.000 A 
ENDBRANCH  13  26
TORSDOF 3
ENDMDL
MODEL 9
REMARK VINA RESULT:      -6.6      5.906     11.402
REMARK  Name = 
REMARK  4 active torsions:
REMARK  status: ('A' for Active; 'I' for Inactive)
REMARK    1  A    between atoms: C_1  and  O_2
REMARK    2  A    between atoms: O_2  and  C_3
REMARK    3  A    between atoms: C_8  and  N_9
REMARK    4  A    between atoms: C_21  and  C_22
REMARK                            x       y       z     vdW  Elec       q    Type
REMARK                         _______ _______ _______ _____ _____    ______ ____
ROOT
ATOM      1  N   UNL     1       2.080   9.201  18.386  0.00  0.00    +0.000 N 
ATOM      2  C   UNL     1       1.989   7.898  17.911  0.00  0.00    +0.000 C 
ATOM      3  O   UNL     1       0.940   7.279  17.784  0.00  0.00    +0.000 OA
ATOM      4  N   UNL     1       3.267   7.344  17.704  0.00  0.00    +0.000 N 
ATOM      5  C   UNL     1       4.354   8.214  17.234  0.00  0.00    +0.000 C 
ATOM      6  C   UNL     1       5.447   7.519  16.438  0.00  0.00    +0.000 C 
ATOM      7  C   UNL     1       5.937   6.343  17.225  0.00  0.00    +0.000 A 
ATOM      8  C   UNL     1       7.308   6.088  17.359  0.00  0.00    +0.000 A 
ATOM      9  C   UNL     1       7.744   4.991  18.095  0.00  0.00    +0.000 A 
ATOM     10  C   UNL     1       6.813   4.129  18.665  0.00  0.00    +0.000 A 
ATOM     11  C   UNL     1       5.443   4.370  18.515  0.00  0.00    +0.000 A 
ATOM     12  C   UNL     1       4.977   5.505  17.826  0.00  0.00    +0.000 A 
ATOM     13  C   UNL     1       3.474   5.864  17.680  0.00  0.00    +0.000 C 
ATOM     14  H   UNL     1       2.978   9.392  18.800  0.00  0.00    +0.000 HD
ENDROOT
BRANCH   1  20
ATOM     15  C   UNL     1      -1.381  11.658  22.583  0.00  0.00    +0.000 C 
ATOM     16  C   UNL     1      -2.023  11.903  21.193  0.00  0.00    +0.000 C 
ATOM     17  C   UNL     1      -1.002  11.301  20.273  0.00  0.00    +0.000 A 
ATOM     18  C   UNL     1      -0.878  11.438  18.900  0.00  0.00    +0.000 A 
ATOM     19  C   UNL     1       0.138  10.728  18.240  0.00  0.00    +0.000 A 
ATOM     20  C   UNL     1       1.022   9.919  18.969  0.00  0.00    +0.000 A 
ATOM     21  C   UNL     1       0.889   9.797  20.356  0.00  0.00    +0.000 A 
ATOM     22  C   UNL     1      -0.136  10.470  20.987  0.00  0.00    +0.000 A 
ATOM     23  C   UNL     1      -0.528  10.387  22.424  0.00  0.00    +0.000 C 
BRANCH  15  25
ATOM     24  C   UNL     1      -3.375  12.548  23.510  0.00  0.00    +0.000 C 
ATOM     25  O   UNL     1      -2.389  11.524  23.584  0.00  0.00    +0.000 OA
ENDBRANCH  15  25
ENDBRANCH   1  20
BRANCH  13  26
ATOM     26  C   UNL     1       2.602   5.137  18.711  0.00  0.00    +0.000 A 
ATOM     27  C   UNL     1       1.720   4.108  18.329  0.00  0.00    +0.000 A 
ATOM     28  C   UNL     1       0.944   3.444  19.281  0.00  0.00    +0.000 A 
ATOM     29  C   UNL     1       1.037   3.793  20.624  0.00  0.00    +0.000 A 
ATOM     30  C   UNL     1       1.904   4.810  21.017  0.00  0.00    +0.000 A 
ATOM     31  C   UNL     1       2.683   5.480  20.070  0.00  0.00    +0.000 A 
ENDBRANCH  13  26
TORSDOF 3
ENDMDL
