MODEL 1
REMARK VINA RESULT:      -7.3      0.000      0.000
REMARK  Name = 
REMARK  6 active torsions:
REMARK  status: ('A' for Active; 'I' for Inactive)
REMARK    1  A    between atoms: C_1  and  C_2
REMARK    2  A    between atoms: C_6  and  N_7
REMARK    3  A    between atoms: C_12  and  C_13
REMARK    4  A    between atoms: C_13  and  N_14
REMARK    5  A    between atoms: N_14  and  C_15
REMARK    6  A    between atoms: C_22  and  C_23
REMARK                            x       y       z     vdW  Elec       q    Type
REMARK                         _______ _______ _______ _____ _____    ______ ____
ROOT
ATOM      1  N   UNL     1      -0.369  11.945  18.947  0.00  0.00    +0.000 N 
ATOM      2  C   UNL     1       0.445  11.201  19.943  0.00  0.00    +0.000 C 
ATOM      3  C   UNL     1      -0.239  11.556  21.227  0.00  0.00    +0.000 A 
ATOM      4  C   UNL     1      -0.831  12.806  21.062  0.00  0.00    +0.000 A 
ATOM      5  C   UNL     1      -1.725  13.357  21.959  0.00  0.00    +0.000 A 
ATOM      6  C   UNL     1      -2.074  12.586  23.075  0.00  0.00    +0.000 A 
ATOM      7  C   UNL     1      -1.462  11.326  23.267  0.00  0.00    +0.000 A 
ATOM      8  C   UNL     1      -0.544  10.774  22.341  0.00  0.00    +0.000 A 
ATOM      9  C   UNL     1      -0.777  13.132  19.610  0.00  0.00    +0.000 C 
ATOM     10  O   UNL     1      -1.225  14.156  19.125  0.00  0.00    +0.000 OA
ENDROOT
BRANCH   1  16
ATOM     11  C   UNL     1      -5.007  11.822  17.352  0.00  0.00    +0.000 C 
ATOM     12  C   UNL     1      -3.626  11.247  17.411  0.00  0.00    +0.000 A 
ATOM     13  C   UNL     1      -3.199  10.333  16.440  0.00  0.00    +0.000 A 
ATOM     14  C   UNL     1      -1.984   9.674  16.586  0.00  0.00    +0.000 A 
ATOM     15  C   UNL     1      -1.145   9.991  17.649  0.00  0.00    +0.000 A 
ATOM     16  C   UNL     1      -1.449  11.092  18.465  0.00  0.00    +0.000 A 
ATOM     17  C   UNL     1      -2.743  11.623  18.431  0.00  0.00    +0.000 A 
ENDBRANCH   1  16
BRANCH   8  18
ATOM     18  C   UNL     1      -0.095   9.351  22.529  0.00  0.00    +0.000 C 
ATOM     19  F   UNL     1      -0.764   8.442  21.772  0.00  0.00    +0.000 F 
ATOM     20  F   UNL     1       1.222   9.182  22.227  0.00  0.00    +0.000 F 
ATOM     21  F   UNL     1      -0.236   8.932  23.819  0.00  0.00    +0.000 F 
ENDBRANCH   8  18
BRANCH   6  22
ATOM     22  C   UNL     1      -3.189  13.017  24.012  0.00  0.00    +0.000 C 
BRANCH  22  23
ATOM     23  N   UNL     1      -4.496  12.427  23.719  0.00  0.00    +0.000 NA
ATOM     24  H   UNL     1      -4.774  11.825  24.490  0.00  0.00    +0.000 HD
BRANCH  23  25
ATOM     25  C   UNL     1      -5.595  13.370  23.419  0.00  0.00    +0.000 C 
ATOM     26  C   UNL     1      -5.180  14.695  22.733  0.00  0.00    +0.000 C 
ATOM     27  C   UNL     1      -4.944  14.582  21.253  0.00  0.00    +0.000 C 
ATOM     28  C   UNL     1      -5.377  13.544  20.523  0.00  0.00    +0.000 C 
ATOM     29  C   UNL     1      -6.160  12.405  21.107  0.00  0.00    +0.000 C 
ATOM     30  C   UNL     1      -6.648  12.669  22.534  0.00  0.00    +0.000 C 
ENDBRANCH  23  25
ENDBRANCH  22  23
ENDBRANCH   6  22
TORSDOF 5
ENDMDL
MODEL 2
REMARK VINA RESULT:      -7.2      0.544      1.312
REMARK  Name = 
REMARK  6 active torsions:
REMARK  status: ('A' for Active; 'I' for Inactive)
REMARK    1  A    between atoms: C_1  and  C_2
REMARK    2  A    between atoms: C_6  and  N_7
REMARK    3  A    between atoms: C_12  and  C_13
REMARK    4  A    between atoms: C_13  and  N_14
REMARK    5  A    between atoms: N_14  and  C_15
REMARK    6  A    between atoms: C_22  and  C_23
REMARK                            x       y       z     vdW  Elec       q    Type
REMARK                         _______ _______ _______ _____ _____    ______ ____
ROOT
ATOM      1  N   UNL     1      -0.386  11.824  18.832  0.00  0.00    +0.000 N 
ATOM      2  C   UNL     1       0.414  11.038  19.807  0.00  0.00    +0.000 C 
ATOM      3  C   UNL     1      -0.234  11.405  21.106  0.00  0.00    +0.000 A 
ATOM      4  C   UNL     1      -0.779  12.679  20.962  0.00  0.00    +0.000 A 
ATOM      5  C   UNL     1      -1.636  13.256  21.880  0.00  0.00    +0.000 A 
ATOM      6  C   UNL     1      -1.997  12.487  22.994  0.00  0.00    +0.000 A 
ATOM      7  C   UNL     1      -1.431  11.201  23.163  0.00  0.00    +0.000 A 
ATOM      8  C   UNL     1      -0.551  10.624  22.217  0.00  0.00    +0.000 A 
ATOM      9  C   UNL     1      -0.736  13.019  19.514  0.00  0.00    +0.000 C 
ATOM     10  O   UNL     1      -1.151  14.064  19.046  0.00  0.00    +0.000 OA
ENDROOT
BRANCH   1  16
ATOM     11  C   UNL     1      -5.140  11.844  17.621  0.00  0.00    +0.000 C 
ATOM     12  C   UNL     1      -3.762  11.269  17.509  0.00  0.00    +0.000 A 
ATOM     13  C   UNL     1      -3.421  10.457  16.422  0.00  0.00    +0.000 A 
ATOM     14  C   UNL     1      -2.202   9.790  16.401  0.00  0.00    +0.000 A 
ATOM     15  C   UNL     1      -1.276  10.004  17.417  0.00  0.00    +0.000 A 
ATOM     16  C   UNL     1      -1.506  11.019  18.359  0.00  0.00    +0.000 A 
ATOM     17  C   UNL     1      -2.796  11.547  18.485  0.00  0.00    +0.000 A 
ENDBRANCH   1  16
BRANCH   8  18
ATOM     18  C   UNL     1      -0.156   9.183  22.382  0.00  0.00    +0.000 C 
ATOM     19  F   UNL     1      -0.396   8.667  23.616  0.00  0.00    +0.000 F 
ATOM     20  F   UNL     1      -0.810   8.367  21.509  0.00  0.00    +0.000 F 
ATOM     21  F   UNL     1       1.174   8.983  22.150  0.00  0.00    +0.000 F 
ENDBRANCH   8  18
BRANCH   6  22
ATOM     22  C   UNL     1      -3.078  12.951  23.953  0.00  0.00    +0.000 C 
BRANCH  22  23
ATOM     23  N   UNL     1      -4.437  12.550  23.584  0.00  0.00    +0.000 NA
ATOM     24  H   UNL     1      -4.957  12.312  24.424  0.00  0.00    +0.000 HD
BRANCH  23  25
ATOM     25  C   UNL     1      -5.219  13.520  22.787  0.00  0.00    +0.000 C 
ATOM     26  C   UNL     1      -5.579  13.076  21.347  0.00  0.00    +0.000 C 
ATOM     27  C   UNL     1      -6.750  12.140  21.260  0.00  0.00    +0.000 C 
ATOM     28  C   UNL     1      -7.623  11.968  22.263  0.00  0.00    +0.000 C 
ATOM     29  C   UNL     1      -7.529  12.711  23.563  0.00  0.00    +0.000 C 
ATOM     30  C   UNL     1      -6.524  13.866  23.534  0.00  0.00    +0.000 C 
ENDBRANCH  23  25
ENDBRANCH  22  23
ENDBRANCH   6  22
TORSDOF 5
ENDMDL
MODEL 3
REMARK VINA RESULT:      -7.0      3.552      7.227
REMARK  Name = 
REMARK  6 active torsions:
REMARK  status: ('A' for Active; 'I' for Inactive)
REMARK    1  A    between atoms: C_1  and  C_2
REMARK    2  A    between atoms: C_6  and  N_7
REMARK    3  A    between atoms: C_12  and  C_13
REMARK    4  A    between atoms: C_13  and  N_14
REMARK    5  A    between atoms: N_14  and  C_15
REMARK    6  A    between atoms: C_22  and  C_23
REMARK                            x       y       z     vdW  Elec       q    Type
REMARK                         _______ _______ _______ _____ _____    ______ ____
ROOT
ATOM      1  N   UNL     1      -1.669  13.385  21.162  0.00  0.00    +0.000 N 
ATOM      2  C   UNL     1      -1.557  13.163  19.697  0.00  0.00    +0.000 C 
ATOM      3  C   UNL     1      -0.735  11.913  19.637  0.00  0.00    +0.000 A 
ATOM      4  C   UNL     1       0.060  11.872  20.780  0.00  0.00    +0.000 A 
ATOM      5  C   UNL     1       0.788  10.765  21.171  0.00  0.00    +0.000 A 
ATOM      6  C   UNL     1       0.680   9.613  20.381  0.00  0.00    +0.000 A 
ATOM      7  C   UNL     1      -0.104   9.650  19.204  0.00  0.00    +0.000 A 
ATOM      8  C   UNL     1      -0.842  10.793  18.813  0.00  0.00    +0.000 A 
ATOM      9  C   UNL     1      -0.441  12.926  21.704  0.00  0.00    +0.000 C 
ATOM     10  O   UNL     1       0.031  13.147  22.806  0.00  0.00    +0.000 OA
ENDROOT
BRANCH   1  16
ATOM     11  C   UNL     1      -4.465  12.555  25.108  0.00  0.00    +0.000 C 
ATOM     12  C   UNL     1      -4.292  12.668  23.624  0.00  0.00    +0.000 A 
ATOM     13  C   UNL     1      -5.404  12.857  22.796  0.00  0.00    +0.000 A 
ATOM     14  C   UNL     1      -5.266  12.796  21.414  0.00  0.00    +0.000 A 
ATOM     15  C   UNL     1      -4.004  12.639  20.848  0.00  0.00    +0.000 A 
ATOM     16  C   UNL     1      -2.866  12.720  21.666  0.00  0.00    +0.000 A 
ATOM     17  C   UNL     1      -3.016  12.595  23.051  0.00  0.00    +0.000 A 
ENDBRANCH   1  16
BRANCH   8  18
ATOM     18  C   UNL     1      -1.798  10.676  17.658  0.00  0.00    +0.000 C 
ATOM     19  F   UNL     1      -3.100  10.516  18.014  0.00  0.00    +0.000 F 
ATOM     20  F   UNL     1      -1.769  11.774  16.853  0.00  0.00    +0.000 F 
ATOM     21  F   UNL     1      -1.503   9.617  16.850  0.00  0.00    +0.000 F 
ENDBRANCH   8  18
BRANCH   6  22
ATOM     22  C   UNL     1       1.280   8.292  20.828  0.00  0.00    +0.000 C 
BRANCH  22  23
ATOM     23  N   UNL     1       1.842   7.479  19.749  0.00  0.00    +0.000 NA
ATOM     24  H   UNL     1       2.388   8.072  19.130  0.00  0.00    +0.000 HD
BRANCH  23  25
ATOM     25  C   UNL     1       2.662   6.317  20.155  0.00  0.00    +0.000 C 
ATOM     26  C   UNL     1       1.890   5.131  20.783  0.00  0.00    +0.000 C 
ATOM     27  C   UNL     1       1.209   4.235  19.787  0.00  0.00    +0.000 C 
ATOM     28  C   UNL     1       1.509   4.235  18.481  0.00  0.00    +0.000 C 
ATOM     29  C   UNL     1       2.572   5.113  17.888  0.00  0.00    +0.000 C 
ATOM     30  C   UNL     1       3.455   5.795  18.937  0.00  0.00    +0.000 C 
ENDBRANCH  23  25
ENDBRANCH  22  23
ENDBRANCH   6  22
TORSDOF 5
ENDMDL
MODEL 4
REMARK VINA RESULT:      -7.0      0.650      1.618
REMARK  Name = 
REMARK  6 active torsions:
REMARK  status: ('A' for Active; 'I' for Inactive)
REMARK    1  A    between atoms: C_1  and  C_2
REMARK    2  A    between atoms: C_6  and  N_7
REMARK    3  A    between atoms: C_12  and  C_13
REMARK    4  A    between atoms: C_13  and  N_14
REMARK    5  A    between atoms: N_14  and  C_15
REMARK    6  A    between atoms: C_22  and  C_23
REMARK                            x       y       z     vdW  Elec       q    Type
REMARK                         _______ _______ _______ _____ _____    ______ ____
ROOT
ATOM      1  N   UNL     1      -0.338  11.974  19.020  0.00  0.00    +0.000 N 
ATOM      2  C   UNL     1       0.455  11.263  20.056  0.00  0.00    +0.000 C 
ATOM      3  C   UNL     1      -0.273  11.635  21.311  0.00  0.00    +0.000 A 
ATOM      4  C   UNL     1      -0.877  12.872  21.100  0.00  0.00    +0.000 A 
ATOM      5  C   UNL     1      -1.806  13.430  21.957  0.00  0.00    +0.000 A 
ATOM      6  C   UNL     1      -2.179  12.678  23.079  0.00  0.00    +0.000 A 
ATOM      7  C   UNL     1      -1.555  11.430  23.316  0.00  0.00    +0.000 A 
ATOM      8  C   UNL     1      -0.601  10.873  22.431  0.00  0.00    +0.000 A 
ATOM      9  C   UNL     1      -0.782  13.168  19.644  0.00  0.00    +0.000 C 
ATOM     10  O   UNL     1      -1.229  14.175  19.123  0.00  0.00    +0.000 OA
ENDROOT
BRANCH   1  16
ATOM     11  C   UNL     1      -4.991  11.720  17.484  0.00  0.00    +0.000 C 
ATOM     12  C   UNL     1      -3.587  11.198  17.504  0.00  0.00    +0.000 A 
ATOM     13  C   UNL     1      -3.139  10.335  16.498  0.00  0.00    +0.000 A 
ATOM     14  C   UNL     1      -1.897   9.720  16.604  0.00  0.00    +0.000 A 
ATOM     15  C   UNL     1      -1.055  10.035  17.667  0.00  0.00    +0.000 A 
ATOM     16  C   UNL     1      -1.391  11.095  18.523  0.00  0.00    +0.000 A 
ATOM     17  C   UNL     1      -2.705  11.575  18.525  0.00  0.00    +0.000 A 
ENDBRANCH   1  16
BRANCH   8  18
ATOM     18  C   UNL     1      -0.139   9.460  22.663  0.00  0.00    +0.000 C 
ATOM     19  F   UNL     1       1.151   9.220  22.311  0.00  0.00    +0.000 F 
ATOM     20  F   UNL     1      -0.237   9.095  23.972  0.00  0.00    +0.000 F 
ATOM     21  F   UNL     1      -0.886   8.554  21.970  0.00  0.00    +0.000 F 
ENDBRANCH   8  18
BRANCH   6  22
ATOM     22  C   UNL     1      -3.328  13.111  23.971  0.00  0.00    +0.000 C 
BRANCH  22  23
ATOM     23  N   UNL     1      -4.607  12.462  23.680  0.00  0.00    +0.000 NA
ATOM     24  H   UNL     1      -5.172  12.441  24.525  0.00  0.00    +0.000 HD
BRANCH  23  25
ATOM     25  C   UNL     1      -5.405  13.040  22.577  0.00  0.00    +0.000 C 
ATOM     26  C   UNL     1      -6.790  12.390  22.334  0.00  0.00    +0.000 C 
ATOM     27  C   UNL     1      -7.865  12.845  23.280  0.00  0.00    +0.000 C 
ATOM     28  C   UNL     1      -7.754  13.948  24.034  0.00  0.00    +0.000 C 
ATOM     29  C   UNL     1      -6.556  14.849  23.990  0.00  0.00    +0.000 C 
ATOM     30  C   UNL     1      -5.609  14.549  22.824  0.00  0.00    +0.000 C 
ENDBRANCH  23  25
ENDBRANCH  22  23
ENDBRANCH   6  22
TORSDOF 5
ENDMDL
MODEL 5
REMARK VINA RESULT:      -7.0      7.290      9.328
REMARK  Name = 
REMARK  6 active torsions:
REMARK  status: ('A' for Active; 'I' for Inactive)
REMARK    1  A    between atoms: C_1  and  C_2
REMARK    2  A    between atoms: C_6  and  N_7
REMARK    3  A    between atoms: C_12  and  C_13
REMARK    4  A    between atoms: C_13  and  N_14
REMARK    5  A    between atoms: N_14  and  C_15
REMARK    6  A    between atoms: C_22  and  C_23
REMARK                            x       y       z     vdW  Elec       q    Type
REMARK                         _______ _______ _______ _____ _____    ______ ____
ROOT
ATOM      1  N   UNL     1       6.436   5.238  16.832  0.00  0.00    +0.000 N 
ATOM      2  C   UNL     1       5.539   4.363  17.630  0.00  0.00    +0.000 C 
ATOM      3  C   UNL     1       4.388   5.278  17.915  0.00  0.00    +0.000 A 
ATOM      4  C   UNL     1       4.875   6.583  17.919  0.00  0.00    +0.000 A 
ATOM      5  C   UNL     1       4.068   7.704  17.935  0.00  0.00    +0.000 A 
ATOM      6  C   UNL     1       2.682   7.499  17.908  0.00  0.00    +0.000 A 
ATOM      7  C   UNL     1       2.175   6.178  17.929  0.00  0.00    +0.000 A 
ATOM      8  C   UNL     1       3.015   5.038  17.917  0.00  0.00    +0.000 A 
ATOM      9  C   UNL     1       6.256   6.541  17.365  0.00  0.00    +0.000 C 
ATOM     10  O   UNL     1       6.962   7.524  17.219  0.00  0.00    +0.000 OA
ENDROOT
BRANCH   1  16
ATOM     11  C   UNL     1       8.187   5.593  12.263  0.00  0.00    +0.000 C 
ATOM     12  C   UNL     1       7.229   5.014  13.258  0.00  0.00    +0.000 A 
ATOM     13  C   UNL     1       6.550   3.824  12.975  0.00  0.00    +0.000 A 
ATOM     14  C   UNL     1       5.541   3.375  13.820  0.00  0.00    +0.000 A 
ATOM     15  C   UNL     1       5.269   4.060  15.000  0.00  0.00    +0.000 A 
ATOM     16  C   UNL     1       6.126   5.091  15.414  0.00  0.00    +0.000 A 
ATOM     17  C   UNL     1       7.011   5.651  14.486  0.00  0.00    +0.000 A 
ENDBRANCH   1  16
BRANCH   8  18
ATOM     18  C   UNL     1       2.389   3.682  17.743  0.00  0.00    +0.000 C 
ATOM     19  F   UNL     1       2.836   2.736  18.610  0.00  0.00    +0.000 F 
ATOM     20  F   UNL     1       1.036   3.715  17.900  0.00  0.00    +0.000 F 
ATOM     21  F   UNL     1       2.603   3.172  16.496  0.00  0.00    +0.000 F 
ENDBRANCH   8  18
BRANCH   6  22
ATOM     22  C   UNL     1       1.718   8.658  17.726  0.00  0.00    +0.000 C 
BRANCH  22  23
ATOM     23  N   UNL     1       1.710   9.625  18.825  0.00  0.00    +0.000 NA
ATOM     24  H   UNL     1       1.880  10.556  18.454  0.00  0.00    +0.000 HD
BRANCH  23  25
ATOM     25  C   UNL     1       0.498   9.654  19.672  0.00  0.00    +0.000 C 
ATOM     26  C   UNL     1       0.638  10.392  21.026  0.00  0.00    +0.000 C 
ATOM     27  C   UNL     1       0.543  11.888  20.931  0.00  0.00    +0.000 C 
ATOM     28  C   UNL     1       0.044  12.521  19.860  0.00  0.00    +0.000 C 
ATOM     29  C   UNL     1      -0.491  11.797  18.660  0.00  0.00    +0.000 C 
ATOM     30  C   UNL     1      -0.666  10.292  18.884  0.00  0.00    +0.000 C 
ENDBRANCH  23  25
ENDBRANCH  22  23
ENDBRANCH   6  22
TORSDOF 5
ENDMDL
MODEL 6
REMARK VINA RESULT:      -7.0      0.966      1.273
REMARK  Name = 
REMARK  6 active torsions:
REMARK  status: ('A' for Active; 'I' for Inactive)
REMARK    1  A    between atoms: C_1  and  C_2
REMARK    2  A    between atoms: C_6  and  N_7
REMARK    3  A    between atoms: C_12  and  C_13
REMARK    4  A    between atoms: C_13  and  N_14
REMARK    5  A    between atoms: N_14  and  C_15
REMARK    6  A    between atoms: C_22  and  C_23
REMARK                            x       y       z     vdW  Elec       q    Type
REMARK                         _______ _______ _______ _____ _____    ______ ____
ROOT
ATOM      1  N   UNL     1      -0.228  11.415  18.409  0.00  0.00    +0.000 N 
ATOM      2  C   UNL     1       0.513  10.596  19.402  0.00  0.00    +0.000 C 
ATOM      3  C   UNL     1       0.112  11.240  20.694  0.00  0.00    +0.000 A 
ATOM      4  C   UNL     1      -0.184  12.574  20.428  0.00  0.00    +0.000 A 
ATOM      5  C   UNL     1      -0.793  13.421  21.334  0.00  0.00    +0.000 A 
ATOM      6  C   UNL     1      -1.161  12.881  22.572  0.00  0.00    +0.000 A 
ATOM      7  C   UNL     1      -0.843  11.533  22.863  0.00  0.00    +0.000 A 
ATOM      8  C   UNL     1      -0.215  10.678  21.927  0.00  0.00    +0.000 A 
ATOM      9  C   UNL     1      -0.250  12.727  18.948  0.00  0.00    +0.000 C 
ATOM     10  O   UNL     1      -0.505  13.775  18.382  0.00  0.00    +0.000 OA
ENDROOT
BRANCH   1  16
ATOM     11  C   UNL     1      -5.058  12.234  18.135  0.00  0.00    +0.000 C 
ATOM     12  C   UNL     1      -3.838  11.450  17.760  0.00  0.00    +0.000 A 
ATOM     13  C   UNL     1      -3.847  10.628  16.627  0.00  0.00    +0.000 A 
ATOM     14  C   UNL     1      -2.780   9.776  16.371  0.00  0.00    +0.000 A 
ATOM     15  C   UNL     1      -1.655   9.806  17.191  0.00  0.00    +0.000 A 
ATOM     16  C   UNL     1      -1.534  10.815  18.160  0.00  0.00    +0.000 A 
ATOM     17  C   UNL     1      -2.673  11.538  18.531  0.00  0.00    +0.000 A 
ENDBRANCH   1  16
BRANCH   8  18
ATOM     18  C   UNL     1      -0.095   9.214  22.252  0.00  0.00    +0.000 C 
ATOM     19  F   UNL     1      -0.863   8.397  21.483  0.00  0.00    +0.000 F 
ATOM     20  F   UNL     1       1.181   8.759  22.111  0.00  0.00    +0.000 F 
ATOM     21  F   UNL     1      -0.444   8.943  23.542  0.00  0.00    +0.000 F 
ENDBRANCH   8  18
BRANCH   6  22
ATOM     22  C   UNL     1      -2.006  13.670  23.556  0.00  0.00    +0.000 C 
BRANCH  22  23
ATOM     23  N   UNL     1      -3.368  13.955  23.103  0.00  0.00    +0.000 NA
ATOM     24  H   UNL     1      -3.332  14.385  22.182  0.00  0.00    +0.000 HD
BRANCH  23  25
ATOM     25  C   UNL     1      -4.305  12.811  23.067  0.00  0.00    +0.000 C 
ATOM     26  C   UNL     1      -5.447  12.841  24.114  0.00  0.00    +0.000 C 
ATOM     27  C   UNL     1      -6.601  13.731  23.750  0.00  0.00    +0.000 C 
ATOM     28  C   UNL     1      -6.807  14.187  22.506  0.00  0.00    +0.000 C 
ATOM     29  C   UNL     1      -5.918  13.834  21.350  0.00  0.00    +0.000 C 
ATOM     30  C   UNL     1      -4.933  12.703  21.661  0.00  0.00    +0.000 C 
ENDBRANCH  23  25
ENDBRANCH  22  23
ENDBRANCH   6  22
TORSDOF 5
ENDMDL
MODEL 7
REMARK VINA RESULT:      -6.9      2.825      5.094
REMARK  Name = 
REMARK  6 active torsions:
REMARK  status: ('A' for Active; 'I' for Inactive)
REMARK    1  A    between atoms: C_1  and  C_2
REMARK    2  A    between atoms: C_6  and  N_7
REMARK    3  A    between atoms: C_12  and  C_13
REMARK    4  A    between atoms: C_13  and  N_14
REMARK    5  A    between atoms: N_14  and  C_15
REMARK    6  A    between atoms: C_22  and  C_23
REMARK                            x       y       z     vdW  Elec       q    Type
REMARK                         _______ _______ _______ _____ _____    ______ ____
ROOT
ATOM      1  N   UNL     1       0.711  13.430  20.318  0.00  0.00    +0.000 N 
ATOM      2  C   UNL     1       1.101  11.997  20.341  0.00  0.00    +0.000 C 
ATOM      3  C   UNL     1      -0.023  11.359  19.584  0.00  0.00    +0.000 A 
ATOM      4  C   UNL     1      -1.154  12.154  19.754  0.00  0.00    +0.000 A 
ATOM      5  C   UNL     1      -2.320  11.996  19.030  0.00  0.00    +0.000 A 
ATOM      6  C   UNL     1      -2.336  10.999  18.047  0.00  0.00    +0.000 A 
ATOM      7  C   UNL     1      -1.202  10.169  17.881  0.00  0.00    +0.000 A 
ATOM      8  C   UNL     1      -0.015  10.340  18.632  0.00  0.00    +0.000 A 
ATOM      9  C   UNL     1      -0.707  13.432  20.373  0.00  0.00    +0.000 C 
ATOM     10  O   UNL     1      -1.454  14.356  20.643  0.00  0.00    +0.000 OA
ENDROOT
BRANCH   1  16
ATOM     11  C   UNL     1       1.456  17.699  18.019  0.00  0.00    +0.000 C 
ATOM     12  C   UNL     1       1.844  16.283  18.310  0.00  0.00    +0.000 A 
ATOM     13  C   UNL     1       3.143  15.835  18.040  0.00  0.00    +0.000 A 
ATOM     14  C   UNL     1       3.456  14.486  18.152  0.00  0.00    +0.000 A 
ATOM     15  C   UNL     1       2.504  13.589  18.625  0.00  0.00    +0.000 A 
ATOM     16  C   UNL     1       1.296  14.076  19.149  0.00  0.00    +0.000 A 
ATOM     17  C   UNL     1       0.916  15.393  18.865  0.00  0.00    +0.000 A 
ENDBRANCH   1  16
BRANCH   8  18
ATOM     18  C   UNL     1       1.201   9.541  18.253  0.00  0.00    +0.000 C 
ATOM     19  F   UNL     1       1.770   8.853  19.277  0.00  0.00    +0.000 F 
ATOM     20  F   UNL     1       0.929   8.614  17.293  0.00  0.00    +0.000 F 
ATOM     21  F   UNL     1       2.192  10.326  17.739  0.00  0.00    +0.000 F 
ENDBRANCH   8  18
BRANCH   6  22
ATOM     22  C   UNL     1      -3.492  10.875  17.071  0.00  0.00    +0.000 C 
BRANCH  22  23
ATOM     23  N   UNL     1      -4.405  12.019  17.054  0.00  0.00    +0.000 NA
ATOM     24  H   UNL     1      -4.304  12.516  16.173  0.00  0.00    +0.000 HD
BRANCH  23  25
ATOM     25  C   UNL     1      -5.836  11.727  17.285  0.00  0.00    +0.000 C 
ATOM     26  C   UNL     1      -6.154  10.845  18.518  0.00  0.00    +0.000 C 
ATOM     27  C   UNL     1      -6.147  11.580  19.828  0.00  0.00    +0.000 C 
ATOM     28  C   UNL     1      -6.207  12.917  19.914  0.00  0.00    +0.000 C 
ATOM     29  C   UNL     1      -6.312  13.809  18.712  0.00  0.00    +0.000 C 
ATOM     30  C   UNL     1      -6.617  13.052  17.417  0.00  0.00    +0.000 C 
ENDBRANCH  23  25
ENDBRANCH  22  23
ENDBRANCH   6  22
TORSDOF 5
ENDMDL
MODEL 8
REMARK VINA RESULT:      -6.9      7.276      9.393
REMARK  Name = 
REMARK  6 active torsions:
REMARK  status: ('A' for Active; 'I' for Inactive)
REMARK    1  A    between atoms: C_1  and  C_2
REMARK    2  A    between atoms: C_6  and  N_7
REMARK    3  A    between atoms: C_12  and  C_13
REMARK    4  A    between atoms: C_13  and  N_14
REMARK    5  A    between atoms: N_14  and  C_15
REMARK    6  A    between atoms: C_22  and  C_23
REMARK                            x       y       z     vdW  Elec       q    Type
REMARK                         _______ _______ _______ _____ _____    ______ ____
ROOT
ATOM      1  N   UNL     1       6.417   5.276  16.861  0.00  0.00    +0.000 N 
ATOM      2  C   UNL     1       5.536   4.380  17.653  0.00  0.00    +0.000 C 
ATOM      3  C   UNL     1       4.368   5.271  17.942  0.00  0.00    +0.000 A 
ATOM      4  C   UNL     1       4.830   6.585  17.952  0.00  0.00    +0.000 A 
ATOM      5  C   UNL     1       4.001   7.690  17.973  0.00  0.00    +0.000 A 
ATOM      6  C   UNL     1       2.620   7.459  17.944  0.00  0.00    +0.000 A 
ATOM      7  C   UNL     1       2.139   6.128  17.957  0.00  0.00    +0.000 A 
ATOM      8  C   UNL     1       3.000   5.005  17.940  0.00  0.00    +0.000 A 
ATOM      9  C   UNL     1       6.212   6.573  17.400  0.00  0.00    +0.000 C 
ATOM     10  O   UNL     1       6.899   7.570  17.260  0.00  0.00    +0.000 OA
ENDROOT
BRANCH   1  16
ATOM     11  C   UNL     1       8.201   5.575  12.300  0.00  0.00    +0.000 C 
ATOM     12  C   UNL     1       7.225   5.021  13.292  0.00  0.00    +0.000 A 
ATOM     13  C   UNL     1       6.521   3.845  13.010  0.00  0.00    +0.000 A 
ATOM     14  C   UNL     1       5.499   3.422  13.851  0.00  0.00    +0.000 A 
ATOM     15  C   UNL     1       5.235   4.116  15.027  0.00  0.00    +0.000 A 
ATOM     16  C   UNL     1       6.112   5.130  15.442  0.00  0.00    +0.000 A 
ATOM     17  C   UNL     1       7.014   5.667  14.516  0.00  0.00    +0.000 A 
ENDBRANCH   1  16
BRANCH   8  18
ATOM     18  C   UNL     1       2.400   3.637  17.759  0.00  0.00    +0.000 C 
ATOM     19  F   UNL     1       2.581   3.099  16.524  0.00  0.00    +0.000 F 
ATOM     20  F   UNL     1       2.914   2.730  18.635  0.00  0.00    +0.000 F 
ATOM     21  F   UNL     1       1.052   3.634  17.970  0.00  0.00    +0.000 F 
ENDBRANCH   8  18
BRANCH   6  22
ATOM     22  C   UNL     1       1.634   8.599  17.767  0.00  0.00    +0.000 C 
BRANCH  22  23
ATOM     23  N   UNL     1       2.050   9.867  18.370  0.00  0.00    +0.000 NA
ATOM     24  H   UNL     1       2.889  10.201  17.903  0.00  0.00    +0.000 HD
BRANCH  23  25
ATOM     25  C   UNL     1       1.043  10.950  18.393  0.00  0.00    +0.000 C 
ATOM     26  C   UNL     1      -0.438  10.496  18.399  0.00  0.00    +0.000 C 
ATOM     27  C   UNL     1      -0.950  10.063  19.743  0.00  0.00    +0.000 C 
ATOM     28  C   UNL     1      -0.324  10.358  20.891  0.00  0.00    +0.000 C 
ATOM     29  C   UNL     1       0.936  11.169  20.949  0.00  0.00    +0.000 C 
ATOM     30  C   UNL     1       1.284  11.851  19.623  0.00  0.00    +0.000 C 
ENDBRANCH  23  25
ENDBRANCH  22  23
ENDBRANCH   6  22
TORSDOF 5
ENDMDL
MODEL 9
REMARK VINA RESULT:      -6.9      7.143      9.212
REMARK  Name = 
REMARK  6 active torsions:
REMARK  status: ('A' for Active; 'I' for Inactive)
REMARK    1  A    between atoms: C_1  and  C_2
REMARK    2  A    between atoms: C_6  and  N_7
REMARK    3  A    between atoms: C_12  and  C_13
REMARK    4  A    between atoms: C_13  and  N_14
REMARK    5  A    between atoms: N_14  and  C_15
REMARK    6  A    between atoms: C_22  and  C_23
REMARK                            x       y       z     vdW  Elec       q    Type
REMARK                         _______ _______ _______ _____ _____    ______ ____
ROOT
ATOM      1  N   UNL     1       6.285   5.428  16.927  0.00  0.00    +0.000 N 
ATOM      2  C   UNL     1       5.416   4.548  17.750  0.00  0.00    +0.000 C 
ATOM      3  C   UNL     1       4.219   5.420  17.974  0.00  0.00    +0.000 A 
ATOM      4  C   UNL     1       4.644   6.745  17.926  0.00  0.00    +0.000 A 
ATOM      5  C   UNL     1       3.785   7.826  17.877  0.00  0.00    +0.000 A 
ATOM      6  C   UNL     1       2.411   7.555  17.837  0.00  0.00    +0.000 A 
ATOM      7  C   UNL     1       1.967   6.214  17.911  0.00  0.00    +0.000 A 
ATOM      8  C   UNL     1       2.858   5.115  17.965  0.00  0.00    +0.000 A 
ATOM      9  C   UNL     1       6.036   6.744  17.397  0.00  0.00    +0.000 C 
ATOM     10  O   UNL     1       6.697   7.752  17.217  0.00  0.00    +0.000 OA
ENDROOT
BRANCH   1  16
ATOM     11  C   UNL     1       8.146   5.524  12.389  0.00  0.00    +0.000 C 
ATOM     12  C   UNL     1       7.163   5.003  13.391  0.00  0.00    +0.000 A 
ATOM     13  C   UNL     1       6.486   3.800  13.159  0.00  0.00    +0.000 A 
ATOM     14  C   UNL     1       5.457   3.402  14.003  0.00  0.00    +0.000 A 
ATOM     15  C   UNL     1       5.158   4.151  15.137  0.00  0.00    +0.000 A 
ATOM     16  C   UNL     1       6.009   5.203  15.513  0.00  0.00    +0.000 A 
ATOM     17  C   UNL     1       6.917   5.709  14.576  0.00  0.00    +0.000 A 
ENDBRANCH   1  16
BRANCH   8  18
ATOM     18  C   UNL     1       2.299   3.724  17.843  0.00  0.00    +0.000 C 
ATOM     19  F   UNL     1       2.527   3.124  16.645  0.00  0.00    +0.000 F 
ATOM     20  F   UNL     1       2.813   2.880  18.781  0.00  0.00    +0.000 F 
ATOM     21  F   UNL     1       0.947   3.695  18.020  0.00  0.00    +0.000 F 
ENDBRANCH   8  18
BRANCH   6  22
ATOM     22  C   UNL     1       1.398   8.657  17.587  0.00  0.00    +0.000 C 
BRANCH  22  23
ATOM     23  N   UNL     1       1.836   9.994  17.990  0.00  0.00    +0.000 NA
ATOM     24  H   UNL     1       1.634  10.653  17.243  0.00  0.00    +0.000 HD
BRANCH  23  25
ATOM     25  C   UNL     1       1.285  10.516  19.259  0.00  0.00    +0.000 C 
ATOM     26  C   UNL     1       1.369  12.051  19.451  0.00  0.00    +0.000 C 
ATOM     27  C   UNL     1       0.304  12.827  18.731  0.00  0.00    +0.000 C 
ATOM     28  C   UNL     1      -0.814  12.261  18.254  0.00  0.00    +0.000 C 
ATOM     29  C   UNL     1      -1.123  10.802  18.415  0.00  0.00    +0.000 C 
ATOM     30  C   UNL     1      -0.191  10.086  19.396  0.00  0.00    +0.000 C 
ENDBRANCH  23  25
ENDBRANCH  22  23
ENDBRANCH   6  22
TORSDOF 5
ENDMDL
