MODEL 1
REMARK VINA RESULT:      -7.3      0.000      0.000
REMARK  Name = 
REMARK  6 active torsions:
REMARK  status: ('A' for Active; 'I' for Inactive)
REMARK    1  A    between atoms: C_1  and  C_2
REMARK    2  A    between atoms: C_5  and  N_6
REMARK    3  A    between atoms: C_10  and  N_11
REMARK    4  A    between atoms: N_11  and  S_12
REMARK    5  A    between atoms: S_12  and  C_15
REMARK    6  A    between atoms: C_20  and  C_21
REMARK                            x       y       z     vdW  Elec       q    Type
REMARK                         _______ _______ _______ _____ _____    ______ ____
ROOT
ATOM      1  N   UNL     1      -0.426  10.344  18.394  0.00  0.00    +0.000 NA
ATOM      2  H   UNL     1      -0.598   9.432  17.963  0.00  0.00    +0.000 HD
ENDROOT
BRANCH   1   7
ATOM      3  N   UNL     1      -2.832  12.159  19.540  0.00  0.00    +0.000 N 
ATOM      4  C   UNL     1      -3.906  11.573  18.745  0.00  0.00    +0.000 C 
ATOM      5  C   UNL     1      -3.422  10.510  17.770  0.00  0.00    +0.000 C 
ATOM      6  C   UNL     1      -2.276  11.066  16.939  0.00  0.00    +0.000 C 
ATOM      7  C   UNL     1      -1.126  11.524  17.835  0.00  0.00    +0.000 C 
ATOM      8  C   UNL     1      -1.619  12.494  18.916  0.00  0.00    +0.000 C 
ATOM      9  O   UNL     1      -0.943  13.489  19.192  0.00  0.00    +0.000 OA
BRANCH   3  14
ATOM     10  C   UNL     1      -4.081  15.008  24.373  0.00  0.00    +0.000 C 
ATOM     11  C   UNL     1      -3.810  14.239  23.114  0.00  0.00    +0.000 A 
ATOM     12  C   UNL     1      -4.410  14.602  21.904  0.00  0.00    +0.000 A 
ATOM     13  C   UNL     1      -4.121  13.903  20.728  0.00  0.00    +0.000 A 
ATOM     14  C   UNL     1      -3.190  12.857  20.734  0.00  0.00    +0.000 A 
ATOM     15  C   UNL     1      -2.606  12.483  21.949  0.00  0.00    +0.000 A 
ATOM     16  C   UNL     1      -2.925  13.157  23.132  0.00  0.00    +0.000 A 
ENDBRANCH   3  14
ENDBRANCH   1   7
BRANCH   1  17
ATOM     17  S   UNL     1       1.193  10.494  18.862  0.00  0.00    +0.000 S 
ATOM     18  O   UNL     1       1.942  11.010  17.740  0.00  0.00    +0.000 OA
ATOM     19  O   UNL     1       1.237  11.200  20.120  0.00  0.00    +0.000 OA
BRANCH  17  20
ATOM     20  C   UNL     1       1.684   8.798  19.155  0.00  0.00    +0.000 A 
ATOM     21  C   UNL     1       2.221   8.101  18.054  0.00  0.00    +0.000 A 
ATOM     22  C   UNL     1       2.618   6.772  18.182  0.00  0.00    +0.000 A 
ATOM     23  C   UNL     1       2.511   6.135  19.409  0.00  0.00    +0.000 A 
ATOM     24  C   UNL     1       1.968   6.814  20.501  0.00  0.00    +0.000 A 
ATOM     25  C   UNL     1       1.513   8.149  20.395  0.00  0.00    +0.000 A 
BRANCH  25  26
ATOM     26  C   UNL     1       0.796   8.682  21.553  0.00  0.00    +0.000 A 
ATOM     27  C   UNL     1      -0.536   8.781  21.880  0.00  0.00    +0.000 A 
ATOM     28  C   UNL     1      -0.552   9.475  23.105  0.00  0.00    +0.000 A 
ATOM     29  N   UNL     1       0.680   9.768  23.517  0.00  0.00    +0.000 NA
ATOM     30  O   UNL     1       1.525   9.222  22.566  0.00  0.00    +0.000 OA
ENDBRANCH  25  26
ENDBRANCH  17  20
ENDBRANCH   1  17
TORSDOF 5
ENDMDL
MODEL 2
REMARK VINA RESULT:      -7.3      6.836      9.737
REMARK  Name = 
REMARK  6 active torsions:
REMARK  status: ('A' for Active; 'I' for Inactive)
REMARK    1  A    between atoms: C_1  and  C_2
REMARK    2  A    between atoms: C_5  and  N_6
REMARK    3  A    between atoms: C_10  and  N_11
REMARK    4  A    between atoms: N_11  and  S_12
REMARK    5  A    between atoms: S_12  and  C_15
REMARK    6  A    between atoms: C_20  and  C_21
REMARK                            x       y       z     vdW  Elec       q    Type
REMARK                         _______ _______ _______ _____ _____    ______ ____
ROOT
ATOM      1  N   UNL     1       4.227   4.129  16.343  0.00  0.00    +0.000 NA
ATOM      2  H   UNL     1       3.800   4.086  15.415  0.00  0.00    +0.000 HD
ENDROOT
BRANCH   1   7
ATOM      3  N   UNL     1       6.940   5.857  16.574  0.00  0.00    +0.000 N 
ATOM      4  C   UNL     1       7.383   5.698  15.193  0.00  0.00    +0.000 C 
ATOM      5  C   UNL     1       6.470   4.804  14.367  0.00  0.00    +0.000 C 
ATOM      6  C   UNL     1       6.251   3.488  15.096  0.00  0.00    +0.000 C 
ATOM      7  C   UNL     1       5.647   3.726  16.479  0.00  0.00    +0.000 C 
ATOM      8  C   UNL     1       6.480   4.734  17.282  0.00  0.00    +0.000 C 
ATOM      9  O   UNL     1       6.692   4.528  18.480  0.00  0.00    +0.000 OA
BRANCH   3  14
ATOM     10  C   UNL     1       9.242  10.182  19.577  0.00  0.00    +0.000 C 
ATOM     11  C   UNL     1       8.587   9.072  18.812  0.00  0.00    +0.000 A 
ATOM     12  C   UNL     1       7.890   9.326  17.627  0.00  0.00    +0.000 A 
ATOM     13  C   UNL     1       7.315   8.279  16.900  0.00  0.00    +0.000 A 
ATOM     14  C   UNL     1       7.468   6.954  17.322  0.00  0.00    +0.000 A 
ATOM     15  C   UNL     1       8.149   6.703  18.519  0.00  0.00    +0.000 A 
ATOM     16  C   UNL     1       8.690   7.753  19.266  0.00  0.00    +0.000 A 
ENDBRANCH   3  14
ENDBRANCH   1   7
BRANCH   1  17
ATOM     17  S   UNL     1       3.123   3.664  17.537  0.00  0.00    +0.000 S 
ATOM     18  O   UNL     1       1.942   3.150  16.885  0.00  0.00    +0.000 OA
ATOM     19  O   UNL     1       3.813   2.834  18.495  0.00  0.00    +0.000 OA
BRANCH  17  20
ATOM     20  C   UNL     1       2.716   5.215  18.333  0.00  0.00    +0.000 A 
ATOM     21  C   UNL     1       3.075   6.389  17.640  0.00  0.00    +0.000 A 
ATOM     22  C   UNL     1       2.813   7.643  18.187  0.00  0.00    +0.000 A 
ATOM     23  C   UNL     1       2.168   7.740  19.410  0.00  0.00    +0.000 A 
ATOM     24  C   UNL     1       1.821   6.583  20.109  0.00  0.00    +0.000 A 
ATOM     25  C   UNL     1       2.113   5.295  19.605  0.00  0.00    +0.000 A 
BRANCH  25  26
ATOM     26  C   UNL     1       1.871   4.174  20.513  0.00  0.00    +0.000 A 
ATOM     27  C   UNL     1       0.858   3.251  20.632  0.00  0.00    +0.000 A 
ATOM     28  C   UNL     1       1.196   2.494  21.770  0.00  0.00    +0.000 A 
ATOM     29  N   UNL     1       2.345   2.905  22.305  0.00  0.00    +0.000 NA
ATOM     30  O   UNL     1       2.791   3.924  21.482  0.00  0.00    +0.000 OA
ENDBRANCH  25  26
ENDBRANCH  17  20
ENDBRANCH   1  17
TORSDOF 5
ENDMDL
MODEL 3
REMARK VINA RESULT:      -7.3      6.233      9.715
REMARK  Name = 
REMARK  6 active torsions:
REMARK  status: ('A' for Active; 'I' for Inactive)
REMARK    1  A    between atoms: C_1  and  C_2
REMARK    2  A    between atoms: C_5  and  N_6
REMARK    3  A    between atoms: C_10  and  N_11
REMARK    4  A    between atoms: N_11  and  S_12
REMARK    5  A    between atoms: S_12  and  C_15
REMARK    6  A    between atoms: C_20  and  C_21
REMARK                            x       y       z     vdW  Elec       q    Type
REMARK                         _______ _______ _______ _____ _____    ______ ____
ROOT
ATOM      1  N   UNL     1       3.505   4.255  16.884  0.00  0.00    +0.000 NA
ATOM      2  H   UNL     1       3.348   4.682  15.968  0.00  0.00    +0.000 HD
ENDROOT
BRANCH   1   7
ATOM      3  N   UNL     1       6.489   5.474  16.956  0.00  0.00    +0.000 N 
ATOM      4  C   UNL     1       6.914   5.010  15.639  0.00  0.00    +0.000 C 
ATOM      5  C   UNL     1       5.862   4.173  14.927  0.00  0.00    +0.000 C 
ATOM      6  C   UNL     1       5.391   3.059  15.847  0.00  0.00    +0.000 C 
ATOM      7  C   UNL     1       4.822   3.629  17.146  0.00  0.00    +0.000 C 
ATOM      8  C   UNL     1       5.818   4.587  17.813  0.00  0.00    +0.000 C 
ATOM      9  O   UNL     1       5.970   4.548  19.037  0.00  0.00    +0.000 OA
BRANCH   3  14
ATOM     10  C   UNL     1       9.185   9.963  19.324  0.00  0.00    +0.000 C 
ATOM     11  C   UNL     1       8.536   8.772  18.686  0.00  0.00    +0.000 A 
ATOM     12  C   UNL     1       8.659   7.497  19.247  0.00  0.00    +0.000 A 
ATOM     13  C   UNL     1       8.018   6.399  18.666  0.00  0.00    +0.000 A 
ATOM     14  C   UNL     1       7.202   6.565  17.541  0.00  0.00    +0.000 A 
ATOM     15  C   UNL     1       7.095   7.839  16.970  0.00  0.00    +0.000 A 
ATOM     16  C   UNL     1       7.769   8.930  17.528  0.00  0.00    +0.000 A 
ENDBRANCH   3  14
ENDBRANCH   1   7
BRANCH   1  17
ATOM     17  S   UNL     1       2.104   3.487  17.441  0.00  0.00    +0.000 S 
ATOM     18  O   UNL     1       0.961   4.227  16.958  0.00  0.00    +0.000 OA
ATOM     19  O   UNL     1       2.208   2.079  17.138  0.00  0.00    +0.000 OA
BRANCH  17  20
ATOM     20  C   UNL     1       2.216   3.687  19.216  0.00  0.00    +0.000 A 
ATOM     21  C   UNL     1       2.013   2.528  19.991  0.00  0.00    +0.000 A 
ATOM     22  C   UNL     1       2.065   2.588  21.382  0.00  0.00    +0.000 A 
ATOM     23  C   UNL     1       2.348   3.792  22.010  0.00  0.00    +0.000 A 
ATOM     24  C   UNL     1       2.536   4.947  21.249  0.00  0.00    +0.000 A 
ATOM     25  C   UNL     1       2.445   4.931  19.839  0.00  0.00    +0.000 A 
BRANCH  25  26
ATOM     26  C   UNL     1       2.475   6.233  19.174  0.00  0.00    +0.000 A 
ATOM     27  C   UNL     1       1.578   7.272  19.081  0.00  0.00    +0.000 A 
ATOM     28  C   UNL     1       2.194   8.200  18.220  0.00  0.00    +0.000 A 
ATOM     29  N   UNL     1       3.393   7.777  17.823  0.00  0.00    +0.000 NA
ATOM     30  O   UNL     1       3.588   6.567  18.467  0.00  0.00    +0.000 OA
ENDBRANCH  25  26
ENDBRANCH  17  20
ENDBRANCH   1  17
TORSDOF 5
ENDMDL
MODEL 4
REMARK VINA RESULT:      -7.0      3.859      6.045
REMARK  Name = 
REMARK  6 active torsions:
REMARK  status: ('A' for Active; 'I' for Inactive)
REMARK    1  A    between atoms: C_1  and  C_2
REMARK    2  A    between atoms: C_5  and  N_6
REMARK    3  A    between atoms: C_10  and  N_11
REMARK    4  A    between atoms: N_11  and  S_12
REMARK    5  A    between atoms: S_12  and  C_15
REMARK    6  A    between atoms: C_20  and  C_21
REMARK                            x       y       z     vdW  Elec       q    Type
REMARK                         _______ _______ _______ _____ _____    ______ ____
ROOT
ATOM      1  N   UNL     1       2.224   7.722  20.101  0.00  0.00    +0.000 NA
ATOM      2  H   UNL     1       2.567   7.411  21.013  0.00  0.00    +0.000 HD
ENDROOT
BRANCH   1   7
ATOM      3  N   UNL     1       1.076  10.728  20.302  0.00  0.00    +0.000 N 
ATOM      4  C   UNL     1       0.599  10.657  21.679  0.00  0.00    +0.000 C 
ATOM      5  C   UNL     1       0.786   9.285  22.310  0.00  0.00    +0.000 C 
ATOM      6  C   UNL     1       0.194   8.221  21.400  0.00  0.00    +0.000 C 
ATOM      7  C   UNL     1       0.847   8.261  20.019  0.00  0.00    +0.000 C 
ATOM      8  C   UNL     1       0.791   9.673  19.421  0.00  0.00    +0.000 C 
ATOM      9  O   UNL     1       0.521   9.814  18.224  0.00  0.00    +0.000 OA
BRANCH   3  14
ATOM     10  C   UNL     1       2.093  15.999  18.249  0.00  0.00    +0.000 C 
ATOM     11  C   UNL     1       1.798  14.611  18.733  0.00  0.00    +0.000 A 
ATOM     12  C   UNL     1       2.473  13.506  18.208  0.00  0.00    +0.000 A 
ATOM     13  C   UNL     1       2.219  12.219  18.693  0.00  0.00    +0.000 A 
ATOM     14  C   UNL     1       1.318  12.022  19.746  0.00  0.00    +0.000 A 
ATOM     15  C   UNL     1       0.628  13.128  20.257  0.00  0.00    +0.000 A 
ATOM     16  C   UNL     1       0.854  14.409  19.745  0.00  0.00    +0.000 A 
ENDBRANCH   3  14
ENDBRANCH   1   7
BRANCH   1  17
ATOM     17  S   UNL     1       2.787   6.710  18.868  0.00  0.00    +0.000 S 
ATOM     18  O   UNL     1       1.780   6.656  17.833  0.00  0.00    +0.000 OA
ATOM     19  O   UNL     1       4.127   7.119  18.522  0.00  0.00    +0.000 OA
BRANCH  17  20
ATOM     20  C   UNL     1       2.879   5.113  19.670  0.00  0.00    +0.000 A 
ATOM     21  C   UNL     1       2.033   4.919  20.781  0.00  0.00    +0.000 A 
ATOM     22  C   UNL     1       2.046   3.713  21.479  0.00  0.00    +0.000 A 
ATOM     23  C   UNL     1       2.876   2.684  21.062  0.00  0.00    +0.000 A 
ATOM     24  C   UNL     1       3.727   2.873  19.972  0.00  0.00    +0.000 A 
ATOM     25  C   UNL     1       3.772   4.099  19.268  0.00  0.00    +0.000 A 
BRANCH  25  26
ATOM     26  C   UNL     1       4.833   4.233  18.271  0.00  0.00    +0.000 A 
ATOM     27  C   UNL     1       4.859   4.166  16.897  0.00  0.00    +0.000 A 
ATOM     28  C   UNL     1       6.218   4.300  16.558  0.00  0.00    +0.000 A 
ATOM     29  N   UNL     1       6.978   4.459  17.640  0.00  0.00    +0.000 NA
ATOM     30  O   UNL     1       6.099   4.470  18.709  0.00  0.00    +0.000 OA
ENDBRANCH  25  26
ENDBRANCH  17  20
ENDBRANCH   1  17
TORSDOF 5
ENDMDL
MODEL 5
REMARK VINA RESULT:      -6.9      2.775      7.470
REMARK  Name = 
REMARK  6 active torsions:
REMARK  status: ('A' for Active; 'I' for Inactive)
REMARK    1  A    between atoms: C_1  and  C_2
REMARK    2  A    between atoms: C_5  and  N_6
REMARK    3  A    between atoms: C_10  and  N_11
REMARK    4  A    between atoms: N_11  and  S_12
REMARK    5  A    between atoms: S_12  and  C_15
REMARK    6  A    between atoms: C_20  and  C_21
REMARK                            x       y       z     vdW  Elec       q    Type
REMARK                         _______ _______ _______ _____ _____    ______ ____
ROOT
ATOM      1  N   UNL     1      -1.177  13.296  20.894  0.00  0.00    +0.000 NA
ATOM      2  H   UNL     1      -0.962  14.270  21.118  0.00  0.00    +0.000 HD
ENDROOT
BRANCH   1   7
ATOM      3  N   UNL     1       0.664  11.292  19.164  0.00  0.00    +0.000 N 
ATOM      4  C   UNL     1       1.478  12.306  18.504  0.00  0.00    +0.000 C 
ATOM      5  C   UNL     1       1.069  13.729  18.855  0.00  0.00    +0.000 C 
ATOM      6  C   UNL     1      -0.424  13.899  18.629  0.00  0.00    +0.000 C 
ATOM      7  C   UNL     1      -1.219  12.899  19.467  0.00  0.00    +0.000 C 
ATOM      8  C   UNL     1      -0.728  11.464  19.230  0.00  0.00    +0.000 C 
ATOM      9  O   UNL     1      -1.552  10.551  19.126  0.00  0.00    +0.000 OA
BRANCH   3  14
ATOM     10  C   UNL     1       2.565   5.879  19.506  0.00  0.00    +0.000 C 
ATOM     11  C   UNL     1       2.127   7.310  19.414  0.00  0.00    +0.000 A 
ATOM     12  C   UNL     1       2.210   8.013  18.209  0.00  0.00    +0.000 A 
ATOM     13  C   UNL     1       1.763   9.336  18.124  0.00  0.00    +0.000 A 
ATOM     14  C   UNL     1       1.180   9.961  19.232  0.00  0.00    +0.000 A 
ATOM     15  C   UNL     1       1.116   9.262  20.442  0.00  0.00    +0.000 A 
ATOM     16  C   UNL     1       1.599   7.953  20.538  0.00  0.00    +0.000 A 
ENDBRANCH   3  14
ENDBRANCH   1   7
BRANCH   1  17
ATOM     17  S   UNL     1      -2.340  12.676  21.955  0.00  0.00    +0.000 S 
ATOM     18  O   UNL     1      -3.622  12.712  21.291  0.00  0.00    +0.000 OA
ATOM     19  O   UNL     1      -1.855  11.419  22.475  0.00  0.00    +0.000 OA
BRANCH  17  20
ATOM     20  C   UNL     1      -2.343  13.870  23.288  0.00  0.00    +0.000 A 
ATOM     21  C   UNL     1      -1.107  14.473  23.593  0.00  0.00    +0.000 A 
ATOM     22  C   UNL     1      -1.008  15.403  24.625  0.00  0.00    +0.000 A 
ATOM     23  C   UNL     1      -2.140  15.762  25.341  0.00  0.00    +0.000 A 
ATOM     24  C   UNL     1      -3.366  15.159  25.054  0.00  0.00    +0.000 A 
ATOM     25  C   UNL     1      -3.493  14.178  24.044  0.00  0.00    +0.000 A 
BRANCH  25  26
ATOM     26  C   UNL     1      -4.782  13.490  23.968  0.00  0.00    +0.000 A 
ATOM     27  C   UNL     1      -6.010  13.830  23.451  0.00  0.00    +0.000 A 
ATOM     28  C   UNL     1      -6.849  12.749  23.782  0.00  0.00    +0.000 A 
ATOM     29  N   UNL     1      -6.185  11.800  24.440  0.00  0.00    +0.000 NA
ATOM     30  O   UNL     1      -4.877  12.245  24.507  0.00  0.00    +0.000 OA
ENDBRANCH  25  26
ENDBRANCH  17  20
ENDBRANCH   1  17
TORSDOF 5
ENDMDL
MODEL 6
REMARK VINA RESULT:      -6.9      2.065      7.827
REMARK  Name = 
REMARK  6 active torsions:
REMARK  status: ('A' for Active; 'I' for Inactive)
REMARK    1  A    between atoms: C_1  and  C_2
REMARK    2  A    between atoms: C_5  and  N_6
REMARK    3  A    between atoms: C_10  and  N_11
REMARK    4  A    between atoms: N_11  and  S_12
REMARK    5  A    between atoms: S_12  and  C_15
REMARK    6  A    between atoms: C_20  and  C_21
REMARK                            x       y       z     vdW  Elec       q    Type
REMARK                         _______ _______ _______ _____ _____    ______ ____
ROOT
ATOM      1  N   UNL     1      -1.419  11.121  20.123  0.00  0.00    +0.000 NA
ATOM      2  H   UNL     1      -2.171  10.547  20.511  0.00  0.00    +0.000 HD
ENDROOT
BRANCH   1   7
ATOM      3  N   UNL     1       0.981   8.986  20.400  0.00  0.00    +0.000 N 
ATOM      4  C   UNL     1       0.639   8.489  21.728  0.00  0.00    +0.000 C 
ATOM      5  C   UNL     1      -0.554   9.199  22.348  0.00  0.00    +0.000 C 
ATOM      6  C   UNL     1      -0.335  10.703  22.294  0.00  0.00    +0.000 C 
ATOM      7  C   UNL     1      -0.131  11.172  20.854  0.00  0.00    +0.000 C 
ATOM      8  C   UNL     1       0.980  10.370  20.163  0.00  0.00    +0.000 C 
ATOM      9  O   UNL     1       1.791  10.957  19.441  0.00  0.00    +0.000 OA
BRANCH   3  14
ATOM     10  C   UNL     1       4.407   5.826  17.036  0.00  0.00    +0.000 C 
ATOM     11  C   UNL     1       3.469   6.610  17.905  0.00  0.00    +0.000 A 
ATOM     12  C   UNL     1       3.139   6.170  19.190  0.00  0.00    +0.000 A 
ATOM     13  C   UNL     1       2.293   6.927  20.007  0.00  0.00    +0.000 A 
ATOM     14  C   UNL     1       1.802   8.162  19.570  0.00  0.00    +0.000 A 
ATOM     15  C   UNL     1       2.118   8.592  18.276  0.00  0.00    +0.000 A 
ATOM     16  C   UNL     1       2.931   7.816  17.444  0.00  0.00    +0.000 A 
ENDBRANCH   3  14
ENDBRANCH   1   7
BRANCH   1  17
ATOM     17  S   UNL     1      -2.034  12.542  19.443  0.00  0.00    +0.000 S 
ATOM     18  O   UNL     1      -1.709  13.642  20.321  0.00  0.00    +0.000 OA
ATOM     19  O   UNL     1      -1.618  12.601  18.061  0.00  0.00    +0.000 OA
BRANCH  17  20
ATOM     20  C   UNL     1      -3.803  12.273  19.482  0.00  0.00    +0.000 A 
ATOM     21  C   UNL     1      -4.480  12.720  20.635  0.00  0.00    +0.000 A 
ATOM     22  C   UNL     1      -5.856  12.540  20.763  0.00  0.00    +0.000 A 
ATOM     23  C   UNL     1      -6.571  11.943  19.736  0.00  0.00    +0.000 A 
ATOM     24  C   UNL     1      -5.906  11.486  18.597  0.00  0.00    +0.000 A 
ATOM     25  C   UNL     1      -4.505  11.611  18.454  0.00  0.00    +0.000 A 
BRANCH  25  26
ATOM     26  C   UNL     1      -3.908  10.927  17.308  0.00  0.00    +0.000 A 
ATOM     27  C   UNL     1      -3.189   9.763  17.166  0.00  0.00    +0.000 A 
ATOM     28  C   UNL     1      -2.840   9.722  15.803  0.00  0.00    +0.000 A 
ATOM     29  N   UNL     1      -3.324  10.773  15.143  0.00  0.00    +0.000 NA
ATOM     30  O   UNL     1      -4.039  11.499  16.081  0.00  0.00    +0.000 OA
ENDBRANCH  25  26
ENDBRANCH  17  20
ENDBRANCH   1  17
TORSDOF 5
ENDMDL
MODEL 7
REMARK VINA RESULT:      -6.9      2.837      7.622
REMARK  Name = 
REMARK  6 active torsions:
REMARK  status: ('A' for Active; 'I' for Inactive)
REMARK    1  A    between atoms: C_1  and  C_2
REMARK    2  A    between atoms: C_5  and  N_6
REMARK    3  A    between atoms: C_10  and  N_11
REMARK    4  A    between atoms: N_11  and  S_12
REMARK    5  A    between atoms: S_12  and  C_15
REMARK    6  A    between atoms: C_20  and  C_21
REMARK                            x       y       z     vdW  Elec       q    Type
REMARK                         _______ _______ _______ _____ _____    ______ ____
ROOT
ATOM      1  N   UNL     1      -1.642  12.869  20.839  0.00  0.00    +0.000 NA
ATOM      2  H   UNL     1      -0.921  13.358  21.375  0.00  0.00    +0.000 HD
ENDROOT
BRANCH   1   7
ATOM      3  N   UNL     1       0.567  11.171  19.215  0.00  0.00    +0.000 N 
ATOM      4  C   UNL     1       1.429  12.288  18.845  0.00  0.00    +0.000 C 
ATOM      5  C   UNL     1       0.895  13.638  19.300  0.00  0.00    +0.000 C 
ATOM      6  C   UNL     1      -0.545  13.796  18.839  0.00  0.00    +0.000 C 
ATOM      7  C   UNL     1      -1.420  12.669  19.388  0.00  0.00    +0.000 C 
ATOM      8  C   UNL     1      -0.823  11.295  19.057  0.00  0.00    +0.000 C 
ATOM      9  O   UNL     1      -1.570  10.382  18.692  0.00  0.00    +0.000 OA
BRANCH   3  14
ATOM     10  C   UNL     1       3.008   5.970  19.084  0.00  0.00    +0.000 C 
ATOM     11  C   UNL     1       2.317   7.300  19.122  0.00  0.00    +0.000 A 
ATOM     12  C   UNL     1       1.759   7.789  20.307  0.00  0.00    +0.000 A 
ATOM     13  C   UNL     1       1.150   9.048  20.340  0.00  0.00    +0.000 A 
ATOM     14  C   UNL     1       1.131   9.859  19.200  0.00  0.00    +0.000 A 
ATOM     15  C   UNL     1       1.674   9.359  18.010  0.00  0.00    +0.000 A 
ATOM     16  C   UNL     1       2.247   8.085  17.966  0.00  0.00    +0.000 A 
ENDBRANCH   3  14
ENDBRANCH   1   7
BRANCH   1  17
ATOM     17  S   UNL     1      -3.187  13.288  21.384  0.00  0.00    +0.000 S 
ATOM     18  O   UNL     1      -3.707  14.321  20.518  0.00  0.00    +0.000 OA
ATOM     19  O   UNL     1      -3.949  12.075  21.565  0.00  0.00    +0.000 OA
BRANCH  17  20
ATOM     20  C   UNL     1      -2.866  13.992  22.998  0.00  0.00    +0.000 A 
ATOM     21  C   UNL     1      -1.546  14.421  23.244  0.00  0.00    +0.000 A 
ATOM     22  C   UNL     1      -1.197  14.969  24.476  0.00  0.00    +0.000 A 
ATOM     23  C   UNL     1      -2.161  15.120  25.461  0.00  0.00    +0.000 A 
ATOM     24  C   UNL     1      -3.467  14.685  25.230  0.00  0.00    +0.000 A 
ATOM     25  C   UNL     1      -3.846  14.084  24.008  0.00  0.00    +0.000 A 
BRANCH  25  26
ATOM     26  C   UNL     1      -5.187  13.503  23.960  0.00  0.00    +0.000 A 
ATOM     27  C   UNL     1      -6.412  13.976  23.549  0.00  0.00    +0.000 A 
ATOM     28  C   UNL     1      -7.314  12.937  23.847  0.00  0.00    +0.000 A 
ATOM     29  N   UNL     1      -6.692  11.889  24.385  0.00  0.00    +0.000 NA
ATOM     30  O   UNL     1      -5.350  12.229  24.405  0.00  0.00    +0.000 OA
ENDBRANCH  25  26
ENDBRANCH  17  20
ENDBRANCH   1  17
TORSDOF 5
ENDMDL
MODEL 8
REMARK VINA RESULT:      -6.8      3.211      8.592
REMARK  Name = 
REMARK  6 active torsions:
REMARK  status: ('A' for Active; 'I' for Inactive)
REMARK    1  A    between atoms: C_1  and  C_2
REMARK    2  A    between atoms: C_5  and  N_6
REMARK    3  A    between atoms: C_10  and  N_11
REMARK    4  A    between atoms: N_11  and  S_12
REMARK    5  A    between atoms: S_12  and  C_15
REMARK    6  A    between atoms: C_20  and  C_21
REMARK                            x       y       z     vdW  Elec       q    Type
REMARK                         _______ _______ _______ _____ _____    ______ ____
ROOT
ATOM      1  N   UNL     1       0.901   6.371  20.250  0.00  0.00    +0.000 NA
ATOM      2  H   UNL     1      -0.023   6.027  19.977  0.00  0.00    +0.000 HD
ENDROOT
BRANCH   1   7
ATOM      3  N   UNL     1       2.968   4.554  18.570  0.00  0.00    +0.000 N 
ATOM      4  C   UNL     1       2.218   3.304  18.637  0.00  0.00    +0.000 C 
ATOM      5  C   UNL     1       0.945   3.409  19.462  0.00  0.00    +0.000 C 
ATOM      6  C   UNL     1       1.268   4.004  20.823  0.00  0.00    +0.000 C 
ATOM      7  C   UNL     1       1.917   5.380  20.676  0.00  0.00    +0.000 C 
ATOM      8  C   UNL     1       3.128   5.322  19.735  0.00  0.00    +0.000 C 
ATOM      9  O   UNL     1       4.152   5.947  20.026  0.00  0.00    +0.000 OA
BRANCH   3  14
ATOM     10  C   UNL     1       6.777   4.986  14.288  0.00  0.00    +0.000 C 
ATOM     11  C   UNL     1       5.825   4.898  15.443  0.00  0.00    +0.000 A 
ATOM     12  C   UNL     1       5.205   6.041  15.956  0.00  0.00    +0.000 A 
ATOM     13  C   UNL     1       4.289   5.943  17.008  0.00  0.00    +0.000 A 
ATOM     14  C   UNL     1       3.941   4.694  17.533  0.00  0.00    +0.000 A 
ATOM     15  C   UNL     1       4.576   3.552  17.031  0.00  0.00    +0.000 A 
ATOM     16  C   UNL     1       5.522   3.654  16.006  0.00  0.00    +0.000 A 
ENDBRANCH   3  14
ENDBRANCH   1   7
BRANCH   1  17
ATOM     17  S   UNL     1       0.777   7.834  21.090  0.00  0.00    +0.000 S 
ATOM     18  O   UNL     1      -0.587   7.981  21.543  0.00  0.00    +0.000 OA
ATOM     19  O   UNL     1       1.847   7.893  22.058  0.00  0.00    +0.000 OA
BRANCH  17  20
ATOM     20  C   UNL     1       1.101   9.053  19.822  0.00  0.00    +0.000 A 
ATOM     21  C   UNL     1       1.971   8.663  18.784  0.00  0.00    +0.000 A 
ATOM     22  C   UNL     1       2.295   9.550  17.759  0.00  0.00    +0.000 A 
ATOM     23  C   UNL     1       1.735  10.819  17.744  0.00  0.00    +0.000 A 
ATOM     24  C   UNL     1       0.884  11.218  18.775  0.00  0.00    +0.000 A 
ATOM     25  C   UNL     1       0.570  10.359  19.853  0.00  0.00    +0.000 A 
BRANCH  25  26
ATOM     26  C   UNL     1      -0.177  10.957  20.960  0.00  0.00    +0.000 A 
ATOM     27  C   UNL     1      -1.428  11.520  21.066  0.00  0.00    +0.000 A 
ATOM     28  C   UNL     1      -1.501  11.980  22.395  0.00  0.00    +0.000 A 
ATOM     29  N   UNL     1      -0.385  11.704  23.069  0.00  0.00    +0.000 NA
ATOM     30  O   UNL     1       0.421  11.015  22.180  0.00  0.00    +0.000 OA
ENDBRANCH  25  26
ENDBRANCH  17  20
ENDBRANCH   1  17
TORSDOF 5
ENDMDL
MODEL 9
REMARK VINA RESULT:      -6.8      4.512      7.135
REMARK  Name = 
REMARK  6 active torsions:
REMARK  status: ('A' for Active; 'I' for Inactive)
REMARK    1  A    between atoms: C_1  and  C_2
REMARK    2  A    between atoms: C_5  and  N_6
REMARK    3  A    between atoms: C_10  and  N_11
REMARK    4  A    between atoms: N_11  and  S_12
REMARK    5  A    between atoms: S_12  and  C_15
REMARK    6  A    between atoms: C_20  and  C_21
REMARK                            x       y       z     vdW  Elec       q    Type
REMARK                         _______ _______ _______ _____ _____    ______ ____
ROOT
ATOM      1  N   UNL     1       4.600   5.876  19.637  0.00  0.00    +0.000 NA
ATOM      2  H   UNL     1       4.535   6.019  20.648  0.00  0.00    +0.000 HD
ENDROOT
BRANCH   1   7
ATOM      3  N   UNL     1       1.731   7.232  20.209  0.00  0.00    +0.000 N 
ATOM      4  C   UNL     1       1.029   6.021  20.623  0.00  0.00    +0.000 C 
ATOM      5  C   UNL     1       1.887   4.768  20.534  0.00  0.00    +0.000 C 
ATOM      6  C   UNL     1       2.508   4.674  19.149  0.00  0.00    +0.000 C 
ATOM      7  C   UNL     1       3.349   5.913  18.844  0.00  0.00    +0.000 C 
ATOM      8  C   UNL     1       2.540   7.198  19.062  0.00  0.00    +0.000 C 
ATOM      9  O   UNL     1       2.644   8.124  18.252  0.00  0.00    +0.000 OA
BRANCH   3  14
ATOM     10  C   UNL     1      -0.298  12.324  21.934  0.00  0.00    +0.000 C 
ATOM     11  C   UNL     1       0.175  10.980  21.468  0.00  0.00    +0.000 A 
ATOM     12  C   UNL     1       0.269  10.682  20.106  0.00  0.00    +0.000 A 
ATOM     13  C   UNL     1       0.748   9.438  19.680  0.00  0.00    +0.000 A 
ATOM     14  C   UNL     1       1.185   8.489  20.611  0.00  0.00    +0.000 A 
ATOM     15  C   UNL     1       1.072   8.783  21.975  0.00  0.00    +0.000 A 
ATOM     16  C   UNL     1       0.557  10.010  22.401  0.00  0.00    +0.000 A 
ENDBRANCH   3  14
ENDBRANCH   1   7
BRANCH   1  17
ATOM     17  S   UNL     1       5.775   4.717  19.266  0.00  0.00    +0.000 S 
ATOM     18  O   UNL     1       7.029   5.145  19.841  0.00  0.00    +0.000 OA
ATOM     19  O   UNL     1       5.253   3.416  19.610  0.00  0.00    +0.000 OA
BRANCH  17  20
ATOM     20  C   UNL     1       5.890   4.820  17.483  0.00  0.00    +0.000 A 
ATOM     21  C   UNL     1       5.362   3.734  16.756  0.00  0.00    +0.000 A 
ATOM     22  C   UNL     1       5.419   3.718  15.364  0.00  0.00    +0.000 A 
ATOM     23  C   UNL     1       5.975   4.791  14.685  0.00  0.00    +0.000 A 
ATOM     24  C   UNL     1       6.514   5.863  15.397  0.00  0.00    +0.000 A 
ATOM     25  C   UNL     1       6.513   5.892  16.811  0.00  0.00    +0.000 A 
BRANCH  25  26
ATOM     26  C   UNL     1       7.271   6.975  17.437  0.00  0.00    +0.000 A 
ATOM     27  C   UNL     1       8.201   7.020  18.449  0.00  0.00    +0.000 A 
ATOM     28  C   UNL     1       8.478   8.390  18.619  0.00  0.00    +0.000 A 
ATOM     29  N   UNL     1       7.785   9.138  17.762  0.00  0.00    +0.000 NA
ATOM     30  O   UNL     1       7.070   8.242  16.986  0.00  0.00    +0.000 OA
ENDBRANCH  25  26
ENDBRANCH  17  20
ENDBRANCH   1  17
TORSDOF 5
ENDMDL
