MODEL 1
REMARK VINA RESULT:      -8.4      0.000      0.000
REMARK  Name = 
REMARK  4 active torsions:
REMARK  status: ('A' for Active; 'I' for Inactive)
REMARK    1  A    between atoms: C_4  and  C_5
REMARK    2  A    between atoms: C_5  and  N_6
REMARK    3  A    between atoms: N_6  and  C_7
REMARK    4  A    between atoms: C_11  and  C_12
REMARK                            x       y       z     vdW  Elec       q    Type
REMARK                         _______ _______ _______ _____ _____    ______ ____
ROOT
ATOM      1  N   UNL     1       4.083   2.515  17.473  0.00  0.00    +0.000 N 
ATOM      2  H   UNL     1       4.228   1.714  16.865  0.00  0.00    +0.000 HD
ENDROOT
BRANCH   1   3
ATOM      3  C   UNL     1       5.062   3.500  17.246  0.00  0.00    +0.000 A 
ATOM      4  C   UNL     1       5.619   4.281  18.264  0.00  0.00    +0.000 A 
ATOM      5  C   UNL     1       6.632   5.203  17.994  0.00  0.00    +0.000 A 
ATOM      6  C   UNL     1       7.117   5.347  16.696  0.00  0.00    +0.000 A 
ATOM      7  C   UNL     1       6.609   4.562  15.655  0.00  0.00    +0.000 A 
ATOM      8  C   UNL     1       5.611   3.619  15.955  0.00  0.00    +0.000 A 
BRANCH   7   9
ATOM      9  C   UNL     1       7.107   4.778  14.295  0.00  0.00    +0.000 A 
ATOM     10  N   UNL     1       8.036   5.639  13.917  0.00  0.00    +0.000 NA
ATOM     11  N   UNL     1       8.156   5.592  12.548  0.00  0.00    +0.000 NA
ATOM     12  C   UNL     1       7.304   4.700  12.111  0.00  0.00    +0.000 A 
ATOM     13  N   UNL     1       6.644   4.148  13.165  0.00  0.00    +0.000 N 
ATOM     14  H   UNL     1       5.929   3.443  13.120  0.00  0.00    +0.000 HD
ENDBRANCH   7   9
ENDBRANCH   1   3
BRANCH   1  15
ATOM     15  C   UNL     1       2.676   2.939  17.432  0.00  0.00    +0.000 C 
BRANCH  15  19
ATOM     16  F   UNL     1       1.220   2.305  22.067  0.00  0.00    +0.000 F 
ATOM     17  C   UNL     1       1.529   3.138  21.065  0.00  0.00    +0.000 A 
ATOM     18  C   UNL     1       1.904   2.622  19.835  0.00  0.00    +0.000 A 
ATOM     19  C   UNL     1       2.220   3.489  18.770  0.00  0.00    +0.000 A 
ATOM     20  C   UNL     1       2.217   4.879  18.969  0.00  0.00    +0.000 A 
ATOM     21  N   UNL     1       2.580   5.714  17.973  0.00  0.00    +0.000 NA
ATOM     22  C   UNL     1       2.573   7.045  18.203  0.00  0.00    +0.000 A 
ATOM     23  C   UNL     1       2.211   7.616  19.404  0.00  0.00    +0.000 A 
ATOM     24  C   UNL     1       1.835   6.768  20.436  0.00  0.00    +0.000 A 
ATOM     25  C   UNL     1       1.837   5.380  20.238  0.00  0.00    +0.000 A 
ATOM     26  C   UNL     1       1.484   4.507  21.276  0.00  0.00    +0.000 A 
ENDBRANCH  15  19
ENDBRANCH   1  15
TORSDOF 4
ENDMDL
MODEL 2
REMARK VINA RESULT:      -8.4      1.898      2.862
REMARK  Name = 
REMARK  4 active torsions:
REMARK  status: ('A' for Active; 'I' for Inactive)
REMARK    1  A    between atoms: C_4  and  C_5
REMARK    2  A    between atoms: C_5  and  N_6
REMARK    3  A    between atoms: N_6  and  C_7
REMARK    4  A    between atoms: C_11  and  C_12
REMARK                            x       y       z     vdW  Elec       q    Type
REMARK                         _______ _______ _______ _____ _____    ______ ____
ROOT
ATOM      1  N   UNL     1       4.507   2.841  17.368  0.00  0.00    +0.000 N 
ATOM      2  H   UNL     1       4.680   1.873  17.112  0.00  0.00    +0.000 HD
ENDROOT
BRANCH   1   3
ATOM      3  C   UNL     1       5.365   3.707  16.664  0.00  0.00    +0.000 A 
ATOM      4  C   UNL     1       5.638   3.576  15.299  0.00  0.00    +0.000 A 
ATOM      5  C   UNL     1       6.449   4.498  14.634  0.00  0.00    +0.000 A 
ATOM      6  C   UNL     1       6.989   5.579  15.327  0.00  0.00    +0.000 A 
ATOM      7  C   UNL     1       6.715   5.764  16.686  0.00  0.00    +0.000 A 
ATOM      8  C   UNL     1       5.870   4.840  17.328  0.00  0.00    +0.000 A 
BRANCH   7   9
ATOM      9  C   UNL     1       7.341   6.882  17.393  0.00  0.00    +0.000 A 
ATOM     10  N   UNL     1       7.374   8.146  17.008  0.00  0.00    +0.000 NA
ATOM     11  N   UNL     1       8.127   8.866  17.904  0.00  0.00    +0.000 NA
ATOM     12  C   UNL     1       8.540   8.033  18.826  0.00  0.00    +0.000 A 
ATOM     13  N   UNL     1       8.056   6.790  18.563  0.00  0.00    +0.000 N 
ATOM     14  H   UNL     1       8.222   5.957  19.102  0.00  0.00    +0.000 HD
ENDBRANCH   7   9
ENDBRANCH   1   3
BRANCH   1  15
ATOM     15  C   UNL     1       3.066   3.131  17.319  0.00  0.00    +0.000 C 
BRANCH  15  19
ATOM     16  F   UNL     1       1.589   2.040  21.861  0.00  0.00    +0.000 F 
ATOM     17  C   UNL     1       1.836   2.966  20.927  0.00  0.00    +0.000 A 
ATOM     18  C   UNL     1       2.282   2.576  19.675  0.00  0.00    +0.000 A 
ATOM     19  C   UNL     1       2.534   3.541  18.679  0.00  0.00    +0.000 A 
ATOM     20  C   UNL     1       2.393   4.906  18.972  0.00  0.00    +0.000 A 
ATOM     21  N   UNL     1       2.692   5.840  18.045  0.00  0.00    +0.000 NA
ATOM     22  C   UNL     1       2.552   7.145  18.363  0.00  0.00    +0.000 A 
ATOM     23  C   UNL     1       2.114   7.594  19.591  0.00  0.00    +0.000 A 
ATOM     24  C   UNL     1       1.801   6.644  20.553  0.00  0.00    +0.000 A 
ATOM     25  C   UNL     1       1.942   5.280  20.262  0.00  0.00    +0.000 A 
ATOM     26  C   UNL     1       1.655   4.307  21.228  0.00  0.00    +0.000 A 
ENDBRANCH  15  19
ENDBRANCH   1  15
TORSDOF 4
ENDMDL
MODEL 3
REMARK VINA RESULT:      -8.4      1.638      2.941
REMARK  Name = 
REMARK  4 active torsions:
REMARK  status: ('A' for Active; 'I' for Inactive)
REMARK    1  A    between atoms: C_4  and  C_5
REMARK    2  A    between atoms: C_5  and  N_6
REMARK    3  A    between atoms: N_6  and  C_7
REMARK    4  A    between atoms: C_11  and  C_12
REMARK                            x       y       z     vdW  Elec       q    Type
REMARK                         _______ _______ _______ _____ _____    ______ ____
ROOT
ATOM      1  N   UNL     1       4.540   7.539  17.405  0.00  0.00    +0.000 N 
ATOM      2  H   UNL     1       4.694   7.961  18.316  0.00  0.00    +0.000 HD
ENDROOT
BRANCH   1   3
ATOM      3  C   UNL     1       5.507   6.551  17.141  0.00  0.00    +0.000 A 
ATOM      4  C   UNL     1       6.286   5.952  18.136  0.00  0.00    +0.000 A 
ATOM      5  C   UNL     1       7.189   4.932  17.829  0.00  0.00    +0.000 A 
ATOM      6  C   UNL     1       7.316   4.484  16.516  0.00  0.00    +0.000 A 
ATOM      7  C   UNL     1       6.532   5.035  15.496  0.00  0.00    +0.000 A 
ATOM      8  C   UNL     1       5.607   6.040  15.834  0.00  0.00    +0.000 A 
BRANCH   7   9
ATOM      9  C   UNL     1       6.729   4.575  14.121  0.00  0.00    +0.000 A 
ATOM     10  N   UNL     1       7.432   5.176  13.176  0.00  0.00    +0.000 NA
ATOM     11  N   UNL     1       7.300   4.468  12.005  0.00  0.00    +0.000 NA
ATOM     12  C   UNL     1       6.523   3.445  12.252  0.00  0.00    +0.000 A 
ATOM     13  N   UNL     1       6.162   3.455  13.562  0.00  0.00    +0.000 N 
ATOM     14  H   UNL     1       5.563   2.792  14.023  0.00  0.00    +0.000 HD
ENDBRANCH   7   9
ENDBRANCH   1   3
BRANCH   1  15
ATOM     15  C   UNL     1       3.127   7.160  17.252  0.00  0.00    +0.000 C 
BRANCH  15  19
ATOM     16  F   UNL     1       1.301   7.824  21.749  0.00  0.00    +0.000 F 
ATOM     17  C   UNL     1       1.628   6.988  20.756  0.00  0.00    +0.000 A 
ATOM     18  C   UNL     1       2.192   7.490  19.594  0.00  0.00    +0.000 A 
ATOM     19  C   UNL     1       2.552   6.619  18.547  0.00  0.00    +0.000 A 
ATOM     20  C   UNL     1       2.282   5.245  18.651  0.00  0.00    +0.000 A 
ATOM     21  N   UNL     1       2.566   4.413  17.627  0.00  0.00    +0.000 NA
ATOM     22  C   UNL     1       2.286   3.098  17.759  0.00  0.00    +0.000 A 
ATOM     23  C   UNL     1       1.725   2.540  18.888  0.00  0.00    +0.000 A 
ATOM     24  C   UNL     1       1.430   3.385  19.949  0.00  0.00    +0.000 A 
ATOM     25  C   UNL     1       1.699   4.757  19.846  0.00  0.00    +0.000 A 
ATOM     26  C   UNL     1       1.386   5.630  20.896  0.00  0.00    +0.000 A 
ENDBRANCH  15  19
ENDBRANCH   1  15
TORSDOF 4
ENDMDL
MODEL 4
REMARK VINA RESULT:      -8.2      3.187      6.416
REMARK  Name = 
REMARK  4 active torsions:
REMARK  status: ('A' for Active; 'I' for Inactive)
REMARK    1  A    between atoms: C_4  and  C_5
REMARK    2  A    between atoms: C_5  and  N_6
REMARK    3  A    between atoms: N_6  and  C_7
REMARK    4  A    between atoms: C_11  and  C_12
REMARK                            x       y       z     vdW  Elec       q    Type
REMARK                         _______ _______ _______ _____ _____    ______ ____
ROOT
ATOM      1  N   UNL     1       2.707   3.455  17.625  0.00  0.00    +0.000 N 
ATOM      2  H   UNL     1       2.009   2.716  17.612  0.00  0.00    +0.000 HD
ENDROOT
BRANCH   1   3
ATOM      3  C   UNL     1       2.377   4.439  18.575  0.00  0.00    +0.000 A 
ATOM      4  C   UNL     1       2.200   4.165  19.936  0.00  0.00    +0.000 A 
ATOM      5  C   UNL     1       1.933   5.188  20.848  0.00  0.00    +0.000 A 
ATOM      6  C   UNL     1       1.854   6.509  20.413  0.00  0.00    +0.000 A 
ATOM      7  C   UNL     1       2.056   6.828  19.066  0.00  0.00    +0.000 A 
ATOM      8  C   UNL     1       2.354   5.786  18.169  0.00  0.00    +0.000 A 
BRANCH   7   9
ATOM      9  C   UNL     1       1.914   8.220  18.636  0.00  0.00    +0.000 A 
ATOM     10  N   UNL     1       2.419   8.769  17.544  0.00  0.00    +0.000 NA
ATOM     11  N   UNL     1       2.130  10.113  17.547  0.00  0.00    +0.000 NA
ATOM     12  C   UNL     1       1.450  10.365  18.636  0.00  0.00    +0.000 A 
ATOM     13  N   UNL     1       1.269   9.212  19.335  0.00  0.00    +0.000 N 
ATOM     14  H   UNL     1       0.789   9.114  20.213  0.00  0.00    +0.000 HD
ENDBRANCH   7   9
ENDBRANCH   1   3
BRANCH   1  15
ATOM     15  C   UNL     1       4.058   2.878  17.691  0.00  0.00    +0.000 C 
BRANCH  15  19
ATOM     16  F   UNL     1       5.850   4.382  13.386  0.00  0.00    +0.000 F 
ATOM     17  C   UNL     1       5.890   4.426  14.724  0.00  0.00    +0.000 A 
ATOM     18  C   UNL     1       5.007   3.654  15.462  0.00  0.00    +0.000 A 
ATOM     19  C   UNL     1       5.048   3.683  16.870  0.00  0.00    +0.000 A 
ATOM     20  C   UNL     1       5.941   4.541  17.531  0.00  0.00    +0.000 A 
ATOM     21  N   UNL     1       5.943   4.621  18.878  0.00  0.00    +0.000 NA
ATOM     22  C   UNL     1       6.810   5.464  19.480  0.00  0.00    +0.000 A 
ATOM     23  C   UNL     1       7.710   6.256  18.800  0.00  0.00    +0.000 A 
ATOM     24  C   UNL     1       7.719   6.182  17.414  0.00  0.00    +0.000 A 
ATOM     25  C   UNL     1       6.828   5.325  16.753  0.00  0.00    +0.000 A 
ATOM     26  C   UNL     1       6.805   5.254  15.354  0.00  0.00    +0.000 A 
ENDBRANCH  15  19
ENDBRANCH   1  15
TORSDOF 4
ENDMDL
MODEL 5
REMARK VINA RESULT:      -8.2      4.474      8.215
REMARK  Name = 
REMARK  4 active torsions:
REMARK  status: ('A' for Active; 'I' for Inactive)
REMARK    1  A    between atoms: C_4  and  C_5
REMARK    2  A    between atoms: C_5  and  N_6
REMARK    3  A    between atoms: N_6  and  C_7
REMARK    4  A    between atoms: C_11  and  C_12
REMARK                            x       y       z     vdW  Elec       q    Type
REMARK                         _______ _______ _______ _____ _____    ______ ____
ROOT
ATOM      1  N   UNL     1       2.063   8.609  18.248  0.00  0.00    +0.000 N 
ATOM      2  H   UNL     1       1.918   8.359  17.274  0.00  0.00    +0.000 HD
ENDROOT
BRANCH   1   3
ATOM      3  C   UNL     1       0.990   9.379  18.733  0.00  0.00    +0.000 A 
ATOM      4  C   UNL     1       0.945   9.906  20.028  0.00  0.00    +0.000 A 
ATOM      5  C   UNL     1      -0.115  10.716  20.440  0.00  0.00    +0.000 A 
ATOM      6  C   UNL     1      -1.144  11.024  19.553  0.00  0.00    +0.000 A 
ATOM      7  C   UNL     1      -1.121  10.543  18.240  0.00  0.00    +0.000 A 
ATOM      8  C   UNL     1      -0.028   9.755  17.837  0.00  0.00    +0.000 A 
BRANCH   7   9
ATOM      9  C   UNL     1      -2.245  10.845  17.352  0.00  0.00    +0.000 A 
ATOM     10  N   UNL     1      -3.445  11.272  17.707  0.00  0.00    +0.000 NA
ATOM     11  N   UNL     1      -4.238  11.356  16.587  0.00  0.00    +0.000 NA
ATOM     12  C   UNL     1      -3.510  10.984  15.565  0.00  0.00    +0.000 A 
ATOM     13  N   UNL     1      -2.255  10.679  15.988  0.00  0.00    +0.000 N 
ATOM     14  H   UNL     1      -1.492  10.358  15.417  0.00  0.00    +0.000 HD
ENDBRANCH   7   9
ENDBRANCH   1   3
BRANCH   1  15
ATOM     15  C   UNL     1       2.449   7.423  19.026  0.00  0.00    +0.000 C 
BRANCH  15  19
ATOM     16  F   UNL     1       5.939   6.075  15.863  0.00  0.00    +0.000 F 
ATOM     17  C   UNL     1       4.881   5.744  16.613  0.00  0.00    +0.000 A 
ATOM     18  C   UNL     1       4.247   6.715  17.372  0.00  0.00    +0.000 A 
ATOM     19  C   UNL     1       3.125   6.381  18.156  0.00  0.00    +0.000 A 
ATOM     20  C   UNL     1       2.683   5.050  18.221  0.00  0.00    +0.000 A 
ATOM     21  N   UNL     1       1.649   4.710  19.018  0.00  0.00    +0.000 NA
ATOM     22  C   UNL     1       1.255   3.418  19.062  0.00  0.00    +0.000 A 
ATOM     23  C   UNL     1       1.846   2.409  18.332  0.00  0.00    +0.000 A 
ATOM     24  C   UNL     1       2.911   2.746  17.507  0.00  0.00    +0.000 A 
ATOM     25  C   UNL     1       3.352   4.075  17.441  0.00  0.00    +0.000 A 
ATOM     26  C   UNL     1       4.441   4.430  16.633  0.00  0.00    +0.000 A 
ENDBRANCH  15  19
ENDBRANCH   1  15
TORSDOF 4
ENDMDL
MODEL 6
REMARK VINA RESULT:      -8.1      4.098      7.831
REMARK  Name = 
REMARK  4 active torsions:
REMARK  status: ('A' for Active; 'I' for Inactive)
REMARK    1  A    between atoms: C_4  and  C_5
REMARK    2  A    between atoms: C_5  and  N_6
REMARK    3  A    between atoms: N_6  and  C_7
REMARK    4  A    between atoms: C_11  and  C_12
REMARK                            x       y       z     vdW  Elec       q    Type
REMARK                         _______ _______ _______ _____ _____    ______ ____
ROOT
ATOM      1  N   UNL     1       2.019   8.293  18.428  0.00  0.00    +0.000 N 
ATOM      2  H   UNL     1       1.787   7.887  17.526  0.00  0.00    +0.000 HD
ENDROOT
BRANCH   1   3
ATOM      3  C   UNL     1       0.997   9.155  18.867  0.00  0.00    +0.000 A 
ATOM      4  C   UNL     1       0.974   9.736  20.139  0.00  0.00    +0.000 A 
ATOM      5  C   UNL     1      -0.031  10.634  20.504  0.00  0.00    +0.000 A 
ATOM      6  C   UNL     1      -1.026  10.976  19.591  0.00  0.00    +0.000 A 
ATOM      7  C   UNL     1      -1.022  10.442  18.298  0.00  0.00    +0.000 A 
ATOM      8  C   UNL     1       0.018   9.564  17.942  0.00  0.00    +0.000 A 
BRANCH   7   9
ATOM      9  C   UNL     1      -2.111  10.785  17.383  0.00  0.00    +0.000 A 
ATOM     10  N   UNL     1      -3.235  11.412  17.686  0.00  0.00    +0.000 NA
ATOM     11  N   UNL     1      -4.030  11.468  16.567  0.00  0.00    +0.000 NA
ATOM     12  C   UNL     1      -3.380  10.879  15.596  0.00  0.00    +0.000 A 
ATOM     13  N   UNL     1      -2.169  10.458  16.050  0.00  0.00    +0.000 N 
ATOM     14  H   UNL     1      -1.469   9.968  15.520  0.00  0.00    +0.000 HD
ENDBRANCH   7   9
ENDBRANCH   1   3
BRANCH   1  15
ATOM     15  C   UNL     1       2.465   7.246  19.359  0.00  0.00    +0.000 C 
BRANCH  15  19
ATOM     16  F   UNL     1       0.995   2.682  18.354  0.00  0.00    +0.000 F 
ATOM     17  C   UNL     1       1.875   3.673  18.161  0.00  0.00    +0.000 A 
ATOM     18  C   UNL     1       1.721   4.869  18.842  0.00  0.00    +0.000 A 
ATOM     19  C   UNL     1       2.647   5.915  18.656  0.00  0.00    +0.000 A 
ATOM     20  C   UNL     1       3.694   5.770  17.732  0.00  0.00    +0.000 A 
ATOM     21  N   UNL     1       4.549   6.789  17.501  0.00  0.00    +0.000 NA
ATOM     22  C   UNL     1       5.541   6.617  16.600  0.00  0.00    +0.000 A 
ATOM     23  C   UNL     1       5.743   5.452  15.892  0.00  0.00    +0.000 A 
ATOM     24  C   UNL     1       4.872   4.396  16.121  0.00  0.00    +0.000 A 
ATOM     25  C   UNL     1       3.826   4.539  17.044  0.00  0.00    +0.000 A 
ATOM     26  C   UNL     1       2.921   3.493  17.271  0.00  0.00    +0.000 A 
ENDBRANCH  15  19
ENDBRANCH   1  15
TORSDOF 4
ENDMDL
MODEL 7
REMARK VINA RESULT:      -8.0      3.433      5.110
REMARK  Name = 
REMARK  4 active torsions:
REMARK  status: ('A' for Active; 'I' for Inactive)
REMARK    1  A    between atoms: C_4  and  C_5
REMARK    2  A    between atoms: C_5  and  N_6
REMARK    3  A    between atoms: N_6  and  C_7
REMARK    4  A    between atoms: C_11  and  C_12
REMARK                            x       y       z     vdW  Elec       q    Type
REMARK                         _______ _______ _______ _____ _____    ______ ____
ROOT
ATOM      1  N   UNL     1       2.122   6.871  19.319  0.00  0.00    +0.000 N 
ATOM      2  H   UNL     1       1.149   6.743  19.585  0.00  0.00    +0.000 HD
ENDROOT
BRANCH   1   3
ATOM      3  C   UNL     1       2.593   5.757  18.599  0.00  0.00    +0.000 A 
ATOM      4  C   UNL     1       1.923   4.530  18.553  0.00  0.00    +0.000 A 
ATOM      5  C   UNL     1       2.401   3.476  17.773  0.00  0.00    +0.000 A 
ATOM      6  C   UNL     1       3.556   3.639  17.012  0.00  0.00    +0.000 A 
ATOM      7  C   UNL     1       4.239   4.860  17.005  0.00  0.00    +0.000 A 
ATOM      8  C   UNL     1       3.722   5.918  17.774  0.00  0.00    +0.000 A 
BRANCH   7   9
ATOM      9  C   UNL     1       5.477   4.978  16.233  0.00  0.00    +0.000 A 
ATOM     10  N   UNL     1       6.505   5.766  16.497  0.00  0.00    +0.000 NA
ATOM     11  N   UNL     1       7.432   5.643  15.490  0.00  0.00    +0.000 NA
ATOM     12  C   UNL     1       6.959   4.779  14.628  0.00  0.00    +0.000 A 
ATOM     13  N   UNL     1       5.755   4.319  15.060  0.00  0.00    +0.000 N 
ATOM     14  H   UNL     1       5.165   3.653  14.591  0.00  0.00    +0.000 HD
ENDBRANCH   7   9
ENDBRANCH   1   3
BRANCH   1  15
ATOM     15  C   UNL     1       2.316   8.197  18.716  0.00  0.00    +0.000 C 
BRANCH  15  19
ATOM     16  F   UNL     1      -1.477  10.898  17.195  0.00  0.00    +0.000 F 
ATOM     17  C   UNL     1      -0.744  10.417  18.206  0.00  0.00    +0.000 A 
ATOM     18  C   UNL     1       0.353   9.615  17.937  0.00  0.00    +0.000 A 
ATOM     19  C   UNL     1       1.140   9.113  18.993  0.00  0.00    +0.000 A 
ATOM     20  C   UNL     1       0.779   9.373  20.325  0.00  0.00    +0.000 A 
ATOM     21  N   UNL     1       1.490   8.845  21.343  0.00  0.00    +0.000 NA
ATOM     22  C   UNL     1       1.109   9.109  22.611  0.00  0.00    +0.000 A 
ATOM     23  C   UNL     1       0.027   9.898  22.941  0.00  0.00    +0.000 A 
ATOM     24  C   UNL     1      -0.712  10.449  21.903  0.00  0.00    +0.000 A 
ATOM     25  C   UNL     1      -0.351  10.190  20.573  0.00  0.00    +0.000 A 
ATOM     26  C   UNL     1      -1.099  10.717  19.512  0.00  0.00    +0.000 A 
ENDBRANCH  15  19
ENDBRANCH   1  15
TORSDOF 4
ENDMDL
MODEL 8
REMARK VINA RESULT:      -8.0      3.425      5.174
REMARK  Name = 
REMARK  4 active torsions:
REMARK  status: ('A' for Active; 'I' for Inactive)
REMARK    1  A    between atoms: C_4  and  C_5
REMARK    2  A    between atoms: C_5  and  N_6
REMARK    3  A    between atoms: N_6  and  C_7
REMARK    4  A    between atoms: C_11  and  C_12
REMARK                            x       y       z     vdW  Elec       q    Type
REMARK                         _______ _______ _______ _____ _____    ______ ____
ROOT
ATOM      1  N   UNL     1       2.660   6.260  20.534  0.00  0.00    +0.000 N 
ATOM      2  H   UNL     1       3.081   5.848  21.363  0.00  0.00    +0.000 HD
ENDROOT
BRANCH   1   3
ATOM      3  C   UNL     1       2.703   5.362  19.452  0.00  0.00    +0.000 A 
ATOM      4  C   UNL     1       1.705   4.414  19.198  0.00  0.00    +0.000 A 
ATOM      5  C   UNL     1       1.765   3.587  18.075  0.00  0.00    +0.000 A 
ATOM      6  C   UNL     1       2.822   3.706  17.176  0.00  0.00    +0.000 A 
ATOM      7  C   UNL     1       3.824   4.663  17.376  0.00  0.00    +0.000 A 
ATOM      8  C   UNL     1       3.727   5.506  18.497  0.00  0.00    +0.000 A 
BRANCH   7   9
ATOM      9  C   UNL     1       4.946   4.724  16.438  0.00  0.00    +0.000 A 
ATOM     10  N   UNL     1       5.252   5.727  15.633  0.00  0.00    +0.000 NA
ATOM     11  N   UNL     1       6.325   5.361  14.855  0.00  0.00    +0.000 NA
ATOM     12  C   UNL     1       6.661   4.144  15.199  0.00  0.00    +0.000 A 
ATOM     13  N   UNL     1       5.845   3.714  16.199  0.00  0.00    +0.000 N 
ATOM     14  H   UNL     1       5.873   2.815  16.649  0.00  0.00    +0.000 HD
ENDBRANCH   7   9
ENDBRANCH   1   3
BRANCH   1  15
ATOM     15  C   UNL     1       1.357   6.855  20.867  0.00  0.00    +0.000 C 
BRANCH  15  19
ATOM     16  F   UNL     1       2.066  10.259  17.414  0.00  0.00    +0.000 F 
ATOM     17  C   UNL     1       1.594   9.933  18.624  0.00  0.00    +0.000 A 
ATOM     18  C   UNL     1       1.734   8.634  19.088  0.00  0.00    +0.000 A 
ATOM     19  C   UNL     1       1.252   8.282  20.365  0.00  0.00    +0.000 A 
ATOM     20  C   UNL     1       0.573   9.231  21.146  0.00  0.00    +0.000 A 
ATOM     21  N   UNL     1       0.053   8.886  22.343  0.00  0.00    +0.000 NA
ATOM     22  C   UNL     1      -0.601   9.821  23.065  0.00  0.00    +0.000 A 
ATOM     23  C   UNL     1      -0.772  11.127  22.656  0.00  0.00    +0.000 A 
ATOM     24  C   UNL     1      -0.241  11.495  21.427  0.00  0.00    +0.000 A 
ATOM     25  C   UNL     1       0.437  10.549  20.647  0.00  0.00    +0.000 A 
ATOM     26  C   UNL     1       0.959  10.895  19.393  0.00  0.00    +0.000 A 
ENDBRANCH  15  19
ENDBRANCH   1  15
TORSDOF 4
ENDMDL
MODEL 9
REMARK VINA RESULT:      -8.0      3.613      5.256
REMARK  Name = 
REMARK  4 active torsions:
REMARK  status: ('A' for Active; 'I' for Inactive)
REMARK    1  A    between atoms: C_4  and  C_5
REMARK    2  A    between atoms: C_5  and  N_6
REMARK    3  A    between atoms: N_6  and  C_7
REMARK    4  A    between atoms: C_11  and  C_12
REMARK                            x       y       z     vdW  Elec       q    Type
REMARK                         _______ _______ _______ _____ _____    ______ ____
ROOT
ATOM      1  N   UNL     1       2.365   7.282  20.098  0.00  0.00    +0.000 N 
ATOM      2  H   UNL     1       1.950   7.007  20.984  0.00  0.00    +0.000 HD
ENDROOT
BRANCH   1   3
ATOM      3  C   UNL     1       2.586   6.159  19.279  0.00  0.00    +0.000 A 
ATOM      4  C   UNL     1       1.696   5.083  19.193  0.00  0.00    +0.000 A 
ATOM      5  C   UNL     1       1.931   4.021  18.318  0.00  0.00    +0.000 A 
ATOM      6  C   UNL     1       3.060   4.026  17.501  0.00  0.00    +0.000 A 
ATOM      7  C   UNL     1       3.958   5.098  17.534  0.00  0.00    +0.000 A 
ATOM      8  C   UNL     1       3.685   6.172  18.400  0.00  0.00    +0.000 A 
BRANCH   7   9
ATOM      9  C   UNL     1       5.160   5.045  16.700  0.00  0.00    +0.000 A 
ATOM     10  N   UNL     1       5.399   5.751  15.608  0.00  0.00    +0.000 NA
ATOM     11  N   UNL     1       6.600   5.349  15.072  0.00  0.00    +0.000 NA
ATOM     12  C   UNL     1       7.078   4.409  15.846  0.00  0.00    +0.000 A 
ATOM     13  N   UNL     1       6.227   4.201  16.886  0.00  0.00    +0.000 N 
ATOM     14  H   UNL     1       6.342   3.531  17.628  0.00  0.00    +0.000 HD
ENDBRANCH   7   9
ENDBRANCH   1   3
BRANCH   1  15
ATOM     15  C   UNL     1       1.623   8.409  19.514  0.00  0.00    +0.000 C 
BRANCH  15  19
ATOM     16  F   UNL     1       0.332   9.207  24.173  0.00  0.00    +0.000 F 
ATOM     17  C   UNL     1       0.209   9.524  22.878  0.00  0.00    +0.000 A 
ATOM     18  C   UNL     1       0.933   8.822  21.927  0.00  0.00    +0.000 A 
ATOM     19  C   UNL     1       0.803   9.138  20.561  0.00  0.00    +0.000 A 
ATOM     20  C   UNL     1      -0.013  10.209  20.161  0.00  0.00    +0.000 A 
ATOM     21  N   UNL     1      -0.095  10.559  18.861  0.00  0.00    +0.000 NA
ATOM     22  C   UNL     1      -0.884  11.599  18.513  0.00  0.00    +0.000 A 
ATOM     23  C   UNL     1      -1.626  12.335  19.412  0.00  0.00    +0.000 A 
ATOM     24  C   UNL     1      -1.552  11.984  20.753  0.00  0.00    +0.000 A 
ATOM     25  C   UNL     1      -0.737  10.915  21.153  0.00  0.00    +0.000 A 
ATOM     26  C   UNL     1      -0.630  10.561  22.504  0.00  0.00    +0.000 A 
ENDBRANCH  15  19
ENDBRANCH   1  15
TORSDOF 4
ENDMDL
