MODEL 1
REMARK VINA RESULT:      -8.5      0.000      0.000
REMARK  Name = 
REMARK  5 active torsions:
REMARK  status: ('A' for Active; 'I' for Inactive)
REMARK    1  A    between atoms: C_1  and  C_2
REMARK    2  A    between atoms: C_4  and  C_5
REMARK    3  A    between atoms: C_6  and  C_7
REMARK    4  A    between atoms: C_7  and  N_8
REMARK    5  A    between atoms: C_9  and  C_11
REMARK                            x       y       z     vdW  Elec       q    Type
REMARK                         _______ _______ _______ _____ _____    ______ ____
ROOT
ATOM      1  C   UNL     1       2.210   7.278  19.501  0.00  0.00    +0.000 A 
ATOM      2  C   UNL     1       1.937   7.852  18.243  0.00  0.00    +0.000 A 
ATOM      3  C   UNL     1       1.553   9.173  18.138  0.00  0.00    +0.000 A 
ATOM      4  C   UNL     1       1.297   9.860  19.303  0.00  0.00    +0.000 A 
ATOM      5  C   UNL     1       1.398  11.302  19.358  0.00  0.00    +0.000 A 
ATOM      6  O   UNL     1       2.215  11.878  18.651  0.00  0.00    +0.000 OA
ATOM      7  N   UNL     1       0.549  11.900  20.256  0.00  0.00    +0.000 N 
ATOM      8  C   UNL     1      -0.268  11.128  21.054  0.00  0.00    +0.000 A 
ATOM      9  N   UNL     1       0.053   9.874  21.343  0.00  0.00    +0.000 NA
ATOM     10  C   UNL     1       1.060   9.236  20.508  0.00  0.00    +0.000 A 
ATOM     11  C   UNL     1       1.674   7.951  20.652  0.00  0.00    +0.000 A 
ATOM     12  C   UNL     1      -1.553  11.854  21.583  0.00  0.00    +0.000 C 
ATOM     13  C   UNL     1      -2.451  12.739  20.638  0.00  0.00    +0.000 C 
ATOM     14  C   UNL     1      -1.880  13.972  19.908  0.00  0.00    +0.000 C 
ATOM     15  C   UNL     1      -0.602  13.680  19.154  0.00  0.00    +0.000 C 
ATOM     16  C   UNL     1       0.469  13.340  20.172  0.00  0.00    +0.000 C 
ENDROOT
BRANCH   1  18
ATOM     17  N   UNL     1       4.455   6.047  19.455  0.00  0.00    +0.000 N 
ATOM     18  C   UNL     1       3.073   6.014  19.358  0.00  0.00    +0.000 C 
ATOM     19  O   UNL     1       2.508   4.955  19.077  0.00  0.00    +0.000 OA
ATOM     20  H   UNL     1       4.933   6.909  19.634  0.00  0.00    +0.000 HD
BRANCH  17  21
ATOM     21  C   UNL     1       5.296   4.865  19.085  0.00  0.00    +0.000 C 
BRANCH  21  27
ATOM     22  C   UNL     1       7.375   4.962  13.581  0.00  0.00    +0.000 C 
ATOM     23  C   UNL     1       6.800   4.899  14.976  0.00  0.00    +0.000 A 
ATOM     24  C   UNL     1       5.732   4.156  15.273  0.00  0.00    +0.000 A 
ATOM     25  C   UNL     1       5.180   4.098  16.604  0.00  0.00    +0.000 A 
ATOM     26  C   UNL     1       3.966   3.243  16.741  0.00  0.00    +0.000 C 
ATOM     27  C   UNL     1       5.733   4.793  17.616  0.00  0.00    +0.000 A 
ATOM     28  C   UNL     1       6.934   5.634  17.287  0.00  0.00    +0.000 A 
ATOM     29  O   UNL     1       7.511   6.310  18.132  0.00  0.00    +0.000 OA
ATOM     30  N   UNL     1       7.386   5.623  15.971  0.00  0.00    +0.000 N 
ATOM     31  H   UNL     1       8.195   6.204  15.772  0.00  0.00    +0.000 HD
ENDBRANCH  21  27
ENDBRANCH  17  21
ENDBRANCH   1  18
TORSDOF 3
ENDMDL
MODEL 2
REMARK VINA RESULT:      -8.5      5.999      7.644
REMARK  Name = 
REMARK  5 active torsions:
REMARK  status: ('A' for Active; 'I' for Inactive)
REMARK    1  A    between atoms: C_1  and  C_2
REMARK    2  A    between atoms: C_4  and  C_5
REMARK    3  A    between atoms: C_6  and  C_7
REMARK    4  A    between atoms: C_7  and  N_8
REMARK    5  A    between atoms: C_9  and  C_11
REMARK                            x       y       z     vdW  Elec       q    Type
REMARK                         _______ _______ _______ _____ _____    ______ ____
ROOT
ATOM      1  C   UNL     1       8.335   9.055  18.337  0.00  0.00    +0.000 A 
ATOM      2  C   UNL     1       7.815  10.038  17.472  0.00  0.00    +0.000 A 
ATOM      3  C   UNL     1       8.333  11.316  17.464  0.00  0.00    +0.000 A 
ATOM      4  C   UNL     1       9.259  11.638  18.429  0.00  0.00    +0.000 A 
ATOM      5  C   UNL     1      10.214  12.706  18.223  0.00  0.00    +0.000 A 
ATOM      6  O   UNL     1      10.623  12.941  17.092  0.00  0.00    +0.000 OA
ATOM      7  N   UNL     1      10.601  13.355  19.368  0.00  0.00    +0.000 N 
ATOM      8  C   UNL     1      10.127  12.938  20.593  0.00  0.00    +0.000 A 
ATOM      9  N   UNL     1       9.717  11.689  20.773  0.00  0.00    +0.000 NA
ATOM     10  C   UNL     1       9.431  10.905  19.582  0.00  0.00    +0.000 A 
ATOM     11  C   UNL     1       9.087   9.519  19.470  0.00  0.00    +0.000 A 
ATOM     12  C   UNL     1      10.135  14.034  21.715  0.00  0.00    +0.000 C 
ATOM     13  C   UNL     1       9.626  15.500  21.441  0.00  0.00    +0.000 C 
ATOM     14  C   UNL     1      10.277  16.391  20.365  0.00  0.00    +0.000 C 
ATOM     15  C   UNL     1      10.398  15.710  19.020  0.00  0.00    +0.000 C 
ATOM     16  C   UNL     1      11.374  14.560  19.169  0.00  0.00    +0.000 C 
ENDROOT
BRANCH   1  18
ATOM     17  N   UNL     1       7.958   6.548  18.699  0.00  0.00    +0.000 N 
ATOM     18  C   UNL     1       7.982   7.641  17.847  0.00  0.00    +0.000 C 
ATOM     19  O   UNL     1       7.787   7.477  16.642  0.00  0.00    +0.000 OA
ATOM     20  H   UNL     1       8.164   6.657  19.674  0.00  0.00    +0.000 HD
BRANCH  17  21
ATOM     21  C   UNL     1       7.845   5.150  18.178  0.00  0.00    +0.000 C 
BRANCH  21  27
ATOM     22  C   UNL     1       2.289   3.422  17.304  0.00  0.00    +0.000 C 
ATOM     23  C   UNL     1       3.725   3.860  17.470  0.00  0.00    +0.000 A 
ATOM     24  C   UNL     1       4.570   3.933  16.441  0.00  0.00    +0.000 A 
ATOM     25  C   UNL     1       5.942   4.348  16.599  0.00  0.00    +0.000 A 
ATOM     26  C   UNL     1       6.748   4.337  15.344  0.00  0.00    +0.000 C 
ATOM     27  C   UNL     1       6.429   4.690  17.807  0.00  0.00    +0.000 A 
ATOM     28  C   UNL     1       5.482   4.607  18.971  0.00  0.00    +0.000 A 
ATOM     29  O   UNL     1       5.823   4.891  20.114  0.00  0.00    +0.000 OA
ATOM     30  N   UNL     1       4.179   4.193  18.711  0.00  0.00    +0.000 N 
ATOM     31  H   UNL     1       3.560   4.138  19.514  0.00  0.00    +0.000 HD
ENDBRANCH  21  27
ENDBRANCH  17  21
ENDBRANCH   1  18
TORSDOF 3
ENDMDL
MODEL 3
REMARK VINA RESULT:      -8.5      3.239      4.899
REMARK  Name = 
REMARK  5 active torsions:
REMARK  status: ('A' for Active; 'I' for Inactive)
REMARK    1  A    between atoms: C_1  and  C_2
REMARK    2  A    between atoms: C_4  and  C_5
REMARK    3  A    between atoms: C_6  and  C_7
REMARK    4  A    between atoms: C_7  and  N_8
REMARK    5  A    between atoms: C_9  and  C_11
REMARK                            x       y       z     vdW  Elec       q    Type
REMARK                         _______ _______ _______ _____ _____    ______ ____
ROOT
ATOM      1  C   UNL     1      -0.133  10.368  18.371  0.00  0.00    +0.000 A 
ATOM      2  C   UNL     1      -1.029   9.430  17.817  0.00  0.00    +0.000 A 
ATOM      3  C   UNL     1      -2.357   9.750  17.627  0.00  0.00    +0.000 A 
ATOM      4  C   UNL     1      -2.806  10.947  18.137  0.00  0.00    +0.000 A 
ATOM      5  C   UNL     1      -3.970  11.606  17.583  0.00  0.00    +0.000 A 
ATOM      6  O   UNL     1      -4.221  11.487  16.390  0.00  0.00    +0.000 OA
ATOM      7  N   UNL     1      -4.688  12.350  18.485  0.00  0.00    +0.000 N 
ATOM      8  C   UNL     1      -4.251  12.468  19.787  0.00  0.00    +0.000 A 
ATOM      9  N   UNL     1      -2.969  12.314  20.090  0.00  0.00    +0.000 NA
ATOM     10  C   UNL     1      -2.127  11.658  19.102  0.00  0.00    +0.000 A 
ATOM     11  C   UNL     1      -0.709  11.458  19.108  0.00  0.00    +0.000 A 
ATOM     12  C   UNL     1      -5.369  12.810  20.832  0.00  0.00    +0.000 C 
ATOM     13  C   UNL     1      -6.761  12.070  20.825  0.00  0.00    +0.000 C 
ATOM     14  C   UNL     1      -7.692  12.118  19.597  0.00  0.00    +0.000 C 
ATOM     15  C   UNL     1      -6.995  11.755  18.306  0.00  0.00    +0.000 C 
ATOM     16  C   UNL     1      -5.967  12.831  18.016  0.00  0.00    +0.000 C 
ENDROOT
BRANCH   1  18
ATOM     17  N   UNL     1       1.720   8.709  17.761  0.00  0.00    +0.000 N 
ATOM     18  C   UNL     1       1.324  10.008  18.035  0.00  0.00    +0.000 C 
ATOM     19  O   UNL     1       2.168  10.904  18.087  0.00  0.00    +0.000 OA
ATOM     20  H   UNL     1       1.054   7.961  17.765  0.00  0.00    +0.000 HD
BRANCH  17  21
ATOM     21  C   UNL     1       3.166   8.334  17.668  0.00  0.00    +0.000 C 
BRANCH  21  27
ATOM     22  C   UNL     1       4.131   2.790  19.388  0.00  0.00    +0.000 C 
ATOM     23  C   UNL     1       3.916   4.202  18.898  0.00  0.00    +0.000 A 
ATOM     24  C   UNL     1       4.461   4.655  17.768  0.00  0.00    +0.000 A 
ATOM     25  C   UNL     1       4.260   6.004  17.301  0.00  0.00    +0.000 A 
ATOM     26  C   UNL     1       4.974   6.343  16.037  0.00  0.00    +0.000 C 
ATOM     27  C   UNL     1       3.496   6.871  17.993  0.00  0.00    +0.000 A 
ATOM     28  C   UNL     1       2.881   6.368  19.269  0.00  0.00    +0.000 A 
ATOM     29  O   UNL     1       2.173   7.076  19.977  0.00  0.00    +0.000 OA
ATOM     30  N   UNL     1       3.140   5.050  19.631  0.00  0.00    +0.000 N 
ATOM     31  H   UNL     1       2.720   4.736  20.501  0.00  0.00    +0.000 HD
ENDBRANCH  21  27
ENDBRANCH  17  21
ENDBRANCH   1  18
TORSDOF 3
ENDMDL
MODEL 4
REMARK VINA RESULT:      -8.4      3.188      9.593
REMARK  Name = 
REMARK  5 active torsions:
REMARK  status: ('A' for Active; 'I' for Inactive)
REMARK    1  A    between atoms: C_1  and  C_2
REMARK    2  A    between atoms: C_4  and  C_5
REMARK    3  A    between atoms: C_6  and  C_7
REMARK    4  A    between atoms: C_7  and  N_8
REMARK    5  A    between atoms: C_9  and  C_11
REMARK                            x       y       z     vdW  Elec       q    Type
REMARK                         _______ _______ _______ _____ _____    ______ ____
ROOT
ATOM      1  C   UNL     1       1.591   8.488  19.354  0.00  0.00    +0.000 A 
ATOM      2  C   UNL     1       2.223   8.169  18.135  0.00  0.00    +0.000 A 
ATOM      3  C   UNL     1       2.401   6.855  17.755  0.00  0.00    +0.000 A 
ATOM      4  C   UNL     1       2.086   5.876  18.669  0.00  0.00    +0.000 A 
ATOM      5  C   UNL     1       1.743   4.536  18.242  0.00  0.00    +0.000 A 
ATOM      6  O   UNL     1       1.171   4.372  17.171  0.00  0.00    +0.000 OA
ATOM      7  N   UNL     1       2.083   3.548  19.131  0.00  0.00    +0.000 N 
ATOM      8  C   UNL     1       2.652   3.876  20.343  0.00  0.00    +0.000 A 
ATOM      9  N   UNL     1       2.451   5.069  20.888  0.00  0.00    +0.000 NA
ATOM     10  C   UNL     1       1.948   6.120  20.018  0.00  0.00    +0.000 A 
ATOM     11  C   UNL     1       1.539   7.452  20.348  0.00  0.00    +0.000 A 
ATOM     12  C   UNL     1       3.509   2.740  21.001  0.00  0.00    +0.000 C 
ATOM     13  C   UNL     1       4.543   1.895  20.164  0.00  0.00    +0.000 C 
ATOM     14  C   UNL     1       4.100   1.056  18.949  0.00  0.00    +0.000 C 
ATOM     15  C   UNL     1       3.265   1.835  17.958  0.00  0.00    +0.000 C 
ATOM     16  C   UNL     1       1.958   2.197  18.637  0.00  0.00    +0.000 C 
ENDROOT
BRANCH   1  18
ATOM     17  N   UNL     1      -0.201  10.258  19.816  0.00  0.00    +0.000 N 
ATOM     18  C   UNL     1       1.059   9.931  19.343  0.00  0.00    +0.000 C 
ATOM     19  O   UNL     1       1.760  10.802  18.826  0.00  0.00    +0.000 OA
ATOM     20  H   UNL     1      -0.803   9.551  20.194  0.00  0.00    +0.000 HD
BRANCH  17  21
ATOM     21  C   UNL     1      -0.798  11.612  19.589  0.00  0.00    +0.000 C 
BRANCH  21  27
ATOM     22  C   UNL     1      -6.373  11.992  17.747  0.00  0.00    +0.000 C 
ATOM     23  C   UNL     1      -4.930  11.859  18.174  0.00  0.00    +0.000 A 
ATOM     24  C   UNL     1      -4.057  11.103  17.507  0.00  0.00    +0.000 A 
ATOM     25  C   UNL     1      -2.681  10.972  17.915  0.00  0.00    +0.000 A 
ATOM     26  C   UNL     1      -1.860  10.058  17.069  0.00  0.00    +0.000 C 
ATOM     27  C   UNL     1      -2.213  11.624  18.997  0.00  0.00    +0.000 A 
ATOM     28  C   UNL     1      -3.192  12.475  19.755  0.00  0.00    +0.000 A 
ATOM     29  O   UNL     1      -2.872  13.106  20.756  0.00  0.00    +0.000 OA
ATOM     30  N   UNL     1      -4.498  12.531  19.278  0.00  0.00    +0.000 N 
ATOM     31  H   UNL     1      -5.143  13.107  19.811  0.00  0.00    +0.000 HD
ENDBRANCH  21  27
ENDBRANCH  17  21
ENDBRANCH   1  18
TORSDOF 3
ENDMDL
MODEL 5
REMARK VINA RESULT:      -8.4      6.355      8.104
REMARK  Name = 
REMARK  5 active torsions:
REMARK  status: ('A' for Active; 'I' for Inactive)
REMARK    1  A    between atoms: C_1  and  C_2
REMARK    2  A    between atoms: C_4  and  C_5
REMARK    3  A    between atoms: C_6  and  C_7
REMARK    4  A    between atoms: C_7  and  N_8
REMARK    5  A    between atoms: C_9  and  C_11
REMARK                            x       y       z     vdW  Elec       q    Type
REMARK                         _______ _______ _______ _____ _____    ______ ____
ROOT
ATOM      1  C   UNL     1       8.507   9.554  18.508  0.00  0.00    +0.000 A 
ATOM      2  C   UNL     1       7.971  10.488  17.599  0.00  0.00    +0.000 A 
ATOM      3  C   UNL     1       8.510  11.752  17.486  0.00  0.00    +0.000 A 
ATOM      4  C   UNL     1       9.478  12.119  18.392  0.00  0.00    +0.000 A 
ATOM      5  C   UNL     1      10.443  13.151  18.079  0.00  0.00    +0.000 A 
ATOM      6  O   UNL     1      10.811  13.302  16.921  0.00  0.00    +0.000 OA
ATOM      7  N   UNL     1      10.885  13.867  19.163  0.00  0.00    +0.000 N 
ATOM      8  C   UNL     1      10.451  13.541  20.430  0.00  0.00    +0.000 A 
ATOM      9  N   UNL     1      10.027  12.315  20.709  0.00  0.00    +0.000 NA
ATOM     10  C   UNL     1       9.682  11.460  19.584  0.00  0.00    +0.000 A 
ATOM     11  C   UNL     1       9.310  10.077  19.578  0.00  0.00    +0.000 A 
ATOM     12  C   UNL     1      10.522  14.708  21.475  0.00  0.00    +0.000 C 
ATOM     13  C   UNL     1      10.028  16.163  21.124  0.00  0.00    +0.000 C 
ATOM     14  C   UNL     1      10.652  16.967  19.966  0.00  0.00    +0.000 C 
ATOM     15  C   UNL     1      10.709  16.197  18.666  0.00  0.00    +0.000 C 
ATOM     16  C   UNL     1      11.670  15.040  18.855  0.00  0.00    +0.000 C 
ENDROOT
BRANCH   1  18
ATOM     17  N   UNL     1       7.237   7.843  17.087  0.00  0.00    +0.000 N 
ATOM     18  C   UNL     1       8.111   8.118  18.127  0.00  0.00    +0.000 C 
ATOM     19  O   UNL     1       8.535   7.195  18.824  0.00  0.00    +0.000 OA
ATOM     20  H   UNL     1       6.844   8.587  16.542  0.00  0.00    +0.000 HD
BRANCH  17  21
ATOM     21  C   UNL     1       6.677   6.472  16.874  0.00  0.00    +0.000 C 
BRANCH  21  27
ATOM     22  C   UNL     1       2.560   4.536  20.606  0.00  0.00    +0.000 C 
ATOM     23  C   UNL     1       3.579   5.075  19.630  0.00  0.00    +0.000 A 
ATOM     24  C   UNL     1       3.318   6.106  18.825  0.00  0.00    +0.000 A 
ATOM     25  C   UNL     1       4.289   6.619  17.889  0.00  0.00    +0.000 A 
ATOM     26  C   UNL     1       3.810   7.752  17.048  0.00  0.00    +0.000 C 
ATOM     27  C   UNL     1       5.518   6.075  17.798  0.00  0.00    +0.000 A 
ATOM     28  C   UNL     1       5.817   4.912  18.700  0.00  0.00    +0.000 A 
ATOM     29  O   UNL     1       6.902   4.341  18.694  0.00  0.00    +0.000 OA
ATOM     30  N   UNL     1       4.810   4.493  19.564  0.00  0.00    +0.000 N 
ATOM     31  H   UNL     1       5.033   3.701  20.159  0.00  0.00    +0.000 HD
ENDBRANCH  21  27
ENDBRANCH  17  21
ENDBRANCH   1  18
TORSDOF 3
ENDMDL
MODEL 6
REMARK VINA RESULT:      -8.3      3.124      9.981
REMARK  Name = 
REMARK  5 active torsions:
REMARK  status: ('A' for Active; 'I' for Inactive)
REMARK    1  A    between atoms: C_1  and  C_2
REMARK    2  A    between atoms: C_4  and  C_5
REMARK    3  A    between atoms: C_6  and  C_7
REMARK    4  A    between atoms: C_7  and  N_8
REMARK    5  A    between atoms: C_9  and  C_11
REMARK                            x       y       z     vdW  Elec       q    Type
REMARK                         _______ _______ _______ _____ _____    ______ ____
ROOT
ATOM      1  C   UNL     1       1.575   8.496  19.575  0.00  0.00    +0.000 A 
ATOM      2  C   UNL     1       2.198   8.243  18.337  0.00  0.00    +0.000 A 
ATOM      3  C   UNL     1       2.372   6.951  17.885  0.00  0.00    +0.000 A 
ATOM      4  C   UNL     1       2.061   5.924  18.748  0.00  0.00    +0.000 A 
ATOM      5  C   UNL     1       1.713   4.610  18.252  0.00  0.00    +0.000 A 
ATOM      6  O   UNL     1       1.134   4.504  17.178  0.00  0.00    +0.000 OA
ATOM      7  N   UNL     1       2.058   3.575  19.084  0.00  0.00    +0.000 N 
ATOM      8  C   UNL     1       2.635   3.837  20.309  0.00  0.00    +0.000 A 
ATOM      9  N   UNL     1       2.439   4.999  20.918  0.00  0.00    +0.000 NA
ATOM     10  C   UNL     1       1.933   6.096  20.109  0.00  0.00    +0.000 A 
ATOM     11  C   UNL     1       1.528   7.409  20.513  0.00  0.00    +0.000 A 
ATOM     12  C   UNL     1       3.495   2.665  20.899  0.00  0.00    +0.000 C 
ATOM     13  C   UNL     1       4.521   1.865  20.010  0.00  0.00    +0.000 C 
ATOM     14  C   UNL     1       4.068   1.093  18.755  0.00  0.00    +0.000 C 
ATOM     15  C   UNL     1       3.228   1.926  17.813  0.00  0.00    +0.000 C 
ATOM     16  C   UNL     1       1.927   2.253  18.519  0.00  0.00    +0.000 C 
ENDROOT
BRANCH   1  18
ATOM     17  N   UNL     1      -0.109  10.269  20.334  0.00  0.00    +0.000 N 
ATOM     18  C   UNL     1       1.047   9.938  19.645  0.00  0.00    +0.000 C 
ATOM     19  O   UNL     1       1.641  10.806  19.003  0.00  0.00    +0.000 OA
ATOM     20  H   UNL     1      -0.632   9.566  20.821  0.00  0.00    +0.000 HD
BRANCH  17  21
ATOM     21  C   UNL     1      -0.741  11.620  20.205  0.00  0.00    +0.000 C 
BRANCH  21  27
ATOM     22  C   UNL     1      -4.452  12.743  24.631  0.00  0.00    +0.000 C 
ATOM     23  C   UNL     1      -3.540  12.475  23.457  0.00  0.00    +0.000 A 
ATOM     24  C   UNL     1      -3.916  12.702  22.197  0.00  0.00    +0.000 A 
ATOM     25  C   UNL     1      -3.048  12.442  21.075  0.00  0.00    +0.000 A 
ATOM     26  C   UNL     1      -3.649  12.725  19.740  0.00  0.00    +0.000 C 
ATOM     27  C   UNL     1      -1.804  11.961  21.258  0.00  0.00    +0.000 A 
ATOM     28  C   UNL     1      -1.375  11.700  22.674  0.00  0.00    +0.000 A 
ATOM     29  O   UNL     1      -0.266  11.258  22.951  0.00  0.00    +0.000 OA
ATOM     30  N   UNL     1      -2.290  11.982  23.684  0.00  0.00    +0.000 N 
ATOM     31  H   UNL     1      -1.980  11.791  24.632  0.00  0.00    +0.000 HD
ENDBRANCH  21  27
ENDBRANCH  17  21
ENDBRANCH   1  18
TORSDOF 3
ENDMDL
MODEL 7
REMARK VINA RESULT:      -8.3      3.193      9.772
REMARK  Name = 
REMARK  5 active torsions:
REMARK  status: ('A' for Active; 'I' for Inactive)
REMARK    1  A    between atoms: C_1  and  C_2
REMARK    2  A    between atoms: C_4  and  C_5
REMARK    3  A    between atoms: C_6  and  C_7
REMARK    4  A    between atoms: C_7  and  N_8
REMARK    5  A    between atoms: C_9  and  C_11
REMARK                            x       y       z     vdW  Elec       q    Type
REMARK                         _______ _______ _______ _____ _____    ______ ____
ROOT
ATOM      1  C   UNL     1       1.461   8.324  19.949  0.00  0.00    +0.000 A 
ATOM      2  C   UNL     1       2.144   8.163  18.727  0.00  0.00    +0.000 A 
ATOM      3  C   UNL     1       2.367   6.907  18.203  0.00  0.00    +0.000 A 
ATOM      4  C   UNL     1       2.043   5.821  18.984  0.00  0.00    +0.000 A 
ATOM      5  C   UNL     1       1.748   4.534  18.391  0.00  0.00    +0.000 A 
ATOM      6  O   UNL     1       1.219   4.486  17.287  0.00  0.00    +0.000 OA
ATOM      7  N   UNL     1       2.080   3.456  19.171  0.00  0.00    +0.000 N 
ATOM      8  C   UNL     1       2.596   3.650  20.434  0.00  0.00    +0.000 A 
ATOM      9  N   UNL     1       2.347   4.766  21.106  0.00  0.00    +0.000 NA
ATOM     10  C   UNL     1       1.851   5.903  20.346  0.00  0.00    +0.000 A 
ATOM     11  C   UNL     1       1.398   7.178  20.814  0.00  0.00    +0.000 A 
ATOM     12  C   UNL     1       3.457   2.461  20.987  0.00  0.00    +0.000 C 
ATOM     13  C   UNL     1       4.540   1.741  20.097  0.00  0.00    +0.000 C 
ATOM     14  C   UNL     1       4.161   1.042  18.776  0.00  0.00    +0.000 C 
ATOM     15  C   UNL     1       3.343   1.916  17.852  0.00  0.00    +0.000 C 
ATOM     16  C   UNL     1       2.005   2.169  18.518  0.00  0.00    +0.000 C 
ENDROOT
BRANCH   1  18
ATOM     17  N   UNL     1       0.242  10.387  19.045  0.00  0.00    +0.000 N 
ATOM     18  C   UNL     1       0.896   9.747  20.087  0.00  0.00    +0.000 C 
ATOM     19  O   UNL     1       1.103  10.354  21.139  0.00  0.00    +0.000 OA
ATOM     20  H   UNL     1       0.110   9.925  18.166  0.00  0.00    +0.000 HD
BRANCH  17  21
ATOM     21  C   UNL     1      -0.094  11.844  19.107  0.00  0.00    +0.000 C 
BRANCH  21  27
ATOM     22  C   UNL     1      -5.767  12.962  20.200  0.00  0.00    +0.000 C 
ATOM     23  C   UNL     1      -4.298  12.693  19.974  0.00  0.00    +0.000 A 
ATOM     24  C   UNL     1      -3.377  12.944  20.906  0.00  0.00    +0.000 A 
ATOM     25  C   UNL     1      -1.973  12.692  20.690  0.00  0.00    +0.000 A 
ATOM     26  C   UNL     1      -1.088  13.065  21.830  0.00  0.00    +0.000 C 
ATOM     27  C   UNL     1      -1.532  12.177  19.527  0.00  0.00    +0.000 A 
ATOM     28  C   UNL     1      -2.564  11.895  18.471  0.00  0.00    +0.000 A 
ATOM     29  O   UNL     1      -2.269  11.431  17.375  0.00  0.00    +0.000 OA
ATOM     30  N   UNL     1      -3.891  12.177  18.780  0.00  0.00    +0.000 N 
ATOM     31  H   UNL     1      -4.569  11.984  18.049  0.00  0.00    +0.000 HD
ENDBRANCH  21  27
ENDBRANCH  17  21
ENDBRANCH   1  18
TORSDOF 3
ENDMDL
MODEL 8
REMARK VINA RESULT:      -8.3      3.275      5.435
REMARK  Name = 
REMARK  5 active torsions:
REMARK  status: ('A' for Active; 'I' for Inactive)
REMARK    1  A    between atoms: C_1  and  C_2
REMARK    2  A    between atoms: C_4  and  C_5
REMARK    3  A    between atoms: C_6  and  C_7
REMARK    4  A    between atoms: C_7  and  N_8
REMARK    5  A    between atoms: C_9  and  C_11
REMARK                            x       y       z     vdW  Elec       q    Type
REMARK                         _______ _______ _______ _____ _____    ______ ____
ROOT
ATOM      1  C   UNL     1      -0.177  10.615  18.146  0.00  0.00    +0.000 A 
ATOM      2  C   UNL     1      -0.065  11.955  18.570  0.00  0.00    +0.000 A 
ATOM      3  C   UNL     1      -1.155  12.625  19.086  0.00  0.00    +0.000 A 
ATOM      4  C   UNL     1      -2.379  11.998  19.026  0.00  0.00    +0.000 A 
ATOM      5  C   UNL     1      -3.440  12.339  19.949  0.00  0.00    +0.000 A 
ATOM      6  O   UNL     1      -3.159  12.701  21.085  0.00  0.00    +0.000 OA
ATOM      7  N   UNL     1      -4.707  12.191  19.443  0.00  0.00    +0.000 N 
ATOM      8  C   UNL     1      -4.888  11.696  18.169  0.00  0.00    +0.000 A 
ATOM      9  N   UNL     1      -3.970  10.926  17.603  0.00  0.00    +0.000 NA
ATOM     10  C   UNL     1      -2.640  10.933  18.192  0.00  0.00    +0.000 A 
ATOM     11  C   UNL     1      -1.500  10.131  17.866  0.00  0.00    +0.000 A 
ATOM     12  C   UNL     1      -6.243  12.100  17.489  0.00  0.00    +0.000 C 
ATOM     13  C   UNL     1      -6.787  13.578  17.546  0.00  0.00    +0.000 C 
ATOM     14  C   UNL     1      -7.087  14.275  18.888  0.00  0.00    +0.000 C 
ATOM     15  C   UNL     1      -5.943  14.190  19.873  0.00  0.00    +0.000 C 
ATOM     16  C   UNL     1      -5.769  12.734  20.258  0.00  0.00    +0.000 C 
ENDROOT
BRANCH   1  18
ATOM     17  N   UNL     1       1.343   8.566  17.930  0.00  0.00    +0.000 N 
ATOM     18  C   UNL     1       1.201   9.935  18.091  0.00  0.00    +0.000 C 
ATOM     19  O   UNL     1       2.200  10.633  18.268  0.00  0.00    +0.000 OA
ATOM     20  H   UNL     1       0.537   7.977  17.834  0.00  0.00    +0.000 HD
BRANCH  17  21
ATOM     21  C   UNL     1       2.665   7.887  18.111  0.00  0.00    +0.000 C 
BRANCH  21  27
ATOM     22  C   UNL     1       2.322   3.150  21.584  0.00  0.00    +0.000 C 
ATOM     23  C   UNL     1       2.435   4.332  20.651  0.00  0.00    +0.000 A 
ATOM     24  C   UNL     1       2.987   4.234  19.441  0.00  0.00    +0.000 A 
ATOM     25  C   UNL     1       3.100   5.363  18.550  0.00  0.00    +0.000 A 
ATOM     26  C   UNL     1       3.776   5.073  17.254  0.00  0.00    +0.000 C 
ATOM     27  C   UNL     1       2.637   6.576  18.907  0.00  0.00    +0.000 A 
ATOM     28  C   UNL     1       2.015   6.694  20.270  0.00  0.00    +0.000 A 
ATOM     29  O   UNL     1       1.567   7.753  20.695  0.00  0.00    +0.000 OA
ATOM     30  N   UNL     1       1.959   5.544  21.052  0.00  0.00    +0.000 N 
ATOM     31  H   UNL     1       1.540   5.651  21.971  0.00  0.00    +0.000 HD
ENDBRANCH  21  27
ENDBRANCH  17  21
ENDBRANCH   1  18
TORSDOF 3
ENDMDL
MODEL 9
REMARK VINA RESULT:      -8.3      3.151      9.598
REMARK  Name = 
REMARK  5 active torsions:
REMARK  status: ('A' for Active; 'I' for Inactive)
REMARK    1  A    between atoms: C_1  and  C_2
REMARK    2  A    between atoms: C_4  and  C_5
REMARK    3  A    between atoms: C_6  and  C_7
REMARK    4  A    between atoms: C_7  and  N_8
REMARK    5  A    between atoms: C_9  and  C_11
REMARK                            x       y       z     vdW  Elec       q    Type
REMARK                         _______ _______ _______ _____ _____    ______ ____
ROOT
ATOM      1  C   UNL     1       1.680   8.583  19.220  0.00  0.00    +0.000 A 
ATOM      2  C   UNL     1       2.284   8.228  17.997  0.00  0.00    +0.000 A 
ATOM      3  C   UNL     1       2.424   6.904  17.638  0.00  0.00    +0.000 A 
ATOM      4  C   UNL     1       2.102   5.949  18.575  0.00  0.00    +0.000 A 
ATOM      5  C   UNL     1       1.720   4.610  18.178  0.00  0.00    +0.000 A 
ATOM      6  O   UNL     1       1.127   4.440  17.120  0.00  0.00    +0.000 OA
ATOM      7  N   UNL     1       2.052   3.630  19.080  0.00  0.00    +0.000 N 
ATOM      8  C   UNL     1       2.649   3.966  20.276  0.00  0.00    +0.000 A 
ATOM      9  N   UNL     1       2.485   5.173  20.802  0.00  0.00    +0.000 NA
ATOM     10  C   UNL     1       1.993   6.220  19.921  0.00  0.00    +0.000 A 
ATOM     11  C   UNL     1       1.620   7.567  20.235  0.00  0.00    +0.000 A 
ATOM     12  C   UNL     1       3.490   2.821  20.941  0.00  0.00    +0.000 C 
ATOM     13  C   UNL     1       4.489   1.937  20.102  0.00  0.00    +0.000 C 
ATOM     14  C   UNL     1       4.006   1.088  18.909  0.00  0.00    +0.000 C 
ATOM     15  C   UNL     1       3.173   1.869  17.919  0.00  0.00    +0.000 C 
ATOM     16  C   UNL     1       1.887   2.274  18.612  0.00  0.00    +0.000 C 
ENDROOT
BRANCH   1  18
ATOM     17  N   UNL     1       0.002  10.428  19.804  0.00  0.00    +0.000 N 
ATOM     18  C   UNL     1       1.183  10.038  19.192  0.00  0.00    +0.000 C 
ATOM     19  O   UNL     1       1.829  10.859  18.539  0.00  0.00    +0.000 OA
ATOM     20  H   UNL     1      -0.560   9.761  20.298  0.00  0.00    +0.000 HD
BRANCH  17  21
ATOM     21  C   UNL     1      -0.590  11.783  19.576  0.00  0.00    +0.000 C 
BRANCH  21  27
ATOM     22  C   UNL     1      -6.240  11.578  17.943  0.00  0.00    +0.000 C 
ATOM     23  C   UNL     1      -4.805  11.663  18.409  0.00  0.00    +0.000 A 
ATOM     24  C   UNL     1      -4.450  12.344  19.499  0.00  0.00    +0.000 A 
ATOM     25  C   UNL     1      -3.081  12.430  19.943  0.00  0.00    +0.000 A 
ATOM     26  C   UNL     1      -2.868  13.261  21.162  0.00  0.00    +0.000 C 
ATOM     27  C   UNL     1      -2.093  11.809  19.270  0.00  0.00    +0.000 A 
ATOM     28  C   UNL     1      -2.486  11.043  18.038  0.00  0.00    +0.000 A 
ATOM     29  O   UNL     1      -1.666  10.446  17.349  0.00  0.00    +0.000 OA
ATOM     30  N   UNL     1      -3.835  11.026  17.695  0.00  0.00    +0.000 N 
ATOM     31  H   UNL     1      -4.075  10.507  16.856  0.00  0.00    +0.000 HD
ENDBRANCH  21  27
ENDBRANCH  17  21
ENDBRANCH   1  18
TORSDOF 3
ENDMDL
