MODEL 1
REMARK VINA RESULT:      -8.4      0.000      0.000
REMARK  Name = 
REMARK  2 active torsions:
REMARK  status: ('A' for Active; 'I' for Inactive)
REMARK    1  A    between atoms: C_2  and  C_3
REMARK    2  A    between atoms: C_3  and  C_4
REMARK                            x       y       z     vdW  Elec       q    Type
REMARK                         _______ _______ _______ _____ _____    ______ ____
ROOT
ATOM      1  O   UNL     1       0.959   8.900  21.999  0.00  0.00    +0.000 OA
ATOM      2  C   UNL     1       1.341   8.445  20.914  0.00  0.00    +0.000 C 
ATOM      3  N   UNL     1       1.622   7.111  20.849  0.00  0.00    +0.000 N 
ATOM      4  C   UNL     1       2.266   6.398  19.837  0.00  0.00    +0.000 A 
ATOM      5  C   UNL     1       2.246   5.015  19.920  0.00  0.00    +0.000 A 
ATOM      6  C   UNL     1       2.915   4.276  18.949  0.00  0.00    +0.000 A 
ATOM      7  C   UNL     1       3.634   4.938  17.950  0.00  0.00    +0.000 A 
ATOM      8  C   UNL     1       4.375   4.236  16.986  0.00  0.00    +0.000 A 
ATOM      9  C   UNL     1       5.124   4.930  16.036  0.00  0.00    +0.000 A 
ATOM     10  C   UNL     1       5.110   6.321  16.031  0.00  0.00    +0.000 A 
ATOM     11  C   UNL     1       4.349   7.013  16.978  0.00  0.00    +0.000 A 
ATOM     12  C   UNL     1       3.612   6.347  17.948  0.00  0.00    +0.000 A 
ATOM     13  N   UNL     1       2.918   7.052  18.860  0.00  0.00    +0.000 NA
ATOM     14  H   UNL     1       1.387   6.614  21.696  0.00  0.00    +0.000 HD
ENDROOT
BRANCH   2  15
ATOM     15  C   UNL     1       1.403   9.322  19.680  0.00  0.00    +0.000 C 
BRANCH  15  16
ATOM     16  C   UNL     1       0.116   9.969  19.224  0.00  0.00    +0.000 A 
ATOM     17  C   UNL     1      -0.592  10.915  19.978  0.00  0.00    +0.000 A 
ATOM     18  C   UNL     1      -1.781  11.472  19.488  0.00  0.00    +0.000 A 
ATOM     19 CL   UNL     1      -2.594  12.650  20.458  0.00  0.00    +0.000 Cl
ATOM     20  C   UNL     1      -2.283  11.089  18.239  0.00  0.00    +0.000 A 
ATOM     21  C   UNL     1      -1.597  10.123  17.498  0.00  0.00    +0.000 A 
ATOM     22  C   UNL     1      -0.407   9.579  17.979  0.00  0.00    +0.000 A 
ATOM     23  O   UNL     1      -2.019   9.658  16.278  0.00  0.00    +0.000 OA
ATOM     24  C   UNL     1      -3.383  10.010  16.024  0.00  0.00    +0.000 C 
ATOM     25  C   UNL     1      -3.629  11.464  16.384  0.00  0.00    +0.000 C 
ATOM     26  O   UNL     1      -3.444  11.670  17.787  0.00  0.00    +0.000 OA
ENDBRANCH  15  16
ENDBRANCH   2  15
TORSDOF 2
ENDMDL
MODEL 2
REMARK VINA RESULT:      -8.3      2.915      4.217
REMARK  Name = 
REMARK  2 active torsions:
REMARK  status: ('A' for Active; 'I' for Inactive)
REMARK    1  A    between atoms: C_2  and  C_3
REMARK    2  A    between atoms: C_3  and  C_4
REMARK                            x       y       z     vdW  Elec       q    Type
REMARK                         _______ _______ _______ _____ _____    ______ ____
ROOT
ATOM      1  O   UNL     1       0.402   3.771  20.509  0.00  0.00    +0.000 OA
ATOM      2  C   UNL     1       1.448   4.288  20.101  0.00  0.00    +0.000 C 
ATOM      3  N   UNL     1       1.938   3.867  18.898  0.00  0.00    +0.000 N 
ATOM      4  C   UNL     1       3.183   4.116  18.321  0.00  0.00    +0.000 A 
ATOM      5  C   UNL     1       3.360   3.744  16.998  0.00  0.00    +0.000 A 
ATOM      6  C   UNL     1       4.604   3.940  16.407  0.00  0.00    +0.000 A 
ATOM      7  C   UNL     1       5.658   4.452  17.169  0.00  0.00    +0.000 A 
ATOM      8  C   UNL     1       6.947   4.610  16.633  0.00  0.00    +0.000 A 
ATOM      9  C   UNL     1       7.988   5.074  17.437  0.00  0.00    +0.000 A 
ATOM     10  C   UNL     1       7.736   5.406  18.764  0.00  0.00    +0.000 A 
ATOM     11  C   UNL     1       6.444   5.272  19.283  0.00  0.00    +0.000 A 
ATOM     12  C   UNL     1       5.395   4.792  18.511  0.00  0.00    +0.000 A 
ATOM     13  N   UNL     1       4.175   4.648  19.058  0.00  0.00    +0.000 NA
ATOM     14  H   UNL     1       1.318   3.230  18.418  0.00  0.00    +0.000 HD
ENDROOT
BRANCH   2  15
ATOM     15  C   UNL     1       2.110   5.416  20.866  0.00  0.00    +0.000 C 
BRANCH  15  16
ATOM     16  C   UNL     1       1.678   6.826  20.534  0.00  0.00    +0.000 A 
ATOM     17  C   UNL     1       2.058   7.504  19.367  0.00  0.00    +0.000 A 
ATOM     18  C   UNL     1       1.616   8.812  19.128  0.00  0.00    +0.000 A 
ATOM     19 CL   UNL     1       2.101   9.585  17.660  0.00  0.00    +0.000 Cl
ATOM     20  C   UNL     1       0.794   9.465  20.053  0.00  0.00    +0.000 A 
ATOM     21  C   UNL     1       0.439   8.804  21.233  0.00  0.00    +0.000 A 
ATOM     22  C   UNL     1       0.867   7.497  21.464  0.00  0.00    +0.000 A 
ATOM     23  O   UNL     1      -0.338   9.365  22.216  0.00  0.00    +0.000 OA
ATOM     24  C   UNL     1      -0.447  10.782  22.055  0.00  0.00    +0.000 C 
ATOM     25  C   UNL     1      -0.729  11.130  20.605  0.00  0.00    +0.000 C 
ATOM     26  O   UNL     1       0.370  10.742  19.775  0.00  0.00    +0.000 OA
ENDBRANCH  15  16
ENDBRANCH   2  15
TORSDOF 2
ENDMDL
MODEL 3
REMARK VINA RESULT:      -8.3      1.448      2.189
REMARK  Name = 
REMARK  2 active torsions:
REMARK  status: ('A' for Active; 'I' for Inactive)
REMARK    1  A    between atoms: C_2  and  C_3
REMARK    2  A    between atoms: C_3  and  C_4
REMARK                            x       y       z     vdW  Elec       q    Type
REMARK                         _______ _______ _______ _____ _____    ______ ____
ROOT
ATOM      1  O   UNL     1       1.109   8.555  21.982  0.00  0.00    +0.000 OA
ATOM      2  C   UNL     1       1.483   8.141  20.879  0.00  0.00    +0.000 C 
ATOM      3  N   UNL     1       1.754   6.808  20.760  0.00  0.00    +0.000 N 
ATOM      4  C   UNL     1       2.388   6.132  19.717  0.00  0.00    +0.000 A 
ATOM      5  C   UNL     1       2.359   4.746  19.745  0.00  0.00    +0.000 A 
ATOM      6  C   UNL     1       3.018   4.042  18.742  0.00  0.00    +0.000 A 
ATOM      7  C   UNL     1       3.738   4.738  17.768  0.00  0.00    +0.000 A 
ATOM      8  C   UNL     1       4.470   4.070  16.773  0.00  0.00    +0.000 A 
ATOM      9  C   UNL     1       5.220   4.795  15.847  0.00  0.00    +0.000 A 
ATOM     10  C   UNL     1       5.216   6.185  15.898  0.00  0.00    +0.000 A 
ATOM     11  C   UNL     1       4.463   6.845  16.875  0.00  0.00    +0.000 A 
ATOM     12  C   UNL     1       3.726   6.146  17.822  0.00  0.00    +0.000 A 
ATOM     13  N   UNL     1       3.041   6.819  18.764  0.00  0.00    +0.000 NA
ATOM     14  H   UNL     1       1.519   6.279  21.587  0.00  0.00    +0.000 HD
ENDROOT
BRANCH   2  15
ATOM     15  C   UNL     1       1.546   9.065  19.680  0.00  0.00    +0.000 C 
BRANCH  15  16
ATOM     16  C   UNL     1       0.279   9.799  19.303  0.00  0.00    +0.000 A 
ATOM     17  C   UNL     1      -0.358   9.669  18.061  0.00  0.00    +0.000 A 
ATOM     18  C   UNL     1      -1.531  10.382  17.784  0.00  0.00    +0.000 A 
ATOM     19 CL   UNL     1      -2.280  10.161  16.242  0.00  0.00    +0.000 Cl
ATOM     20  C   UNL     1      -2.084  11.240  18.742  0.00  0.00    +0.000 A 
ATOM     21  C   UNL     1      -1.435  11.397  19.970  0.00  0.00    +0.000 A 
ATOM     22  C   UNL     1      -0.274  10.676  20.251  0.00  0.00    +0.000 A 
ATOM     23  O   UNL     1      -1.878  12.233  20.964  0.00  0.00    +0.000 OA
ATOM     24  C   UNL     1      -2.854  13.159  20.476  0.00  0.00    +0.000 C 
ATOM     25  C   UNL     1      -3.872  12.444  19.607  0.00  0.00    +0.000 C 
ATOM     26  O   UNL     1      -3.245  11.910  18.437  0.00  0.00    +0.000 OA
ENDBRANCH  15  16
ENDBRANCH   2  15
TORSDOF 2
ENDMDL
MODEL 4
REMARK VINA RESULT:      -8.3      3.466      7.931
REMARK  Name = 
REMARK  2 active torsions:
REMARK  status: ('A' for Active; 'I' for Inactive)
REMARK    1  A    between atoms: C_2  and  C_3
REMARK    2  A    between atoms: C_3  and  C_4
REMARK                            x       y       z     vdW  Elec       q    Type
REMARK                         _______ _______ _______ _____ _____    ______ ____
ROOT
ATOM      1  O   UNL     1       2.107   8.157  20.542  0.00  0.00    +0.000 OA
ATOM      2  C   UNL     1       1.444   8.692  19.646  0.00  0.00    +0.000 C 
ATOM      3  N   UNL     1       0.464   9.566  20.019  0.00  0.00    +0.000 N 
ATOM      4  C   UNL     1      -0.553  10.127  19.244  0.00  0.00    +0.000 A 
ATOM      5  C   UNL     1      -1.299  11.147  19.813  0.00  0.00    +0.000 A 
ATOM      6  C   UNL     1      -2.347  11.698  19.082  0.00  0.00    +0.000 A 
ATOM      7  C   UNL     1      -2.660  11.178  17.824  0.00  0.00    +0.000 A 
ATOM      8  C   UNL     1      -3.747  11.659  17.076  0.00  0.00    +0.000 A 
ATOM      9  C   UNL     1      -4.063  11.081  15.847  0.00  0.00    +0.000 A 
ATOM     10  C   UNL     1      -3.279  10.044  15.353  0.00  0.00    +0.000 A 
ATOM     11  C   UNL     1      -2.182   9.588  16.090  0.00  0.00    +0.000 A 
ATOM     12  C   UNL     1      -1.858  10.131  17.326  0.00  0.00    +0.000 A 
ATOM     13  N   UNL     1      -0.814   9.641  18.018  0.00  0.00    +0.000 NA
ATOM     14  H   UNL     1       0.455   9.755  21.011  0.00  0.00    +0.000 HD
ENDROOT
BRANCH   2  15
ATOM     15  C   UNL     1       1.773   8.456  18.186  0.00  0.00    +0.000 C 
BRANCH  15  16
ATOM     16  C   UNL     1       2.628   7.255  17.854  0.00  0.00    +0.000 A 
ATOM     17  C   UNL     1       2.225   5.929  18.060  0.00  0.00    +0.000 A 
ATOM     18  C   UNL     1       3.075   4.866  17.726  0.00  0.00    +0.000 A 
ATOM     19 CL   UNL     1       2.509   3.253  17.985  0.00  0.00    +0.000 Cl
ATOM     20  C   UNL     1       4.342   5.112  17.186  0.00  0.00    +0.000 A 
ATOM     21  C   UNL     1       4.761   6.434  17.008  0.00  0.00    +0.000 A 
ATOM     22  C   UNL     1       3.909   7.491  17.327  0.00  0.00    +0.000 A 
ATOM     23  O   UNL     1       5.992   6.783  16.513  0.00  0.00    +0.000 OA
ATOM     24  C   UNL     1       6.899   5.676  16.531  0.00  0.00    +0.000 C 
ATOM     25  C   UNL     1       6.218   4.427  16.000  0.00  0.00    +0.000 C 
ATOM     26  O   UNL     1       5.140   4.042  16.857  0.00  0.00    +0.000 OA
ENDBRANCH  15  16
ENDBRANCH   2  15
TORSDOF 2
ENDMDL
MODEL 5
REMARK VINA RESULT:      -8.3      2.099      3.940
REMARK  Name = 
REMARK  2 active torsions:
REMARK  status: ('A' for Active; 'I' for Inactive)
REMARK    1  A    between atoms: C_2  and  C_3
REMARK    2  A    between atoms: C_3  and  C_4
REMARK                            x       y       z     vdW  Elec       q    Type
REMARK                         _______ _______ _______ _____ _____    ______ ____
ROOT
ATOM      1  O   UNL     1       2.228   9.989  17.498  0.00  0.00    +0.000 OA
ATOM      2  C   UNL     1       2.269   8.924  18.125  0.00  0.00    +0.000 C 
ATOM      3  N   UNL     1       3.038   7.917  17.617  0.00  0.00    +0.000 N 
ATOM      4  C   UNL     1       3.086   6.575  17.994  0.00  0.00    +0.000 A 
ATOM      5  C   UNL     1       4.101   5.798  17.459  0.00  0.00    +0.000 A 
ATOM      6  C   UNL     1       4.152   4.446  17.782  0.00  0.00    +0.000 A 
ATOM      7  C   UNL     1       3.154   3.889  18.586  0.00  0.00    +0.000 A 
ATOM      8  C   UNL     1       3.128   2.518  18.889  0.00  0.00    +0.000 A 
ATOM      9  C   UNL     1       2.088   1.988  19.651  0.00  0.00    +0.000 A 
ATOM     10  C   UNL     1       1.091   2.830  20.134  0.00  0.00    +0.000 A 
ATOM     11  C   UNL     1       1.138   4.199  19.852  0.00  0.00    +0.000 A 
ATOM     12  C   UNL     1       2.150   4.749  19.078  0.00  0.00    +0.000 A 
ATOM     13  N   UNL     1       2.140   6.065  18.804  0.00  0.00    +0.000 NA
ATOM     14  H   UNL     1       3.580   8.198  16.812  0.00  0.00    +0.000 HD
ENDROOT
BRANCH   2  15
ATOM     15  C   UNL     1       1.564   8.778  19.459  0.00  0.00    +0.000 C 
BRANCH  15  16
ATOM     16  C   UNL     1       0.495   9.794  19.792  0.00  0.00    +0.000 A 
ATOM     17  C   UNL     1      -0.492  10.213  18.889  0.00  0.00    +0.000 A 
ATOM     18  C   UNL     1      -1.452  11.159  19.271  0.00  0.00    +0.000 A 
ATOM     19 CL   UNL     1      -2.656  11.617  18.118  0.00  0.00    +0.000 Cl
ATOM     20  C   UNL     1      -1.438  11.705  20.560  0.00  0.00    +0.000 A 
ATOM     21  C   UNL     1      -0.436  11.314  21.453  0.00  0.00    +0.000 A 
ATOM     22  C   UNL     1       0.511  10.361  21.077  0.00  0.00    +0.000 A 
ATOM     23  O   UNL     1      -0.316  11.809  22.727  0.00  0.00    +0.000 OA
ATOM     24  C   UNL     1      -1.100  12.993  22.907  0.00  0.00    +0.000 C 
ATOM     25  C   UNL     1      -2.485  12.804  22.317  0.00  0.00    +0.000 C 
ATOM     26  O   UNL     1      -2.406  12.619  20.901  0.00  0.00    +0.000 OA
ENDBRANCH  15  16
ENDBRANCH   2  15
TORSDOF 2
ENDMDL
MODEL 6
REMARK VINA RESULT:      -8.2      3.412      7.753
REMARK  Name = 
REMARK  2 active torsions:
REMARK  status: ('A' for Active; 'I' for Inactive)
REMARK    1  A    between atoms: C_2  and  C_3
REMARK    2  A    between atoms: C_3  and  C_4
REMARK                            x       y       z     vdW  Elec       q    Type
REMARK                         _______ _______ _______ _____ _____    ______ ____
ROOT
ATOM      1  O   UNL     1       2.045   8.397  20.706  0.00  0.00    +0.000 OA
ATOM      2  C   UNL     1       1.388   8.898  19.786  0.00  0.00    +0.000 C 
ATOM      3  N   UNL     1       0.372   9.747  20.121  0.00  0.00    +0.000 N 
ATOM      4  C   UNL     1      -0.641  10.263  19.313  0.00  0.00    +0.000 A 
ATOM      5  C   UNL     1      -1.433  11.268  19.847  0.00  0.00    +0.000 A 
ATOM      6  C   UNL     1      -2.479  11.775  19.083  0.00  0.00    +0.000 A 
ATOM      7  C   UNL     1      -2.745  11.226  17.826  0.00  0.00    +0.000 A 
ATOM      8  C   UNL     1      -3.828  11.661  17.044  0.00  0.00    +0.000 A 
ATOM      9  C   UNL     1      -4.095  11.055  15.817  0.00  0.00    +0.000 A 
ATOM     10  C   UNL     1      -3.267  10.036  15.359  0.00  0.00    +0.000 A 
ATOM     11  C   UNL     1      -2.175   9.625  16.130  0.00  0.00    +0.000 A 
ATOM     12  C   UNL     1      -1.899  10.197  17.365  0.00  0.00    +0.000 A 
ATOM     13  N   UNL     1      -0.857   9.751  18.089  0.00  0.00    +0.000 NA
ATOM     14  H   UNL     1       0.334   9.951  21.109  0.00  0.00    +0.000 HD
ENDROOT
BRANCH   2  15
ATOM     15  C   UNL     1       1.760   8.650  18.338  0.00  0.00    +0.000 C 
BRANCH  15  16
ATOM     16  C   UNL     1       2.524   7.384  18.026  0.00  0.00    +0.000 A 
ATOM     17  C   UNL     1       3.822   7.367  17.496  0.00  0.00    +0.000 A 
ATOM     18  C   UNL     1       4.467   6.152  17.232  0.00  0.00    +0.000 A 
ATOM     19 CL   UNL     1       6.075   6.199  16.599  0.00  0.00    +0.000 Cl
ATOM     20  C   UNL     1       3.825   4.935  17.490  0.00  0.00    +0.000 A 
ATOM     21  C   UNL     1       2.519   4.948  17.988  0.00  0.00    +0.000 A 
ATOM     22  C   UNL     1       1.882   6.158  18.264  0.00  0.00    +0.000 A 
ATOM     23  O   UNL     1       1.792   3.813  18.248  0.00  0.00    +0.000 OA
ATOM     24  C   UNL     1       2.379   2.661  17.636  0.00  0.00    +0.000 C 
ATOM     25  C   UNL     1       3.879   2.645  17.871  0.00  0.00    +0.000 C 
ATOM     26  O   UNL     1       4.498   3.765  17.232  0.00  0.00    +0.000 OA
ENDBRANCH  15  16
ENDBRANCH   2  15
TORSDOF 2
ENDMDL
MODEL 7
REMARK VINA RESULT:      -8.1      3.526      8.341
REMARK  Name = 
REMARK  2 active torsions:
REMARK  status: ('A' for Active; 'I' for Inactive)
REMARK    1  A    between atoms: C_2  and  C_3
REMARK    2  A    between atoms: C_3  and  C_4
REMARK                            x       y       z     vdW  Elec       q    Type
REMARK                         _______ _______ _______ _____ _____    ______ ____
ROOT
ATOM      1  O   UNL     1       2.570   8.898  17.152  0.00  0.00    +0.000 OA
ATOM      2  C   UNL     1       1.754   9.130  18.051  0.00  0.00    +0.000 C 
ATOM      3  N   UNL     1       0.755  10.022  17.786  0.00  0.00    +0.000 N 
ATOM      4  C   UNL     1      -0.146  10.619  18.668  0.00  0.00    +0.000 A 
ATOM      5  C   UNL     1      -1.198  11.334  18.119  0.00  0.00    +0.000 A 
ATOM      6  C   UNL     1      -2.089  11.976  18.973  0.00  0.00    +0.000 A 
ATOM      7  C   UNL     1      -1.875  11.936  20.354  0.00  0.00    +0.000 A 
ATOM      8  C   UNL     1      -2.712  12.620  21.251  0.00  0.00    +0.000 A 
ATOM      9  C   UNL     1      -2.438  12.601  22.618  0.00  0.00    +0.000 A 
ATOM     10  C   UNL     1      -1.348  11.877  23.090  0.00  0.00    +0.000 A 
ATOM     11  C   UNL     1      -0.535  11.176  22.194  0.00  0.00    +0.000 A 
ATOM     12  C   UNL     1      -0.773  11.196  20.826  0.00  0.00    +0.000 A 
ATOM     13  N   UNL     1       0.052  10.534  19.996  0.00  0.00    +0.000 NA
ATOM     14  H   UNL     1       0.739  10.327  16.823  0.00  0.00    +0.000 HD
ENDROOT
BRANCH   2  15
ATOM     15  C   UNL     1       1.808   8.380  19.366  0.00  0.00    +0.000 C 
BRANCH  15  16
ATOM     16  C   UNL     1       2.290   6.948  19.327  0.00  0.00    +0.000 A 
ATOM     17  C   UNL     1       2.949   6.375  18.230  0.00  0.00    +0.000 A 
ATOM     18  C   UNL     1       3.367   5.039  18.269  0.00  0.00    +0.000 A 
ATOM     19 CL   UNL     1       4.194   4.400  16.891  0.00  0.00    +0.000 Cl
ATOM     20  C   UNL     1       3.130   4.252  19.401  0.00  0.00    +0.000 A 
ATOM     21  C   UNL     1       2.445   4.809  20.485  0.00  0.00    +0.000 A 
ATOM     22  C   UNL     1       2.041   6.144  20.453  0.00  0.00    +0.000 A 
ATOM     23  O   UNL     1       2.138   4.117  21.629  0.00  0.00    +0.000 OA
ATOM     24  C   UNL     1       2.285   2.705  21.445  0.00  0.00    +0.000 C 
ATOM     25  C   UNL     1       3.586   2.399  20.726  0.00  0.00    +0.000 C 
ATOM     26  O   UNL     1       3.570   2.950  19.406  0.00  0.00    +0.000 OA
ENDBRANCH  15  16
ENDBRANCH   2  15
TORSDOF 2
ENDMDL
MODEL 8
REMARK VINA RESULT:      -8.0      3.789      7.971
REMARK  Name = 
REMARK  2 active torsions:
REMARK  status: ('A' for Active; 'I' for Inactive)
REMARK    1  A    between atoms: C_2  and  C_3
REMARK    2  A    between atoms: C_3  and  C_4
REMARK                            x       y       z     vdW  Elec       q    Type
REMARK                         _______ _______ _______ _____ _____    ______ ____
ROOT
ATOM      1  O   UNL     1       2.275   5.444  20.928  0.00  0.00    +0.000 OA
ATOM      2  C   UNL     1       1.988   6.569  20.504  0.00  0.00    +0.000 C 
ATOM      3  N   UNL     1       1.454   7.463  21.388  0.00  0.00    +0.000 N 
ATOM      4  C   UNL     1       0.851   8.695  21.132  0.00  0.00    +0.000 A 
ATOM      5  C   UNL     1       0.573   9.507  22.221  0.00  0.00    +0.000 A 
ATOM      6  C   UNL     1      -0.067  10.723  22.003  0.00  0.00    +0.000 A 
ATOM      7  C   UNL     1      -0.465  11.074  20.711  0.00  0.00    +0.000 A 
ATOM      8  C   UNL     1      -1.168  12.261  20.451  0.00  0.00    +0.000 A 
ATOM      9  C   UNL     1      -1.595  12.554  19.156  0.00  0.00    +0.000 A 
ATOM     10  C   UNL     1      -1.297  11.677  18.119  0.00  0.00    +0.000 A 
ATOM     11  C   UNL     1      -0.573  10.509  18.380  0.00  0.00    +0.000 A 
ATOM     12  C   UNL     1      -0.154  10.183  19.663  0.00  0.00    +0.000 A 
ATOM     13  N   UNL     1       0.512   9.035  19.876  0.00  0.00    +0.000 NA
ATOM     14  H   UNL     1       1.443   7.124  22.339  0.00  0.00    +0.000 HD
ENDROOT
BRANCH   2  15
ATOM     15  C   UNL     1       2.307   6.970  19.078  0.00  0.00    +0.000 C 
BRANCH  15  16
ATOM     16  C   UNL     1       3.111   5.995  18.248  0.00  0.00    +0.000 A 
ATOM     17  C   UNL     1       2.873   4.614  18.218  0.00  0.00    +0.000 A 
ATOM     18  C   UNL     1       3.662   3.773  17.422  0.00  0.00    +0.000 A 
ATOM     19 CL   UNL     1       3.303   2.082  17.412  0.00  0.00    +0.000 Cl
ATOM     20  C   UNL     1       4.704   4.298  16.649  0.00  0.00    +0.000 A 
ATOM     21  C   UNL     1       4.965   5.670  16.701  0.00  0.00    +0.000 A 
ATOM     22  C   UNL     1       4.171   6.509  17.482  0.00  0.00    +0.000 A 
ATOM     23  O   UNL     1       5.979   6.279  16.005  0.00  0.00    +0.000 OA
ATOM     24  C   UNL     1       6.925   5.325  15.512  0.00  0.00    +0.000 C 
ATOM     25  C   UNL     1       6.207   4.144  14.885  0.00  0.00    +0.000 C 
ATOM     26  O   UNL     1       5.445   3.441  15.871  0.00  0.00    +0.000 OA
ENDBRANCH  15  16
ENDBRANCH   2  15
TORSDOF 2
ENDMDL
MODEL 9
REMARK VINA RESULT:      -8.0      2.263      2.899
REMARK  Name = 
REMARK  2 active torsions:
REMARK  status: ('A' for Active; 'I' for Inactive)
REMARK    1  A    between atoms: C_2  and  C_3
REMARK    2  A    between atoms: C_3  and  C_4
REMARK                            x       y       z     vdW  Elec       q    Type
REMARK                         _______ _______ _______ _____ _____    ______ ____
ROOT
ATOM      1  O   UNL     1       1.487   8.366  20.966  0.00  0.00    +0.000 OA
ATOM      2  C   UNL     1       1.907   7.850  19.924  0.00  0.00    +0.000 C 
ATOM      3  N   UNL     1       2.318   6.549  19.981  0.00  0.00    +0.000 N 
ATOM      4  C   UNL     1       3.023   5.810  19.032  0.00  0.00    +0.000 A 
ATOM      5  C   UNL     1       3.142   4.445  19.245  0.00  0.00    +0.000 A 
ATOM      6  C   UNL     1       3.875   3.686  18.338  0.00  0.00    +0.000 A 
ATOM      7  C   UNL     1       4.520   4.317  17.271  0.00  0.00    +0.000 A 
ATOM      8  C   UNL     1       5.322   3.602  16.366  0.00  0.00    +0.000 A 
ATOM      9  C   UNL     1       5.993   4.272  15.344  0.00  0.00    +0.000 A 
ATOM     10  C   UNL     1       5.842   5.648  15.209  0.00  0.00    +0.000 A 
ATOM     11  C   UNL     1       5.021   6.350  16.097  0.00  0.00    +0.000 A 
ATOM     12  C   UNL     1       4.359   5.711  17.136  0.00  0.00    +0.000 A 
ATOM     13  N   UNL     1       3.603   6.428  17.988  0.00  0.00    +0.000 NA
ATOM     14  H   UNL     1       2.137   6.114  20.875  0.00  0.00    +0.000 HD
ENDROOT
BRANCH   2  15
ATOM     15  C   UNL     1       1.876   8.607  18.612  0.00  0.00    +0.000 C 
BRANCH  15  16
ATOM     16  C   UNL     1       1.190   9.954  18.605  0.00  0.00    +0.000 A 
ATOM     17  C   UNL     1      -0.190  10.126  18.427  0.00  0.00    +0.000 A 
ATOM     18  C   UNL     1      -0.754  11.408  18.433  0.00  0.00    +0.000 A 
ATOM     19 CL   UNL     1      -2.465  11.551  18.231  0.00  0.00    +0.000 Cl
ATOM     20  C   UNL     1       0.051  12.538  18.611  0.00  0.00    +0.000 A 
ATOM     21  C   UNL     1       1.432  12.373  18.756  0.00  0.00    +0.000 A 
ATOM     22  C   UNL     1       1.992  11.096  18.765  0.00  0.00    +0.000 A 
ATOM     23  O   UNL     1       2.311  13.416  18.908  0.00  0.00    +0.000 OA
ATOM     24  C   UNL     1       1.710  14.666  18.558  0.00  0.00    +0.000 C 
ATOM     25  C   UNL     1       0.326  14.776  19.170  0.00  0.00    +0.000 C 
ATOM     26  O   UNL     1      -0.543  13.778  18.626  0.00  0.00    +0.000 OA
ENDBRANCH  15  16
ENDBRANCH   2  15
TORSDOF 2
ENDMDL
