MODEL 1
REMARK VINA RESULT:      -8.4      0.000      0.000
REMARK  Name = 
REMARK  5 active torsions:
REMARK  status: ('A' for Active; 'I' for Inactive)
REMARK    1  A    between atoms: C_1  and  N_2
REMARK    2  A    between atoms: C_8  and  N_9
REMARK    3  A    between atoms: C_10  and  C_12
REMARK    4  A    between atoms: C_15  and  C_16
REMARK    5  A    between atoms: C_16  and  N_17
REMARK                            x       y       z     vdW  Elec       q    Type
REMARK                         _______ _______ _______ _____ _____    ______ ____
ROOT
ATOM      1  N   UNL     1       8.779   8.945  18.879  0.00  0.00    +0.000 N 
ATOM      2  C   UNL     1       7.798   8.749  17.918  0.00  0.00    +0.000 C 
ATOM      3  O   UNL     1       7.370   9.614  17.151  0.00  0.00    +0.000 OA
ATOM      4  H   UNL     1       9.203   8.127  19.295  0.00  0.00    +0.000 HD
ENDROOT
BRANCH   1  12
ATOM      5  C   UNL     1      12.333  15.306  17.984  0.00  0.00    +0.000 C 
ATOM      6  N   UNL     1      11.590  14.161  18.439  0.00  0.00    +0.000 N 
ATOM      7  C   UNL     1      11.212  13.951  19.738  0.00  0.00    +0.000 C 
ATOM      8  O   UNL     1      11.395  14.644  20.719  0.00  0.00    +0.000 OA
ATOM      9  C   UNL     1      10.521  12.663  19.753  0.00  0.00    +0.000 A 
ATOM     10  C   UNL     1       9.952  11.973  20.797  0.00  0.00    +0.000 A 
ATOM     11  C   UNL     1       9.378  10.731  20.499  0.00  0.00    +0.000 A 
ATOM     12  C   UNL     1       9.366  10.200  19.186  0.00  0.00    +0.000 A 
ATOM     13  C   UNL     1       9.969  10.925  18.149  0.00  0.00    +0.000 A 
ATOM     14  C   UNL     1      10.529  12.153  18.467  0.00  0.00    +0.000 A 
ATOM     15  C   UNL     1      11.216  13.128  17.622  0.00  0.00    +0.000 C 
ATOM     16  O   UNL     1      11.403  12.984  16.428  0.00  0.00    +0.000 OA
ENDBRANCH   1  12
BRANCH   2  17
ATOM     17  C   UNL     1       7.247   7.374  17.756  0.00  0.00    +0.000 A 
ATOM     18  C   UNL     1       7.785   6.247  18.385  0.00  0.00    +0.000 A 
ATOM     19  C   UNL     1       7.142   5.005  18.257  0.00  0.00    +0.000 A 
ATOM     20  C   UNL     1       5.956   4.876  17.513  0.00  0.00    +0.000 A 
ATOM     21  C   UNL     1       5.425   6.011  16.889  0.00  0.00    +0.000 A 
ATOM     22  C   UNL     1       6.067   7.244  17.005  0.00  0.00    +0.000 A 
BRANCH  20  23
ATOM     23  C   UNL     1       5.224   3.557  17.416  0.00  0.00    +0.000 C 
BRANCH  23  24
ATOM     24  N   UNL     1       4.067   3.490  18.291  0.00  0.00    +0.000 N 
ATOM     25  C   UNL     1       4.144   3.692  19.717  0.00  0.00    +0.000 C 
ATOM     26  C   UNL     1       2.763   3.296  20.201  0.00  0.00    +0.000 C 
ATOM     27  C   UNL     1       1.856   3.657  19.032  0.00  0.00    +0.000 C 
ATOM     28  C   UNL     1       2.757   3.450  17.838  0.00  0.00    +0.000 C 
ATOM     29  O   UNL     1       2.383   3.327  16.684  0.00  0.00    +0.000 OA
ENDBRANCH  23  24
ENDBRANCH  20  23
ENDBRANCH   2  17
TORSDOF 4
ENDMDL
MODEL 2
REMARK VINA RESULT:      -8.2      2.157      2.517
REMARK  Name = 
REMARK  5 active torsions:
REMARK  status: ('A' for Active; 'I' for Inactive)
REMARK    1  A    between atoms: C_1  and  N_2
REMARK    2  A    between atoms: C_8  and  N_9
REMARK    3  A    between atoms: C_10  and  C_12
REMARK    4  A    between atoms: C_15  and  C_16
REMARK    5  A    between atoms: C_16  and  N_17
REMARK                            x       y       z     vdW  Elec       q    Type
REMARK                         _______ _______ _______ _____ _____    ______ ____
ROOT
ATOM      1  N   UNL     1       8.633  10.358  17.562  0.00  0.00    +0.000 N 
ATOM      2  C   UNL     1       8.688   9.352  18.517  0.00  0.00    +0.000 C 
ATOM      3  O   UNL     1       9.200   9.456  19.632  0.00  0.00    +0.000 OA
ATOM      4  H   UNL     1       8.005  10.233  16.780  0.00  0.00    +0.000 HD
ENDROOT
BRANCH   1  12
ATOM      5  C   UNL     1       9.375  17.639  18.139  0.00  0.00    +0.000 C 
ATOM      6  N   UNL     1       9.526  16.209  18.077  0.00  0.00    +0.000 N 
ATOM      7  C   UNL     1      10.731  15.558  18.081  0.00  0.00    +0.000 C 
ATOM      8  O   UNL     1      11.855  16.012  18.149  0.00  0.00    +0.000 OA
ATOM      9  C   UNL     1      10.419  14.134  17.966  0.00  0.00    +0.000 A 
ATOM     10  C   UNL     1      11.255  13.045  17.912  0.00  0.00    +0.000 A 
ATOM     11  C   UNL     1      10.653  11.788  17.772  0.00  0.00    +0.000 A 
ATOM     12  C   UNL     1       9.247  11.629  17.698  0.00  0.00    +0.000 A 
ATOM     13  C   UNL     1       8.426  12.765  17.741  0.00  0.00    +0.000 A 
ATOM     14  C   UNL     1       9.046  13.997  17.883  0.00  0.00    +0.000 A 
ATOM     15  C   UNL     1       8.474  15.341  17.960  0.00  0.00    +0.000 C 
ATOM     16  O   UNL     1       7.282  15.579  17.910  0.00  0.00    +0.000 OA
ENDBRANCH   1  12
BRANCH   2  17
ATOM     17  C   UNL     1       8.033   8.051  18.196  0.00  0.00    +0.000 A 
ATOM     18  C   UNL     1       8.281   6.868  18.898  0.00  0.00    +0.000 A 
ATOM     19  C   UNL     1       7.545   5.711  18.594  0.00  0.00    +0.000 A 
ATOM     20  C   UNL     1       6.553   5.725  17.599  0.00  0.00    +0.000 A 
ATOM     21  C   UNL     1       6.312   6.915  16.903  0.00  0.00    +0.000 A 
ATOM     22  C   UNL     1       7.049   8.063  17.196  0.00  0.00    +0.000 A 
BRANCH  20  23
ATOM     23  C   UNL     1       5.715   4.501  17.303  0.00  0.00    +0.000 C 
BRANCH  23  24
ATOM     24  N   UNL     1       4.501   4.444  18.099  0.00  0.00    +0.000 N 
ATOM     25  C   UNL     1       3.257   5.042  17.682  0.00  0.00    +0.000 C 
ATOM     26  C   UNL     1       2.383   4.926  18.917  0.00  0.00    +0.000 C 
ATOM     27  C   UNL     1       2.885   3.656  19.592  0.00  0.00    +0.000 C 
ATOM     28  C   UNL     1       4.346   3.634  19.214  0.00  0.00    +0.000 C 
ATOM     29  O   UNL     1       5.210   2.975  19.768  0.00  0.00    +0.000 OA
ENDBRANCH  23  24
ENDBRANCH  20  23
ENDBRANCH   2  17
TORSDOF 4
ENDMDL
MODEL 3
REMARK VINA RESULT:      -8.2      8.928     11.843
REMARK  Name = 
REMARK  5 active torsions:
REMARK  status: ('A' for Active; 'I' for Inactive)
REMARK    1  A    between atoms: C_1  and  N_2
REMARK    2  A    between atoms: C_8  and  N_9
REMARK    3  A    between atoms: C_10  and  C_12
REMARK    4  A    between atoms: C_15  and  C_16
REMARK    5  A    between atoms: C_16  and  N_17
REMARK                            x       y       z     vdW  Elec       q    Type
REMARK                         _______ _______ _______ _____ _____    ______ ____
ROOT
ATOM      1  N   UNL     1       0.576   9.870  20.514  0.00  0.00    +0.000 N 
ATOM      2  C   UNL     1      -0.576  10.473  20.028  0.00  0.00    +0.000 C 
ATOM      3  O   UNL     1      -1.145  10.175  18.977  0.00  0.00    +0.000 OA
ATOM      4  H   UNL     1       0.827  10.040  21.478  0.00  0.00    +0.000 HD
ENDROOT
BRANCH   1  12
ATOM      5  C   UNL     1       3.983   3.526  19.087  0.00  0.00    +0.000 C 
ATOM      6  N   UNL     1       3.383   4.834  19.081  0.00  0.00    +0.000 N 
ATOM      7  C   UNL     1       3.502   5.733  18.055  0.00  0.00    +0.000 C 
ATOM      8  O   UNL     1       4.087   5.627  16.996  0.00  0.00    +0.000 OA
ATOM      9  C   UNL     1       2.777   6.929  18.483  0.00  0.00    +0.000 A 
ATOM     10  C   UNL     1       2.590   8.130  17.843  0.00  0.00    +0.000 A 
ATOM     11  C   UNL     1       1.860   9.109  18.528  0.00  0.00    +0.000 A 
ATOM     12  C   UNL     1       1.322   8.883  19.819  0.00  0.00    +0.000 A 
ATOM     13  C   UNL     1       1.545   7.651  20.448  0.00  0.00    +0.000 A 
ATOM     14  C   UNL     1       2.269   6.697  19.749  0.00  0.00    +0.000 A 
ATOM     15  C   UNL     1       2.660   5.340  20.127  0.00  0.00    +0.000 C 
ATOM     16  O   UNL     1       2.378   4.820  21.191  0.00  0.00    +0.000 OA
ENDBRANCH   1  12
BRANCH   2  17
ATOM     17  C   UNL     1      -1.212  11.532  20.861  0.00  0.00    +0.000 A 
ATOM     18  C   UNL     1      -2.187  12.411  20.381  0.00  0.00    +0.000 A 
ATOM     19  C   UNL     1      -2.806  13.313  21.261  0.00  0.00    +0.000 A 
ATOM     20  C   UNL     1      -2.467  13.342  22.625  0.00  0.00    +0.000 A 
ATOM     21  C   UNL     1      -1.490  12.457  23.096  0.00  0.00    +0.000 A 
ATOM     22  C   UNL     1      -0.866  11.567  22.221  0.00  0.00    +0.000 A 
BRANCH  20  23
ATOM     23  C   UNL     1      -3.167  14.268  23.594  0.00  0.00    +0.000 C 
BRANCH  23  24
ATOM     24  N   UNL     1      -4.596  14.021  23.676  0.00  0.00    +0.000 N 
ATOM     25  C   UNL     1      -5.580  14.874  23.055  0.00  0.00    +0.000 C 
ATOM     26  C   UNL     1      -6.892  14.353  23.608  0.00  0.00    +0.000 C 
ATOM     27  C   UNL     1      -6.625  12.871  23.830  0.00  0.00    +0.000 C 
ATOM     28  C   UNL     1      -5.151  12.844  24.155  0.00  0.00    +0.000 C 
ATOM     29  O   UNL     1      -4.562  11.923  24.694  0.00  0.00    +0.000 OA
ENDBRANCH  23  24
ENDBRANCH  20  23
ENDBRANCH   2  17
TORSDOF 4
ENDMDL
MODEL 4
REMARK VINA RESULT:      -8.2      7.868      9.142
REMARK  Name = 
REMARK  5 active torsions:
REMARK  status: ('A' for Active; 'I' for Inactive)
REMARK    1  A    between atoms: C_1  and  N_2
REMARK    2  A    between atoms: C_8  and  N_9
REMARK    3  A    between atoms: C_10  and  C_12
REMARK    4  A    between atoms: C_15  and  C_16
REMARK    5  A    between atoms: C_16  and  N_17
REMARK                            x       y       z     vdW  Elec       q    Type
REMARK                         _______ _______ _______ _____ _____    ______ ____
ROOT
ATOM      1  N   UNL     1       0.756  10.166  21.259  0.00  0.00    +0.000 N 
ATOM      2  C   UNL     1       0.594   9.698  19.963  0.00  0.00    +0.000 C 
ATOM      3  O   UNL     1      -0.236  10.116  19.154  0.00  0.00    +0.000 OA
ATOM      4  H   UNL     1       1.599   9.908  21.753  0.00  0.00    +0.000 HD
ENDROOT
BRANCH   1  12
ATOM      5  C   UNL     1      -2.052  16.691  23.111  0.00  0.00    +0.000 C 
ATOM      6  N   UNL     1      -1.734  15.303  22.905  0.00  0.00    +0.000 N 
ATOM      7  C   UNL     1      -2.366  14.264  23.534  0.00  0.00    +0.000 C 
ATOM      8  O   UNL     1      -3.280  14.284  24.334  0.00  0.00    +0.000 OA
ATOM      9  C   UNL     1      -1.704  13.047  23.064  0.00  0.00    +0.000 A 
ATOM     10  C   UNL     1      -1.936  11.731  23.386  0.00  0.00    +0.000 A 
ATOM     11  C   UNL     1      -1.107  10.776  22.785  0.00  0.00    +0.000 A 
ATOM     12  C   UNL     1      -0.080  11.132  21.876  0.00  0.00    +0.000 A 
ATOM     13  C   UNL     1       0.136  12.485  21.583  0.00  0.00    +0.000 A 
ATOM     14  C   UNL     1      -0.698  13.413  22.189  0.00  0.00    +0.000 A 
ATOM     15  C   UNL     1      -0.726  14.871  22.087  0.00  0.00    +0.000 C 
ATOM     16  O   UNL     1       0.039  15.521  21.398  0.00  0.00    +0.000 OA
ENDBRANCH   1  12
BRANCH   2  17
ATOM     17  C   UNL     1       1.529   8.641  19.482  0.00  0.00    +0.000 A 
ATOM     18  C   UNL     1       1.858   7.505  20.228  0.00  0.00    +0.000 A 
ATOM     19  C   UNL     1       2.668   6.509  19.658  0.00  0.00    +0.000 A 
ATOM     20  C   UNL     1       3.148   6.631  18.342  0.00  0.00    +0.000 A 
ATOM     21  C   UNL     1       2.811   7.771  17.605  0.00  0.00    +0.000 A 
ATOM     22  C   UNL     1       2.015   8.766  18.172  0.00  0.00    +0.000 A 
BRANCH  20  23
ATOM     23  C   UNL     1       3.973   5.539  17.699  0.00  0.00    +0.000 C 
BRANCH  23  24
ATOM     24  N   UNL     1       3.496   4.206  18.026  0.00  0.00    +0.000 N 
ATOM     25  C   UNL     1       2.347   3.605  17.395  0.00  0.00    +0.000 C 
ATOM     26  C   UNL     1       2.114   2.351  18.216  0.00  0.00    +0.000 C 
ATOM     27  C   UNL     1       3.512   1.962  18.680  0.00  0.00    +0.000 C 
ATOM     28  C   UNL     1       4.206   3.298  18.796  0.00  0.00    +0.000 C 
ATOM     29  O   UNL     1       5.235   3.508  19.415  0.00  0.00    +0.000 OA
ENDBRANCH  23  24
ENDBRANCH  20  23
ENDBRANCH   2  17
TORSDOF 4
ENDMDL
MODEL 5
REMARK VINA RESULT:      -8.1      6.649      8.494
REMARK  Name = 
REMARK  5 active torsions:
REMARK  status: ('A' for Active; 'I' for Inactive)
REMARK    1  A    between atoms: C_1  and  N_2
REMARK    2  A    between atoms: C_8  and  N_9
REMARK    3  A    between atoms: C_10  and  C_12
REMARK    4  A    between atoms: C_15  and  C_16
REMARK    5  A    between atoms: C_16  and  N_17
REMARK                            x       y       z     vdW  Elec       q    Type
REMARK                         _______ _______ _______ _____ _____    ______ ____
ROOT
ATOM      1  N   UNL     1       1.243   9.043  19.387  0.00  0.00    +0.000 N 
ATOM      2  C   UNL     1       1.978   8.864  18.223  0.00  0.00    +0.000 C 
ATOM      3  O   UNL     1       2.105   9.698  17.326  0.00  0.00    +0.000 OA
ATOM      4  H   UNL     1       1.387   8.387  20.142  0.00  0.00    +0.000 HD
ENDROOT
BRANCH   1  12
ATOM      5  C   UNL     1      -0.727  15.602  22.031  0.00  0.00    +0.000 C 
ATOM      6  N   UNL     1      -0.609  14.326  21.376  0.00  0.00    +0.000 N 
ATOM      7  C   UNL     1      -1.625  13.710  20.695  0.00  0.00    +0.000 C 
ATOM      8  O   UNL     1      -2.762  14.086  20.495  0.00  0.00    +0.000 OA
ATOM      9  C   UNL     1      -1.082  12.434  20.232  0.00  0.00    +0.000 A 
ATOM     10  C   UNL     1      -1.677  11.425  19.513  0.00  0.00    +0.000 A 
ATOM     11  C   UNL     1      -0.897  10.294  19.239  0.00  0.00    +0.000 A 
ATOM     12  C   UNL     1       0.448  10.184  19.668  0.00  0.00    +0.000 A 
ATOM     13  C   UNL     1       1.017  11.226  20.412  0.00  0.00    +0.000 A 
ATOM     14  C   UNL     1       0.227  12.336  20.669  0.00  0.00    +0.000 A 
ATOM     15  C   UNL     1       0.527  13.564  21.403  0.00  0.00    +0.000 C 
ATOM     16  O   UNL     1       1.600  13.799  21.928  0.00  0.00    +0.000 OA
ENDBRANCH   1  12
BRANCH   2  17
ATOM     17  C   UNL     1       2.720   7.581  18.059  0.00  0.00    +0.000 A 
ATOM     18  C   UNL     1       2.165   6.328  18.336  0.00  0.00    +0.000 A 
ATOM     19  C   UNL     1       2.901   5.164  18.058  0.00  0.00    +0.000 A 
ATOM     20  C   UNL     1       4.188   5.238  17.495  0.00  0.00    +0.000 A 
ATOM     21  C   UNL     1       4.732   6.498  17.221  0.00  0.00    +0.000 A 
ATOM     22  C   UNL     1       4.008   7.655  17.506  0.00  0.00    +0.000 A 
BRANCH  20  23
ATOM     23  C   UNL     1       4.966   3.992  17.138  0.00  0.00    +0.000 C 
BRANCH  23  24
ATOM     24  N   UNL     1       5.698   4.123  15.890  0.00  0.00    +0.000 N 
ATOM     25  C   UNL     1       5.054   4.187  14.602  0.00  0.00    +0.000 C 
ATOM     26  C   UNL     1       6.211   4.083  13.627  0.00  0.00    +0.000 C 
ATOM     27  C   UNL     1       7.368   4.735  14.373  0.00  0.00    +0.000 C 
ATOM     28  C   UNL     1       7.050   4.423  15.816  0.00  0.00    +0.000 C 
ATOM     29  O   UNL     1       7.841   4.482  16.742  0.00  0.00    +0.000 OA
ENDBRANCH  23  24
ENDBRANCH  20  23
ENDBRANCH   2  17
TORSDOF 4
ENDMDL
MODEL 6
REMARK VINA RESULT:      -8.1      7.559     10.832
REMARK  Name = 
REMARK  5 active torsions:
REMARK  status: ('A' for Active; 'I' for Inactive)
REMARK    1  A    between atoms: C_1  and  N_2
REMARK    2  A    between atoms: C_8  and  N_9
REMARK    3  A    between atoms: C_10  and  C_12
REMARK    4  A    between atoms: C_15  and  C_16
REMARK    5  A    between atoms: C_16  and  N_17
REMARK                            x       y       z     vdW  Elec       q    Type
REMARK                         _______ _______ _______ _____ _____    ______ ____
ROOT
ATOM      1  N   UNL     1       1.487   7.781  20.779  0.00  0.00    +0.000 N 
ATOM      2  C   UNL     1       1.123   8.957  20.139  0.00  0.00    +0.000 C 
ATOM      3  O   UNL     1       1.185   9.156  18.925  0.00  0.00    +0.000 OA
ATOM      4  H   UNL     1       1.192   7.653  21.737  0.00  0.00    +0.000 HD
ENDROOT
BRANCH   1  12
ATOM      5  C   UNL     1       5.474   3.881  16.004  0.00  0.00    +0.000 C 
ATOM      6  N   UNL     1       4.651   4.380  17.075  0.00  0.00    +0.000 N 
ATOM      7  C   UNL     1       3.992   3.587  17.976  0.00  0.00    +0.000 C 
ATOM      8  O   UNL     1       3.972   2.377  18.072  0.00  0.00    +0.000 OA
ATOM      9  C   UNL     1       3.256   4.499  18.851  0.00  0.00    +0.000 A 
ATOM     10  C   UNL     1       2.426   4.233  19.913  0.00  0.00    +0.000 A 
ATOM     11  C   UNL     1       1.835   5.332  20.549  0.00  0.00    +0.000 A 
ATOM     12  C   UNL     1       2.079   6.664  20.134  0.00  0.00    +0.000 A 
ATOM     13  C   UNL     1       2.919   6.897  19.037  0.00  0.00    +0.000 A 
ATOM     14  C   UNL     1       3.495   5.793  18.425  0.00  0.00    +0.000 A 
ATOM     15  C   UNL     1       4.401   5.710  17.281  0.00  0.00    +0.000 C 
ATOM     16  O   UNL     1       4.808   6.675  16.661  0.00  0.00    +0.000 OA
ENDBRANCH   1  12
BRANCH   2  17
ATOM     17  C   UNL     1       0.562  10.058  20.973  0.00  0.00    +0.000 A 
ATOM     18  C   UNL     1       0.651  11.410  20.629  0.00  0.00    +0.000 A 
ATOM     19  C   UNL     1       0.007  12.374  21.421  0.00  0.00    +0.000 A 
ATOM     20  C   UNL     1      -0.738  12.001  22.555  0.00  0.00    +0.000 A 
ATOM     21  C   UNL     1      -0.821  10.645  22.889  0.00  0.00    +0.000 A 
ATOM     22  C   UNL     1      -0.173   9.686  22.110  0.00  0.00    +0.000 A 
BRANCH  20  23
ATOM     23  C   UNL     1      -1.483  13.024  23.382  0.00  0.00    +0.000 C 
BRANCH  23  24
ATOM     24  N   UNL     1      -2.828  13.272  22.893  0.00  0.00    +0.000 N 
ATOM     25  C   UNL     1      -3.104  14.029  21.697  0.00  0.00    +0.000 C 
ATOM     26  C   UNL     1      -4.609  14.209  21.737  0.00  0.00    +0.000 C 
ATOM     27  C   UNL     1      -5.101  12.955  22.449  0.00  0.00    +0.000 C 
ATOM     28  C   UNL     1      -3.958  12.633  23.381  0.00  0.00    +0.000 C 
ATOM     29  O   UNL     1      -4.023  11.899  24.352  0.00  0.00    +0.000 OA
ENDBRANCH  23  24
ENDBRANCH  20  23
ENDBRANCH   2  17
TORSDOF 4
ENDMDL
MODEL 7
REMARK VINA RESULT:      -8.1      7.152     10.193
REMARK  Name = 
REMARK  5 active torsions:
REMARK  status: ('A' for Active; 'I' for Inactive)
REMARK    1  A    between atoms: C_1  and  N_2
REMARK    2  A    between atoms: C_8  and  N_9
REMARK    3  A    between atoms: C_10  and  C_12
REMARK    4  A    between atoms: C_15  and  C_16
REMARK    5  A    between atoms: C_16  and  N_17
REMARK                            x       y       z     vdW  Elec       q    Type
REMARK                         _______ _______ _______ _____ _____    ______ ____
ROOT
ATOM      1  N   UNL     1       1.918   8.127  19.299  0.00  0.00    +0.000 N 
ATOM      2  C   UNL     1       1.399   7.995  20.579  0.00  0.00    +0.000 C 
ATOM      3  O   UNL     1       1.546   7.014  21.309  0.00  0.00    +0.000 OA
ATOM      4  H   UNL     1       1.921   9.049  18.883  0.00  0.00    +0.000 HD
ENDROOT
BRANCH   1  12
ATOM      5  C   UNL     1       7.153   4.766  15.401  0.00  0.00    +0.000 C 
ATOM      6  N   UNL     1       6.007   5.150  16.182  0.00  0.00    +0.000 N 
ATOM      7  C   UNL     1       4.954   4.322  16.468  0.00  0.00    +0.000 C 
ATOM      8  O   UNL     1       4.777   3.160  16.159  0.00  0.00    +0.000 OA
ATOM      9  C   UNL     1       4.009   5.125  17.242  0.00  0.00    +0.000 A 
ATOM     10  C   UNL     1       2.786   4.791  17.770  0.00  0.00    +0.000 A 
ATOM     11  C   UNL     1       2.091   5.799  18.451  0.00  0.00    +0.000 A 
ATOM     12  C   UNL     1       2.616   7.105  18.604  0.00  0.00    +0.000 A 
ATOM     13  C   UNL     1       3.860   7.414  18.039  0.00  0.00    +0.000 A 
ATOM     14  C   UNL     1       4.531   6.399  17.373  0.00  0.00    +0.000 A 
ATOM     15  C   UNL     1       5.823   6.407  16.690  0.00  0.00    +0.000 C 
ATOM     16  O   UNL     1       6.547   7.383  16.611  0.00  0.00    +0.000 OA
ENDBRANCH   1  12
BRANCH   2  17
ATOM     17  C   UNL     1       0.644   9.149  21.146  0.00  0.00    +0.000 A 
ATOM     18  C   UNL     1      -0.089   9.083  22.335  0.00  0.00    +0.000 A 
ATOM     19  C   UNL     1      -0.687  10.244  22.849  0.00  0.00    +0.000 A 
ATOM     20  C   UNL     1      -0.554  11.480  22.191  0.00  0.00    +0.000 A 
ATOM     21  C   UNL     1       0.182  11.535  21.003  0.00  0.00    +0.000 A 
ATOM     22  C   UNL     1       0.769  10.381  20.484  0.00  0.00    +0.000 A 
BRANCH  20  23
ATOM     23  C   UNL     1      -1.146  12.748  22.765  0.00  0.00    +0.000 C 
BRANCH  23  24
ATOM     24  N   UNL     1      -2.484  13.019  22.269  0.00  0.00    +0.000 N 
ATOM     25  C   UNL     1      -2.740  13.619  20.983  0.00  0.00    +0.000 C 
ATOM     26  C   UNL     1      -4.228  13.909  21.023  0.00  0.00    +0.000 C 
ATOM     27  C   UNL     1      -4.784  12.807  21.913  0.00  0.00    +0.000 C 
ATOM     28  C   UNL     1      -3.641  12.538  22.862  0.00  0.00    +0.000 C 
ATOM     29  O   UNL     1      -3.730  11.954  23.929  0.00  0.00    +0.000 OA
ENDBRANCH  23  24
ENDBRANCH  20  23
ENDBRANCH   2  17
TORSDOF 4
ENDMDL
MODEL 8
REMARK VINA RESULT:      -8.1      7.983      9.414
REMARK  Name = 
REMARK  5 active torsions:
REMARK  status: ('A' for Active; 'I' for Inactive)
REMARK    1  A    between atoms: C_1  and  N_2
REMARK    2  A    between atoms: C_8  and  N_9
REMARK    3  A    between atoms: C_10  and  C_12
REMARK    4  A    between atoms: C_15  and  C_16
REMARK    5  A    between atoms: C_16  and  N_17
REMARK                            x       y       z     vdW  Elec       q    Type
REMARK                         _______ _______ _______ _____ _____    ______ ____
ROOT
ATOM      1  N   UNL     1       0.721  10.317  21.236  0.00  0.00    +0.000 N 
ATOM      2  C   UNL     1       0.506   9.819  19.959  0.00  0.00    +0.000 C 
ATOM      3  O   UNL     1      -0.390  10.183  19.195  0.00  0.00    +0.000 OA
ATOM      4  H   UNL     1       1.604  10.108  21.682  0.00  0.00    +0.000 HD
ENDROOT
BRANCH   1  12
ATOM      5  C   UNL     1      -2.128  16.752  23.329  0.00  0.00    +0.000 C 
ATOM      6  N   UNL     1      -1.801  15.374  23.071  0.00  0.00    +0.000 N 
ATOM      7  C   UNL     1      -2.430  14.308  23.658  0.00  0.00    +0.000 C 
ATOM      8  O   UNL     1      -3.345  14.293  24.455  0.00  0.00    +0.000 OA
ATOM      9  C   UNL     1      -1.760  13.114  23.144  0.00  0.00    +0.000 A 
ATOM     10  C   UNL     1      -1.985  11.786  23.414  0.00  0.00    +0.000 A 
ATOM     11  C   UNL     1      -1.150  10.858  22.778  0.00  0.00    +0.000 A 
ATOM     12  C   UNL     1      -0.122  11.254  21.887  0.00  0.00    +0.000 A 
ATOM     13  C   UNL     1       0.087  12.619  21.647  0.00  0.00    +0.000 A 
ATOM     14  C   UNL     1      -0.753  13.518  22.286  0.00  0.00    +0.000 A 
ATOM     15  C   UNL     1      -0.789  14.979  22.239  0.00  0.00    +0.000 C 
ATOM     16  O   UNL     1      -0.025  15.659  21.578  0.00  0.00    +0.000 OA
ENDBRANCH   1  12
BRANCH   2  17
ATOM     17  C   UNL     1       1.459   8.798  19.440  0.00  0.00    +0.000 A 
ATOM     18  C   UNL     1       1.844   7.664  20.161  0.00  0.00    +0.000 A 
ATOM     19  C   UNL     1       2.669   6.701  19.557  0.00  0.00    +0.000 A 
ATOM     20  C   UNL     1       3.109   6.854  18.230  0.00  0.00    +0.000 A 
ATOM     21  C   UNL     1       2.717   7.992  17.518  0.00  0.00    +0.000 A 
ATOM     22  C   UNL     1       1.906   8.955  18.119  0.00  0.00    +0.000 A 
BRANCH  20  23
ATOM     23  C   UNL     1       3.950   5.797  17.551  0.00  0.00    +0.000 C 
BRANCH  23  24
ATOM     24  N   UNL     1       5.369   5.947  17.822  0.00  0.00    +0.000 N 
ATOM     25  C   UNL     1       6.156   7.046  17.318  0.00  0.00    +0.000 C 
ATOM     26  C   UNL     1       7.577   6.643  17.658  0.00  0.00    +0.000 C 
ATOM     27  C   UNL     1       7.422   5.823  18.932  0.00  0.00    +0.000 C 
ATOM     28  C   UNL     1       6.061   5.194  18.758  0.00  0.00    +0.000 C 
ATOM     29  O   UNL     1       5.644   4.230  19.377  0.00  0.00    +0.000 OA
ENDBRANCH  23  24
ENDBRANCH  20  23
ENDBRANCH   2  17
TORSDOF 4
ENDMDL
MODEL 9
REMARK VINA RESULT:      -8.1      6.260      8.584
REMARK  Name = 
REMARK  5 active torsions:
REMARK  status: ('A' for Active; 'I' for Inactive)
REMARK    1  A    between atoms: C_1  and  N_2
REMARK    2  A    between atoms: C_8  and  N_9
REMARK    3  A    between atoms: C_10  and  C_12
REMARK    4  A    between atoms: C_15  and  C_16
REMARK    5  A    between atoms: C_16  and  N_17
REMARK                            x       y       z     vdW  Elec       q    Type
REMARK                         _______ _______ _______ _____ _____    ______ ____
ROOT
ATOM      1  N   UNL     1       2.004   8.739  17.640  0.00  0.00    +0.000 N 
ATOM      2  C   UNL     1       2.509   7.605  18.260  0.00  0.00    +0.000 C 
ATOM      3  O   UNL     1       2.119   7.149  19.337  0.00  0.00    +0.000 OA
ATOM      4  H   UNL     1       2.242   8.893  16.670  0.00  0.00    +0.000 HD
ENDROOT
BRANCH   1  12
ATOM      5  C   UNL     1      -1.014  13.897  21.904  0.00  0.00    +0.000 C 
ATOM      6  N   UNL     1      -0.694  12.880  20.937  0.00  0.00    +0.000 N 
ATOM      7  C   UNL     1      -1.608  12.284  20.111  0.00  0.00    +0.000 C 
ATOM      8  O   UNL     1      -2.803  12.479  20.009  0.00  0.00    +0.000 OA
ATOM      9  C   UNL     1      -0.862  11.296  19.332  0.00  0.00    +0.000 A 
ATOM     10  C   UNL     1      -1.294  10.416  18.369  0.00  0.00    +0.000 A 
ATOM     11  C   UNL     1      -0.334   9.562  17.813  0.00  0.00    +0.000 A 
ATOM     12  C   UNL     1       1.026   9.598  18.206  0.00  0.00    +0.000 A 
ATOM     13  C   UNL     1       1.428  10.498  19.202  0.00  0.00    +0.000 A 
ATOM     14  C   UNL     1       0.460  11.335  19.737  0.00  0.00    +0.000 A 
ATOM     15  C   UNL     1       0.563  12.364  20.770  0.00  0.00    +0.000 C 
ATOM     16  O   UNL     1       1.596  12.651  21.346  0.00  0.00    +0.000 OA
ENDBRANCH   1  12
BRANCH   2  17
ATOM     17  C   UNL     1       3.573   6.839  17.551  0.00  0.00    +0.000 A 
ATOM     18  C   UNL     1       4.539   7.435  16.734  0.00  0.00    +0.000 A 
ATOM     19  C   UNL     1       5.566   6.650  16.185  0.00  0.00    +0.000 A 
ATOM     20  C   UNL     1       5.646   5.272  16.451  0.00  0.00    +0.000 A 
ATOM     21  C   UNL     1       4.675   4.687  17.272  0.00  0.00    +0.000 A 
ATOM     22  C   UNL     1       3.648   5.461  17.810  0.00  0.00    +0.000 A 
BRANCH  20  23
ATOM     23  C   UNL     1       6.779   4.429  15.913  0.00  0.00    +0.000 C 
BRANCH  23  24
ATOM     24  N   UNL     1       6.721   4.263  14.470  0.00  0.00    +0.000 N 
ATOM     25  C   UNL     1       5.679   3.521  13.804  0.00  0.00    +0.000 C 
ATOM     26  C   UNL     1       6.173   3.435  12.373  0.00  0.00    +0.000 C 
ATOM     27  C   UNL     1       6.973   4.718  12.191  0.00  0.00    +0.000 C 
ATOM     28  C   UNL     1       7.513   4.971  13.579  0.00  0.00    +0.000 C 
ATOM     29  O   UNL     1       8.444   5.710  13.850  0.00  0.00    +0.000 OA
ENDBRANCH  23  24
ENDBRANCH  20  23
ENDBRANCH   2  17
TORSDOF 4
ENDMDL
