MODEL 1
REMARK VINA RESULT:      -9.1      0.000      0.000
REMARK  Name = 
REMARK  5 active torsions:
REMARK  status: ('A' for Active; 'I' for Inactive)
REMARK    1  A    between atoms: C_2  and  C_3
REMARK    2  A    between atoms: C_6  and  C_7
REMARK    3  A    between atoms: C_10  and  O_11
REMARK    4  A    between atoms: O_11  and  C_12
REMARK    5  A    between atoms: C_18  and  C_19
REMARK                            x       y       z     vdW  Elec       q    Type
REMARK                         _______ _______ _______ _____ _____    ______ ____
ROOT
ATOM      1  C   UNL     1       0.474   9.746  20.167  0.00  0.00    +0.000 A 
ATOM      2  C   UNL     1       0.666  10.035  18.803  0.00  0.00    +0.000 A 
ATOM      3  C   UNL     1       1.483   9.246  17.994  0.00  0.00    +0.000 A 
ATOM      4  C   UNL     1       2.173   8.174  18.550  0.00  0.00    +0.000 A 
ATOM      5  C   UNL     1       2.011   7.853  19.893  0.00  0.00    +0.000 A 
ATOM      6  C   UNL     1       1.163   8.632  20.691  0.00  0.00    +0.000 A 
ENDROOT
BRANCH   1  10
ATOM      7  C   UNL     1      -2.168  12.141  22.608  0.00  0.00    +0.000 A 
ATOM      8  C   UNL     1      -1.407  11.124  23.184  0.00  0.00    +0.000 A 
ATOM      9  C   UNL     1      -0.540  10.364  22.392  0.00  0.00    +0.000 A 
ATOM     10  C   UNL     1      -0.421  10.581  21.004  0.00  0.00    +0.000 A 
ATOM     11  C   UNL     1      -1.202  11.612  20.450  0.00  0.00    +0.000 A 
ATOM     12  C   UNL     1      -2.059  12.387  21.239  0.00  0.00    +0.000 A 
BRANCH   7  14
ATOM     13  N   UNL     1      -3.773  13.559  24.070  0.00  0.00    +0.000 NA
ATOM     14  C   UNL     1      -3.054  12.923  23.415  0.00  0.00    +0.000 C 
ENDBRANCH   7  14
ENDBRANCH   1  10
BRANCH   4  15
ATOM     15  O   UNL     1       2.951   7.301  17.765  0.00  0.00    +0.000 OA
BRANCH  15  16
ATOM     16  C   UNL     1       3.375   6.087  18.286  0.00  0.00    +0.000 A 
ATOM     17  C   UNL     1       4.810   5.928  17.961  0.00  0.00    +0.000 A 
ATOM     18  C   UNL     1       5.409   4.829  18.437  0.00  0.00    +0.000 A 
ATOM     19  C   UNL     1       4.649   3.898  19.181  0.00  0.00    +0.000 A 
ATOM     20  N   UNL     1       4.960   2.763  19.762  0.00  0.00    +0.000 NA
ATOM     21  N   UNL     1       3.823   2.278  20.366  0.00  0.00    +0.000 NA
ATOM     22  C   UNL     1       2.839   3.134  20.139  0.00  0.00    +0.000 A 
ATOM     23  N   UNL     1       3.309   4.174  19.385  0.00  0.00    +0.000 N 
ATOM     24  N   UNL     1       2.623   5.271  18.950  0.00  0.00    +0.000 NA
BRANCH  22  25
ATOM     25  C   UNL     1       1.442   3.082  20.594  0.00  0.00    +0.000 C 
ATOM     26  F   UNL     1       0.593   2.664  19.617  0.00  0.00    +0.000 F 
ATOM     27  F   UNL     1       1.271   2.224  21.635  0.00  0.00    +0.000 F 
ATOM     28  F   UNL     1       0.982   4.294  21.002  0.00  0.00    +0.000 F 
ENDBRANCH  22  25
ENDBRANCH  15  16
ENDBRANCH   4  15
TORSDOF 5
ENDMDL
MODEL 2
REMARK VINA RESULT:      -9.1      0.069      1.162
REMARK  Name = 
REMARK  5 active torsions:
REMARK  status: ('A' for Active; 'I' for Inactive)
REMARK    1  A    between atoms: C_2  and  C_3
REMARK    2  A    between atoms: C_6  and  C_7
REMARK    3  A    between atoms: C_10  and  O_11
REMARK    4  A    between atoms: O_11  and  C_12
REMARK    5  A    between atoms: C_18  and  C_19
REMARK                            x       y       z     vdW  Elec       q    Type
REMARK                         _______ _______ _______ _____ _____    ______ ____
ROOT
ATOM      1  C   UNL     1       0.425   9.764  20.162  0.00  0.00    +0.000 A 
ATOM      2  C   UNL     1       0.586  10.029  18.789  0.00  0.00    +0.000 A 
ATOM      3  C   UNL     1       1.409   9.245  17.982  0.00  0.00    +0.000 A 
ATOM      4  C   UNL     1       2.136   8.202  18.548  0.00  0.00    +0.000 A 
ATOM      5  C   UNL     1       2.006   7.907  19.900  0.00  0.00    +0.000 A 
ATOM      6  C   UNL     1       1.152   8.681  20.696  0.00  0.00    +0.000 A 
ENDROOT
BRANCH   1  10
ATOM      7  C   UNL     1      -2.170  12.221  22.592  0.00  0.00    +0.000 A 
ATOM      8  C   UNL     1      -2.080  12.439  21.218  0.00  0.00    +0.000 A 
ATOM      9  C   UNL     1      -1.251  11.628  20.433  0.00  0.00    +0.000 A 
ATOM     10  C   UNL     1      -0.477  10.594  20.997  0.00  0.00    +0.000 A 
ATOM     11  C   UNL     1      -0.587  10.398  22.386  0.00  0.00    +0.000 A 
ATOM     12  C   UNL     1      -1.425  11.194  23.175  0.00  0.00    +0.000 A 
BRANCH   7  14
ATOM     13  N   UNL     1      -3.707  13.715  24.051  0.00  0.00    +0.000 NA
ATOM     14  C   UNL     1      -3.018  13.045  23.398  0.00  0.00    +0.000 C 
ENDBRANCH   7  14
ENDBRANCH   1  10
BRANCH   4  15
ATOM     15  O   UNL     1       2.923   7.334  17.768  0.00  0.00    +0.000 OA
BRANCH  15  16
ATOM     16  C   UNL     1       3.348   6.121  18.291  0.00  0.00    +0.000 A 
ATOM     17  C   UNL     1       4.789   5.972  17.986  0.00  0.00    +0.000 A 
ATOM     18  C   UNL     1       5.388   4.875  18.466  0.00  0.00    +0.000 A 
ATOM     19  C   UNL     1       4.623   3.937  19.195  0.00  0.00    +0.000 A 
ATOM     20  N   UNL     1       4.933   2.802  19.777  0.00  0.00    +0.000 NA
ATOM     21  N   UNL     1       3.791   2.307  20.363  0.00  0.00    +0.000 NA
ATOM     22  C   UNL     1       2.805   3.157  20.124  0.00  0.00    +0.000 A 
ATOM     23  N   UNL     1       3.278   4.203  19.382  0.00  0.00    +0.000 N 
ATOM     24  N   UNL     1       2.592   5.297  18.941  0.00  0.00    +0.000 NA
BRANCH  22  25
ATOM     25  C   UNL     1       1.402   3.094  20.559  0.00  0.00    +0.000 C 
ATOM     26  F   UNL     1       1.227   2.275  21.631  0.00  0.00    +0.000 F 
ATOM     27  F   UNL     1       0.924   4.312  20.933  0.00  0.00    +0.000 F 
ATOM     28  F   UNL     1       0.576   2.627  19.587  0.00  0.00    +0.000 F 
ENDBRANCH  22  25
ENDBRANCH  15  16
ENDBRANCH   4  15
TORSDOF 5
ENDMDL
MODEL 3
REMARK VINA RESULT:      -9.1      3.378      3.996
REMARK  Name = 
REMARK  5 active torsions:
REMARK  status: ('A' for Active; 'I' for Inactive)
REMARK    1  A    between atoms: C_2  and  C_3
REMARK    2  A    between atoms: C_6  and  C_7
REMARK    3  A    between atoms: C_10  and  O_11
REMARK    4  A    between atoms: O_11  and  C_12
REMARK    5  A    between atoms: C_18  and  C_19
REMARK                            x       y       z     vdW  Elec       q    Type
REMARK                         _______ _______ _______ _____ _____    ______ ____
ROOT
ATOM      1  C   UNL     1       1.134   9.012  20.278  0.00  0.00    +0.000 A 
ATOM      2  C   UNL     1       1.519   9.115  18.928  0.00  0.00    +0.000 A 
ATOM      3  C   UNL     1       2.017   8.020  18.222  0.00  0.00    +0.000 A 
ATOM      4  C   UNL     1       2.191   6.803  18.872  0.00  0.00    +0.000 A 
ATOM      5  C   UNL     1       1.823   6.658  20.205  0.00  0.00    +0.000 A 
ATOM      6  C   UNL     1       1.294   7.755  20.897  0.00  0.00    +0.000 A 
ENDROOT
BRANCH   1  10
ATOM      7  C   UNL     1      -0.524  12.411  22.369  0.00  0.00    +0.000 A 
ATOM      8  C   UNL     1      -0.827  11.114  22.784  0.00  0.00    +0.000 A 
ATOM      9  C   UNL     1      -0.272  10.018  22.114  0.00  0.00    +0.000 A 
ATOM     10  C   UNL     1       0.581  10.181  21.003  0.00  0.00    +0.000 A 
ATOM     11  C   UNL     1       0.867  11.500  20.607  0.00  0.00    +0.000 A 
ATOM     12  C   UNL     1       0.329  12.602  21.282  0.00  0.00    +0.000 A 
BRANCH   7  14
ATOM     13  N   UNL     1      -1.543  14.447  23.609  0.00  0.00    +0.000 NA
ATOM     14  C   UNL     1      -1.086  13.535  23.053  0.00  0.00    +0.000 C 
ENDBRANCH   7  14
ENDBRANCH   1  10
BRANCH   4  15
ATOM     15  O   UNL     1       2.619   5.648  18.190  0.00  0.00    +0.000 OA
BRANCH  15  16
ATOM     16  C   UNL     1       3.974   5.401  18.022  0.00  0.00    +0.000 A 
ATOM     17  C   UNL     1       4.601   5.366  19.363  0.00  0.00    +0.000 A 
ATOM     18  C   UNL     1       5.908   5.082  19.400  0.00  0.00    +0.000 A 
ATOM     19  C   UNL     1       6.600   4.863  18.188  0.00  0.00    +0.000 A 
ATOM     20  N   UNL     1       7.852   4.568  17.923  0.00  0.00    +0.000 NA
ATOM     21  N   UNL     1       7.972   4.451  16.557  0.00  0.00    +0.000 NA
ATOM     22  C   UNL     1       6.785   4.677  16.018  0.00  0.00    +0.000 A 
ATOM     23  N   UNL     1       5.883   4.951  17.009  0.00  0.00    +0.000 N 
ATOM     24  N   UNL     1       4.552   5.221  16.878  0.00  0.00    +0.000 NA
BRANCH  22  25
ATOM     25  C   UNL     1       6.388   4.642  14.603  0.00  0.00    +0.000 C 
ATOM     26  F   UNL     1       7.416   4.952  13.768  0.00  0.00    +0.000 F 
ATOM     27  F   UNL     1       5.950   3.412  14.222  0.00  0.00    +0.000 F 
ATOM     28  F   UNL     1       5.391   5.522  14.320  0.00  0.00    +0.000 F 
ENDBRANCH  22  25
ENDBRANCH  15  16
ENDBRANCH   4  15
TORSDOF 5
ENDMDL
MODEL 4
REMARK VINA RESULT:      -9.0      5.999      7.356
REMARK  Name = 
REMARK  5 active torsions:
REMARK  status: ('A' for Active; 'I' for Inactive)
REMARK    1  A    between atoms: C_2  and  C_3
REMARK    2  A    between atoms: C_6  and  C_7
REMARK    3  A    between atoms: C_10  and  O_11
REMARK    4  A    between atoms: O_11  and  C_12
REMARK    5  A    between atoms: C_18  and  C_19
REMARK                            x       y       z     vdW  Elec       q    Type
REMARK                         _______ _______ _______ _____ _____    ______ ____
ROOT
ATOM      1  C   UNL     1       8.040   8.162  18.311  0.00  0.00    +0.000 A 
ATOM      2  C   UNL     1       7.103   7.783  17.331  0.00  0.00    +0.000 A 
ATOM      3  C   UNL     1       6.591   6.487  17.267  0.00  0.00    +0.000 A 
ATOM      4  C   UNL     1       7.049   5.523  18.159  0.00  0.00    +0.000 A 
ATOM      5  C   UNL     1       7.973   5.855  19.143  0.00  0.00    +0.000 A 
ATOM      6  C   UNL     1       8.458   7.167  19.218  0.00  0.00    +0.000 A 
ENDROOT
BRANCH   1  10
ATOM      7  C   UNL     1       9.502  12.222  18.549  0.00  0.00    +0.000 A 
ATOM      8  C   UNL     1       9.988  11.247  19.420  0.00  0.00    +0.000 A 
ATOM      9  C   UNL     1       9.524   9.930  19.326  0.00  0.00    +0.000 A 
ATOM     10  C   UNL     1       8.551   9.553  18.378  0.00  0.00    +0.000 A 
ATOM     11  C   UNL     1       8.078  10.557  17.514  0.00  0.00    +0.000 A 
ATOM     12  C   UNL     1       8.549  11.873  17.591  0.00  0.00    +0.000 A 
BRANCH   7  14
ATOM     13  N   UNL     1      10.361  14.663  18.711  0.00  0.00    +0.000 NA
ATOM     14  C   UNL     1       9.975  13.569  18.639  0.00  0.00    +0.000 C 
ENDBRANCH   7  14
ENDBRANCH   1  10
BRANCH   4  15
ATOM     15  O   UNL     1       6.513   4.221  18.188  0.00  0.00    +0.000 OA
BRANCH  15  16
ATOM     16  C   UNL     1       5.138   4.035  18.193  0.00  0.00    +0.000 A 
ATOM     17  C   UNL     1       4.665   4.086  16.791  0.00  0.00    +0.000 A 
ATOM     18  C   UNL     1       3.359   3.868  16.596  0.00  0.00    +0.000 A 
ATOM     19  C   UNL     1       2.526   3.635  17.712  0.00  0.00    +0.000 A 
ATOM     20  N   UNL     1       1.240   3.391  17.823  0.00  0.00    +0.000 NA
ATOM     21  N   UNL     1       0.961   3.225  19.161  0.00  0.00    +0.000 NA
ATOM     22  C   UNL     1       2.089   3.370  19.838  0.00  0.00    +0.000 A 
ATOM     23  N   UNL     1       3.109   3.639  18.967  0.00  0.00    +0.000 N 
ATOM     24  N   UNL     1       4.428   3.837  19.256  0.00  0.00    +0.000 NA
BRANCH  22  25
ATOM     25  C   UNL     1       2.322   3.258  21.285  0.00  0.00    +0.000 C 
ATOM     26  F   UNL     1       1.234   2.787  21.951  0.00  0.00    +0.000 F 
ATOM     27  F   UNL     1       3.341   2.406  21.577  0.00  0.00    +0.000 F 
ATOM     28  F   UNL     1       2.629   4.452  21.857  0.00  0.00    +0.000 F 
ENDBRANCH  22  25
ENDBRANCH  15  16
ENDBRANCH   4  15
TORSDOF 5
ENDMDL
MODEL 5
REMARK VINA RESULT:      -9.0      0.265      1.187
REMARK  Name = 
REMARK  5 active torsions:
REMARK  status: ('A' for Active; 'I' for Inactive)
REMARK    1  A    between atoms: C_2  and  C_3
REMARK    2  A    between atoms: C_6  and  C_7
REMARK    3  A    between atoms: C_10  and  O_11
REMARK    4  A    between atoms: O_11  and  C_12
REMARK    5  A    between atoms: C_18  and  C_19
REMARK                            x       y       z     vdW  Elec       q    Type
REMARK                         _______ _______ _______ _____ _____    ______ ____
ROOT
ATOM      1  C   UNL     1       0.311   9.943  20.138  0.00  0.00    +0.000 A 
ATOM      2  C   UNL     1       0.995   8.880  20.756  0.00  0.00    +0.000 A 
ATOM      3  C   UNL     1       1.857   8.048  20.042  0.00  0.00    +0.000 A 
ATOM      4  C   UNL     1       2.012   8.232  18.672  0.00  0.00    +0.000 A 
ATOM      5  C   UNL     1       1.355   9.271  18.022  0.00  0.00    +0.000 A 
ATOM      6  C   UNL     1       0.516  10.121  18.754  0.00  0.00    +0.000 A 
ENDROOT
BRANCH   1  10
ATOM      7  C   UNL     1      -2.316  12.498  22.427  0.00  0.00    +0.000 A 
ATOM      8  C   UNL     1      -1.532  11.541  23.069  0.00  0.00    +0.000 A 
ATOM      9  C   UNL     1      -0.669  10.729  22.324  0.00  0.00    +0.000 A 
ATOM     10  C   UNL     1      -0.580  10.834  20.922  0.00  0.00    +0.000 A 
ATOM     11  C   UNL     1      -1.384  11.806  20.301  0.00  0.00    +0.000 A 
ATOM     12  C   UNL     1      -2.237  12.633  21.041  0.00  0.00    +0.000 A 
BRANCH   7  14
ATOM     13  N   UNL     1      -3.913  14.012  23.800  0.00  0.00    +0.000 NA
ATOM     14  C   UNL     1      -3.198  13.333  23.185  0.00  0.00    +0.000 C 
ENDBRANCH   7  14
ENDBRANCH   1  10
BRANCH   4  15
ATOM     15  O   UNL     1       2.924   7.470  17.916  0.00  0.00    +0.000 OA
BRANCH  15  16
ATOM     16  C   UNL     1       3.344   6.230  18.376  0.00  0.00    +0.000 A 
ATOM     17  C   UNL     1       4.776   6.078  18.035  0.00  0.00    +0.000 A 
ATOM     18  C   UNL     1       5.370   4.954  18.455  0.00  0.00    +0.000 A 
ATOM     19  C   UNL     1       4.609   3.993  19.157  0.00  0.00    +0.000 A 
ATOM     20  N   UNL     1       4.916   2.830  19.682  0.00  0.00    +0.000 NA
ATOM     21  N   UNL     1       3.779   2.323  20.268  0.00  0.00    +0.000 NA
ATOM     22  C   UNL     1       2.799   3.194  20.088  0.00  0.00    +0.000 A 
ATOM     23  N   UNL     1       3.271   4.266  19.382  0.00  0.00    +0.000 N 
ATOM     24  N   UNL     1       2.590   5.387  19.004  0.00  0.00    +0.000 NA
BRANCH  22  25
ATOM     25  C   UNL     1       1.404   3.129  20.548  0.00  0.00    +0.000 C 
ATOM     26  F   UNL     1       1.247   2.293  21.609  0.00  0.00    +0.000 F 
ATOM     27  F   UNL     1       0.938   4.342  20.949  0.00  0.00    +0.000 F 
ATOM     28  F   UNL     1       0.559   2.679  19.584  0.00  0.00    +0.000 F 
ENDBRANCH  22  25
ENDBRANCH  15  16
ENDBRANCH   4  15
TORSDOF 5
ENDMDL
MODEL 6
REMARK VINA RESULT:      -9.0      5.970      7.465
REMARK  Name = 
REMARK  5 active torsions:
REMARK  status: ('A' for Active; 'I' for Inactive)
REMARK    1  A    between atoms: C_2  and  C_3
REMARK    2  A    between atoms: C_6  and  C_7
REMARK    3  A    between atoms: C_10  and  O_11
REMARK    4  A    between atoms: O_11  and  C_12
REMARK    5  A    between atoms: C_18  and  C_19
REMARK                            x       y       z     vdW  Elec       q    Type
REMARK                         _______ _______ _______ _____ _____    ______ ____
ROOT
ATOM      1  C   UNL     1       8.061   8.218  18.291  0.00  0.00    +0.000 A 
ATOM      2  C   UNL     1       7.178   7.819  17.270  0.00  0.00    +0.000 A 
ATOM      3  C   UNL     1       6.672   6.521  17.202  0.00  0.00    +0.000 A 
ATOM      4  C   UNL     1       7.086   5.573  18.132  0.00  0.00    +0.000 A 
ATOM      5  C   UNL     1       7.958   5.924  19.156  0.00  0.00    +0.000 A 
ATOM      6  C   UNL     1       8.435   7.239  19.235  0.00  0.00    +0.000 A 
ENDROOT
BRANCH   1  10
ATOM      7  C   UNL     1       9.557  12.269  18.451  0.00  0.00    +0.000 A 
ATOM      8  C   UNL     1       8.563  11.922  17.536  0.00  0.00    +0.000 A 
ATOM      9  C   UNL     1       8.070  10.613  17.501  0.00  0.00    +0.000 A 
ATOM     10  C   UNL     1       8.566   9.611  18.360  0.00  0.00    +0.000 A 
ATOM     11  C   UNL     1       9.569   9.989  19.271  0.00  0.00    +0.000 A 
ATOM     12  C   UNL     1      10.056  11.300  19.323  0.00  0.00    +0.000 A 
BRANCH   7  14
ATOM     13  N   UNL     1      10.475  14.693  18.524  0.00  0.00    +0.000 NA
ATOM     14  C   UNL     1      10.063  13.607  18.492  0.00  0.00    +0.000 C 
ENDBRANCH   7  14
ENDBRANCH   1  10
BRANCH   4  15
ATOM     15  O   UNL     1       6.552   4.270  18.155  0.00  0.00    +0.000 OA
BRANCH  15  16
ATOM     16  C   UNL     1       5.177   4.081  18.145  0.00  0.00    +0.000 A 
ATOM     17  C   UNL     1       4.723   4.110  16.737  0.00  0.00    +0.000 A 
ATOM     18  C   UNL     1       3.420   3.887  16.528  0.00  0.00    +0.000 A 
ATOM     19  C   UNL     1       2.573   3.669  17.637  0.00  0.00    +0.000 A 
ATOM     20  N   UNL     1       1.286   3.425  17.735  0.00  0.00    +0.000 NA
ATOM     21  N   UNL     1       0.990   3.278  19.071  0.00  0.00    +0.000 NA
ATOM     22  C   UNL     1       2.109   3.435  19.760  0.00  0.00    +0.000 A 
ATOM     23  N   UNL     1       3.139   3.693  18.899  0.00  0.00    +0.000 N 
ATOM     24  N   UNL     1       4.454   3.899  19.202  0.00  0.00    +0.000 NA
BRANCH  22  25
ATOM     25  C   UNL     1       2.323   3.346  21.212  0.00  0.00    +0.000 C 
ATOM     26  F   UNL     1       3.356   2.521  21.534  0.00  0.00    +0.000 F 
ATOM     27  F   UNL     1       2.618   4.553  21.764  0.00  0.00    +0.000 F 
ATOM     28  F   UNL     1       1.236   2.865  21.870  0.00  0.00    +0.000 F 
ENDBRANCH  22  25
ENDBRANCH  15  16
ENDBRANCH   4  15
TORSDOF 5
ENDMDL
MODEL 7
REMARK VINA RESULT:      -8.9      3.432      4.140
REMARK  Name = 
REMARK  5 active torsions:
REMARK  status: ('A' for Active; 'I' for Inactive)
REMARK    1  A    between atoms: C_2  and  C_3
REMARK    2  A    between atoms: C_6  and  C_7
REMARK    3  A    between atoms: C_10  and  O_11
REMARK    4  A    between atoms: O_11  and  C_12
REMARK    5  A    between atoms: C_18  and  C_19
REMARK                            x       y       z     vdW  Elec       q    Type
REMARK                         _______ _______ _______ _____ _____    ______ ____
ROOT
ATOM      1  C   UNL     1       1.224   9.312  20.001  0.00  0.00    +0.000 A 
ATOM      2  C   UNL     1       1.583   9.344  18.641  0.00  0.00    +0.000 A 
ATOM      3  C   UNL     1       2.055   8.211  17.979  0.00  0.00    +0.000 A 
ATOM      4  C   UNL     1       2.227   7.025  18.685  0.00  0.00    +0.000 A 
ATOM      5  C   UNL     1       1.884   6.949  20.029  0.00  0.00    +0.000 A 
ATOM      6  C   UNL     1       1.381   8.085  20.678  0.00  0.00    +0.000 A 
ENDROOT
BRANCH   1  10
ATOM      7  C   UNL     1      -0.262  12.845  21.997  0.00  0.00    +0.000 A 
ATOM      8  C   UNL     1       0.580  12.963  20.891  0.00  0.00    +0.000 A 
ATOM      9  C   UNL     1       1.043  11.816  20.238  0.00  0.00    +0.000 A 
ATOM     10  C   UNL     1       0.698  10.522  20.679  0.00  0.00    +0.000 A 
ATOM     11  C   UNL     1      -0.150  10.433  21.797  0.00  0.00    +0.000 A 
ATOM     12  C   UNL     1      -0.630  11.576  22.447  0.00  0.00    +0.000 A 
BRANCH   7  14
ATOM     13  N   UNL     1      -1.127  14.967  23.211  0.00  0.00    +0.000 NA
ATOM     14  C   UNL     1      -0.740  14.016  22.668  0.00  0.00    +0.000 C 
ENDBRANCH   7  14
ENDBRANCH   1  10
BRANCH   4  15
ATOM     15  O   UNL     1       2.629   5.833  18.051  0.00  0.00    +0.000 OA
BRANCH  15  16
ATOM     16  C   UNL     1       3.976   5.516  17.953  0.00  0.00    +0.000 A 
ATOM     17  C   UNL     1       4.529   5.451  19.325  0.00  0.00    +0.000 A 
ATOM     18  C   UNL     1       5.817   5.099  19.430  0.00  0.00    +0.000 A 
ATOM     19  C   UNL     1       6.559   4.844  18.255  0.00  0.00    +0.000 A 
ATOM     20  N   UNL     1       7.806   4.485  18.054  0.00  0.00    +0.000 NA
ATOM     21  N   UNL     1       7.991   4.360  16.696  0.00  0.00    +0.000 NA
ATOM     22  C   UNL     1       6.847   4.647  16.097  0.00  0.00    +0.000 A 
ATOM     23  N   UNL     1       5.909   4.967  17.040  0.00  0.00    +0.000 N 
ATOM     24  N   UNL     1       4.602   5.306  16.841  0.00  0.00    +0.000 NA
BRANCH  22  25
ATOM     25  C   UNL     1       6.522   4.631  14.663  0.00  0.00    +0.000 C 
ATOM     26  F   UNL     1       5.487   5.459  14.356  0.00  0.00    +0.000 F 
ATOM     27  F   UNL     1       7.569   5.034  13.894  0.00  0.00    +0.000 F 
ATOM     28  F   UNL     1       6.161   3.396  14.224  0.00  0.00    +0.000 F 
ENDBRANCH  22  25
ENDBRANCH  15  16
ENDBRANCH   4  15
TORSDOF 5
ENDMDL
MODEL 8
REMARK VINA RESULT:      -8.9      0.835      1.615
REMARK  Name = 
REMARK  5 active torsions:
REMARK  status: ('A' for Active; 'I' for Inactive)
REMARK    1  A    between atoms: C_2  and  C_3
REMARK    2  A    between atoms: C_6  and  C_7
REMARK    3  A    between atoms: C_10  and  O_11
REMARK    4  A    between atoms: O_11  and  C_12
REMARK    5  A    between atoms: C_18  and  C_19
REMARK                            x       y       z     vdW  Elec       q    Type
REMARK                         _______ _______ _______ _____ _____    ______ ____
ROOT
ATOM      1  C   UNL     1       0.512   9.721  20.145  0.00  0.00    +0.000 A 
ATOM      2  C   UNL     1       1.131   8.597  20.725  0.00  0.00    +0.000 A 
ATOM      3  C   UNL     1       2.027   7.802  20.010  0.00  0.00    +0.000 A 
ATOM      4  C   UNL     1       2.283   8.088  18.672  0.00  0.00    +0.000 A 
ATOM      5  C   UNL     1       1.693   9.188  18.061  0.00  0.00    +0.000 A 
ATOM      6  C   UNL     1       0.819   9.999  18.797  0.00  0.00    +0.000 A 
ENDROOT
BRANCH   1  10
ATOM      7  C   UNL     1      -2.160  12.231  22.432  0.00  0.00    +0.000 A 
ATOM      8  C   UNL     1      -2.062  12.385  21.049  0.00  0.00    +0.000 A 
ATOM      9  C   UNL     1      -1.208  11.557  20.312  0.00  0.00    +0.000 A 
ATOM     10  C   UNL     1      -0.416  10.569  20.931  0.00  0.00    +0.000 A 
ATOM     11  C   UNL     1      -0.534  10.438  22.327  0.00  0.00    +0.000 A 
ATOM     12  C   UNL     1      -1.397  11.252  23.069  0.00  0.00    +0.000 A 
BRANCH   7  14
ATOM     13  N   UNL     1      -3.744  13.758  23.805  0.00  0.00    +0.000 NA
ATOM     14  C   UNL     1      -3.033  13.075  23.190  0.00  0.00    +0.000 C 
ENDBRANCH   7  14
ENDBRANCH   1  10
BRANCH   4  15
ATOM     15  O   UNL     1       3.233   7.364  17.926  0.00  0.00    +0.000 OA
BRANCH  15  16
ATOM     16  C   UNL     1       3.296   5.982  18.032  0.00  0.00    +0.000 A 
ATOM     17  C   UNL     1       4.155   5.480  16.936  0.00  0.00    +0.000 A 
ATOM     18  C   UNL     1       4.377   4.159  16.913  0.00  0.00    +0.000 A 
ATOM     19  C   UNL     1       3.773   3.343  17.895  0.00  0.00    +0.000 A 
ATOM     20  N   UNL     1       3.814   2.050  18.120  0.00  0.00    +0.000 NA
ATOM     21  N   UNL     1       3.044   1.796  19.232  0.00  0.00    +0.000 NA
ATOM     22  C   UNL     1       2.550   2.945  19.663  0.00  0.00    +0.000 A 
ATOM     23  N   UNL     1       2.976   3.955  18.845  0.00  0.00    +0.000 N 
ATOM     24  N   UNL     1       2.707   5.289  18.952  0.00  0.00    +0.000 NA
BRANCH  22  25
ATOM     25  C   UNL     1       1.695   3.207  20.829  0.00  0.00    +0.000 C 
ATOM     26  F   UNL     1       1.462   2.087  21.564  0.00  0.00    +0.000 F 
ATOM     27  F   UNL     1       2.251   4.109  21.683  0.00  0.00    +0.000 F 
ATOM     28  F   UNL     1       0.474   3.692  20.481  0.00  0.00    +0.000 F 
ENDBRANCH  22  25
ENDBRANCH  15  16
ENDBRANCH   4  15
TORSDOF 5
ENDMDL
MODEL 9
REMARK VINA RESULT:      -8.8      0.936      1.647
REMARK  Name = 
REMARK  5 active torsions:
REMARK  status: ('A' for Active; 'I' for Inactive)
REMARK    1  A    between atoms: C_2  and  C_3
REMARK    2  A    between atoms: C_6  and  C_7
REMARK    3  A    between atoms: C_10  and  O_11
REMARK    4  A    between atoms: O_11  and  C_12
REMARK    5  A    between atoms: C_18  and  C_19
REMARK                            x       y       z     vdW  Elec       q    Type
REMARK                         _______ _______ _______ _____ _____    ______ ____
ROOT
ATOM      1  C   UNL     1       0.813  10.258  20.274  0.00  0.00    +0.000 A 
ATOM      2  C   UNL     1       1.149   8.980  20.758  0.00  0.00    +0.000 A 
ATOM      3  C   UNL     1       1.773   8.029  19.950  0.00  0.00    +0.000 A 
ATOM      4  C   UNL     1       2.028   8.324  18.614  0.00  0.00    +0.000 A 
ATOM      5  C   UNL     1       1.712   9.574  18.096  0.00  0.00    +0.000 A 
ATOM      6  C   UNL     1       1.114  10.533  18.924  0.00  0.00    +0.000 A 
ENDROOT
BRANCH   1  10
ATOM      7  C   UNL     1      -1.002  13.192  22.876  0.00  0.00    +0.000 A 
ATOM      8  C   UNL     1      -0.123  13.592  21.870  0.00  0.00    +0.000 A 
ATOM      9  C   UNL     1       0.448  12.639  21.019  0.00  0.00    +0.000 A 
ATOM     10  C   UNL     1       0.175  11.263  21.159  0.00  0.00    +0.000 A 
ATOM     11  C   UNL     1      -0.713  10.889  22.182  0.00  0.00    +0.000 A 
ATOM     12  C   UNL     1      -1.300  11.838  23.027  0.00  0.00    +0.000 A 
BRANCH   7  14
ATOM     13  N   UNL     1      -2.067  14.954  24.453  0.00  0.00    +0.000 NA
ATOM     14  C   UNL     1      -1.590  14.164  23.747  0.00  0.00    +0.000 C 
ENDBRANCH   7  14
ENDBRANCH   1  10
BRANCH   4  15
ATOM     15  O   UNL     1       2.721   7.431  17.774  0.00  0.00    +0.000 OA
BRANCH  15  16
ATOM     16  C   UNL     1       3.190   6.225  18.276  0.00  0.00    +0.000 A 
ATOM     17  C   UNL     1       4.630   6.124  17.947  0.00  0.00    +0.000 A 
ATOM     18  C   UNL     1       5.270   5.041  18.405  0.00  0.00    +0.000 A 
ATOM     19  C   UNL     1       4.546   4.072  19.134  0.00  0.00    +0.000 A 
ATOM     20  N   UNL     1       4.900   2.940  19.698  0.00  0.00    +0.000 NA
ATOM     21  N   UNL     1       3.782   2.404  20.295  0.00  0.00    +0.000 NA
ATOM     22  C   UNL     1       2.767   3.225  20.082  0.00  0.00    +0.000 A 
ATOM     23  N   UNL     1       3.197   4.294  19.345  0.00  0.00    +0.000 N 
ATOM     24  N   UNL     1       2.470   5.371  18.928  0.00  0.00    +0.000 NA
BRANCH  22  25
ATOM     25  C   UNL     1       1.374   3.115  20.538  0.00  0.00    +0.000 C 
ATOM     26  F   UNL     1       0.858   4.313  20.923  0.00  0.00    +0.000 F 
ATOM     27  F   UNL     1       0.549   2.644  19.564  0.00  0.00    +0.000 F 
ATOM     28  F   UNL     1       1.239   2.284  21.605  0.00  0.00    +0.000 F 
ENDBRANCH  22  25
ENDBRANCH  15  16
ENDBRANCH   4  15
TORSDOF 5
ENDMDL
