MODEL 1
REMARK VINA RESULT:      -8.5      0.000      0.000
REMARK  Name = 
REMARK  7 active torsions:
REMARK  status: ('A' for Active; 'I' for Inactive)
REMARK    1  A    between atoms: C_1  and  N_2
REMARK    2  A    between atoms: C_6  and  C_7
REMARK    3  A    between atoms: C_7  and  C_8
REMARK    4  A    between atoms: C_8  and  C_9
REMARK    5  A    between atoms: C_12  and  O_13
REMARK    6  A    between atoms: O_13  and  C_14
REMARK    7  A    between atoms: C_16  and  N_17
REMARK                            x       y       z     vdW  Elec       q    Type
REMARK                         _______ _______ _______ _____ _____    ______ ____
ROOT
ATOM      1  C   UNL     1       5.456   5.364  18.780  0.00  0.00    +0.000 A 
ATOM      2  C   UNL     1       5.067   4.069  19.177  0.00  0.00    +0.000 A 
ATOM      3  C   UNL     1       3.773   3.784  19.589  0.00  0.00    +0.000 A 
ATOM      4  C   UNL     1       2.827   4.800  19.620  0.00  0.00    +0.000 A 
ATOM      5  C   UNL     1       3.185   6.145  19.339  0.00  0.00    +0.000 A 
ATOM      6  C   UNL     1       4.482   6.387  18.859  0.00  0.00    +0.000 A 
ENDROOT
BRANCH   5   7
ATOM      7  N   UNL     1       2.305   7.171  19.565  0.00  0.00    +0.000 N 
ATOM      8  C   UNL     1       1.454   7.469  20.734  0.00  0.00    +0.000 C 
ATOM      9  C   UNL     1       1.054   8.897  20.416  0.00  0.00    +0.000 A 
ATOM     10  C   UNL     1       0.518   9.892  21.214  0.00  0.00    +0.000 A 
ATOM     11  C   UNL     1       0.531  11.210  20.725  0.00  0.00    +0.000 A 
ATOM     12  C   UNL     1       1.090  11.511  19.470  0.00  0.00    +0.000 A 
ATOM     13  C   UNL     1       1.529  10.486  18.646  0.00  0.00    +0.000 A 
ATOM     14  F   UNL     1       2.093  10.755  17.464  0.00  0.00    +0.000 F 
ATOM     15  C   UNL     1       1.451   9.194  19.104  0.00  0.00    +0.000 A 
ATOM     16  C   UNL     1       1.854   7.951  18.410  0.00  0.00    +0.000 C 
ENDBRANCH   5   7
BRANCH   1  17
ATOM     17  C   UNL     1       6.942   5.640  18.255  0.00  0.00    +0.000 C 
ATOM     18  C   UNL     1       7.316   7.069  17.775  0.00  0.00    +0.000 C 
ATOM     19  O   UNL     1       8.388   7.176  18.738  0.00  0.00    +0.000 OA
ATOM     20  C   UNL     1       8.000   5.936  19.358  0.00  0.00    +0.000 C 
BRANCH  17  21
ATOM     21  C   UNL     1       7.389   4.491  17.337  0.00  0.00    +0.000 C 
BRANCH  21  27
ATOM     22  C   UNL     1       4.756   3.395  15.905  0.00  0.00    +0.000 C 
ATOM     23  N   UNL     1       5.851   4.111  15.310  0.00  0.00    +0.000 N 
ATOM     24  C   UNL     1       5.972   4.379  13.980  0.00  0.00    +0.000 A 
ATOM     25  N   UNL     1       7.050   5.085  13.764  0.00  0.00    +0.000 NA
ATOM     26  N   UNL     1       7.683   5.244  14.978  0.00  0.00    +0.000 NA
ATOM     27  C   UNL     1       6.965   4.644  15.907  0.00  0.00    +0.000 A 
ENDBRANCH  21  27
ENDBRANCH  17  21
ENDBRANCH   1  17
BRANCH   4  28
ATOM     28  O   UNL     1       1.514   4.544  19.945  0.00  0.00    +0.000 OA
BRANCH  28  29
ATOM     29  C   UNL     1       1.231   3.212  20.346  0.00  0.00    +0.000 C 
ATOM     30  F   UNL     1       1.230   3.175  21.704  0.00  0.00    +0.000 F 
ENDBRANCH  28  29
ENDBRANCH   4  28
TORSDOF 6
ENDMDL
MODEL 2
REMARK VINA RESULT:      -8.1      2.104      3.165
REMARK  Name = 
REMARK  7 active torsions:
REMARK  status: ('A' for Active; 'I' for Inactive)
REMARK    1  A    between atoms: C_1  and  N_2
REMARK    2  A    between atoms: C_6  and  C_7
REMARK    3  A    between atoms: C_7  and  C_8
REMARK    4  A    between atoms: C_8  and  C_9
REMARK    5  A    between atoms: C_12  and  O_13
REMARK    6  A    between atoms: O_13  and  C_14
REMARK    7  A    between atoms: C_16  and  N_17
REMARK                            x       y       z     vdW  Elec       q    Type
REMARK                         _______ _______ _______ _____ _____    ______ ____
ROOT
ATOM      1  C   UNL     1       4.600   4.561  17.071  0.00  0.00    +0.000 A 
ATOM      2  C   UNL     1       4.065   3.440  17.737  0.00  0.00    +0.000 A 
ATOM      3  C   UNL     1       2.962   3.539  18.574  0.00  0.00    +0.000 A 
ATOM      4  C   UNL     1       2.365   4.777  18.772  0.00  0.00    +0.000 A 
ATOM      5  C   UNL     1       2.925   5.959  18.220  0.00  0.00    +0.000 A 
ATOM      6  C   UNL     1       3.996   5.815  17.324  0.00  0.00    +0.000 A 
ENDROOT
BRANCH   5   7
ATOM      7  N   UNL     1       2.457   7.196  18.580  0.00  0.00    +0.000 N 
ATOM      8  C   UNL     1       2.314   8.437  17.794  0.00  0.00    +0.000 C 
ATOM      9  C   UNL     1       1.427   9.242  18.724  0.00  0.00    +0.000 A 
ATOM     10  C   UNL     1       0.655  10.369  18.499  0.00  0.00    +0.000 A 
ATOM     11  C   UNL     1      -0.300  10.719  19.469  0.00  0.00    +0.000 A 
ATOM     12  C   UNL     1      -0.480   9.937  20.625  0.00  0.00    +0.000 A 
ATOM     13  C   UNL     1       0.371   8.873  20.877  0.00  0.00    +0.000 A 
ATOM     14  F   UNL     1       0.194   8.097  21.953  0.00  0.00    +0.000 F 
ATOM     15  C   UNL     1       1.345   8.576  19.956  0.00  0.00    +0.000 A 
ATOM     16  C   UNL     1       2.358   7.499  20.010  0.00  0.00    +0.000 C 
ENDBRANCH   5   7
BRANCH   1  17
ATOM     17  C   UNL     1       5.836   4.396  16.068  0.00  0.00    +0.000 C 
ATOM     18  C   UNL     1       5.769   3.303  14.968  0.00  0.00    +0.000 C 
ATOM     19  O   UNL     1       5.945   4.273  13.911  0.00  0.00    +0.000 OA
ATOM     20  C   UNL     1       5.843   5.362  14.847  0.00  0.00    +0.000 C 
BRANCH  17  21
ATOM     21  C   UNL     1       7.154   4.469  16.855  0.00  0.00    +0.000 C 
BRANCH  21  27
ATOM     22  C   UNL     1       7.827   5.541  19.785  0.00  0.00    +0.000 C 
ATOM     23  N   UNL     1       7.770   6.294  18.561  0.00  0.00    +0.000 N 
ATOM     24  C   UNL     1       7.930   7.643  18.472  0.00  0.00    +0.000 A 
ATOM     25  N   UNL     1       7.871   8.016  17.222  0.00  0.00    +0.000 NA
ATOM     26  N   UNL     1       7.615   6.889  16.471  0.00  0.00    +0.000 NA
ATOM     27  C   UNL     1       7.541   5.853  17.282  0.00  0.00    +0.000 A 
ENDBRANCH  21  27
ENDBRANCH  17  21
ENDBRANCH   1  17
BRANCH   4  28
ATOM     28  O   UNL     1       1.223   4.905  19.531  0.00  0.00    +0.000 OA
BRANCH  28  29
ATOM     29  C   UNL     1       1.105   4.002  20.618  0.00  0.00    +0.000 C 
ATOM     30  F   UNL     1       1.999   4.374  21.571  0.00  0.00    +0.000 F 
ENDBRANCH  28  29
ENDBRANCH   4  28
TORSDOF 6
ENDMDL
MODEL 3
REMARK VINA RESULT:      -8.1      3.271      4.994
REMARK  Name = 
REMARK  7 active torsions:
REMARK  status: ('A' for Active; 'I' for Inactive)
REMARK    1  A    between atoms: C_1  and  N_2
REMARK    2  A    between atoms: C_6  and  C_7
REMARK    3  A    between atoms: C_7  and  C_8
REMARK    4  A    between atoms: C_8  and  C_9
REMARK    5  A    between atoms: C_12  and  O_13
REMARK    6  A    between atoms: O_13  and  C_14
REMARK    7  A    between atoms: C_16  and  N_17
REMARK                            x       y       z     vdW  Elec       q    Type
REMARK                         _______ _______ _______ _____ _____    ______ ____
ROOT
ATOM      1  C   UNL     1       2.194   7.410  19.262  0.00  0.00    +0.000 A 
ATOM      2  C   UNL     1       1.833   7.142  20.598  0.00  0.00    +0.000 A 
ATOM      3  C   UNL     1       1.104   8.045  21.358  0.00  0.00    +0.000 A 
ATOM      4  C   UNL     1       0.719   9.256  20.796  0.00  0.00    +0.000 A 
ATOM      5  C   UNL     1       1.147   9.630  19.496  0.00  0.00    +0.000 A 
ATOM      6  C   UNL     1       1.822   8.667  18.729  0.00  0.00    +0.000 A 
ENDROOT
BRANCH   5   7
ATOM      7  N   UNL     1       0.939  10.900  19.023  0.00  0.00    +0.000 N 
ATOM      8  C   UNL     1      -0.313  11.631  18.747  0.00  0.00    +0.000 C 
ATOM      9  C   UNL     1       0.226  13.041  18.604  0.00  0.00    +0.000 A 
ATOM     10  C   UNL     1      -0.412  14.269  18.642  0.00  0.00    +0.000 A 
ATOM     11  C   UNL     1       0.381  15.420  18.785  0.00  0.00    +0.000 A 
ATOM     12  C   UNL     1       1.780  15.327  18.906  0.00  0.00    +0.000 A 
ATOM     13  C   UNL     1       2.404  14.098  18.765  0.00  0.00    +0.000 A 
ATOM     14  F   UNL     1       3.729  13.984  18.910  0.00  0.00    +0.000 F 
ATOM     15  C   UNL     1       1.627  12.985  18.559  0.00  0.00    +0.000 A 
ATOM     16  C   UNL     1       2.065  11.582  18.381  0.00  0.00    +0.000 C 
ENDBRANCH   5   7
BRANCH   1  17
ATOM     17  C   UNL     1       2.983   6.317  18.399  0.00  0.00    +0.000 C 
ATOM     18  C   UNL     1       4.139   6.784  17.473  0.00  0.00    +0.000 C 
ATOM     19  O   UNL     1       5.095   5.928  18.137  0.00  0.00    +0.000 OA
ATOM     20  C   UNL     1       4.130   5.574  19.144  0.00  0.00    +0.000 C 
BRANCH  17  21
ATOM     21  C   UNL     1       1.984   5.332  17.773  0.00  0.00    +0.000 C 
BRANCH  21  27
ATOM     22  C   UNL     1       0.975   3.559  20.227  0.00  0.00    +0.000 C 
ATOM     23  N   UNL     1       1.865   3.173  19.166  0.00  0.00    +0.000 N 
ATOM     24  C   UNL     1       2.495   1.968  19.081  0.00  0.00    +0.000 A 
ATOM     25  N   UNL     1       3.193   1.908  17.979  0.00  0.00    +0.000 NA
ATOM     26  N   UNL     1       3.061   3.125  17.345  0.00  0.00    +0.000 NA
ATOM     27  C   UNL     1       2.270   3.891  18.069  0.00  0.00    +0.000 A 
ENDBRANCH  21  27
ENDBRANCH  17  21
ENDBRANCH   1  17
BRANCH   4  28
ATOM     28  O   UNL     1      -0.072  10.145  21.489  0.00  0.00    +0.000 OA
BRANCH  28  29
ATOM     29  C   UNL     1      -0.193   9.901  22.882  0.00  0.00    +0.000 C 
ATOM     30  F   UNL     1      -1.353  10.465  23.307  0.00  0.00    +0.000 F 
ENDBRANCH  28  29
ENDBRANCH   4  28
TORSDOF 6
ENDMDL
MODEL 4
REMARK VINA RESULT:      -7.9      3.508      5.294
REMARK  Name = 
REMARK  7 active torsions:
REMARK  status: ('A' for Active; 'I' for Inactive)
REMARK    1  A    between atoms: C_1  and  N_2
REMARK    2  A    between atoms: C_6  and  C_7
REMARK    3  A    between atoms: C_7  and  C_8
REMARK    4  A    between atoms: C_8  and  C_9
REMARK    5  A    between atoms: C_12  and  O_13
REMARK    6  A    between atoms: O_13  and  C_14
REMARK    7  A    between atoms: C_16  and  N_17
REMARK                            x       y       z     vdW  Elec       q    Type
REMARK                         _______ _______ _______ _____ _____    ______ ____
ROOT
ATOM      1  C   UNL     1       2.186   7.505  19.346  0.00  0.00    +0.000 A 
ATOM      2  C   UNL     1       1.832   7.266  20.690  0.00  0.00    +0.000 A 
ATOM      3  C   UNL     1       1.113   8.189  21.436  0.00  0.00    +0.000 A 
ATOM      4  C   UNL     1       0.732   9.391  20.853  0.00  0.00    +0.000 A 
ATOM      5  C   UNL     1       1.154   9.736  19.542  0.00  0.00    +0.000 A 
ATOM      6  C   UNL     1       1.818   8.754  18.791  0.00  0.00    +0.000 A 
ENDROOT
BRANCH   5   7
ATOM      7  N   UNL     1       0.950  10.998  19.046  0.00  0.00    +0.000 N 
ATOM      8  C   UNL     1      -0.299  11.714  18.720  0.00  0.00    +0.000 C 
ATOM      9  C   UNL     1       0.233  13.126  18.575  0.00  0.00    +0.000 A 
ATOM     10  C   UNL     1      -0.416  14.349  18.575  0.00  0.00    +0.000 A 
ATOM     11  C   UNL     1       0.362  15.509  18.728  0.00  0.00    +0.000 A 
ATOM     12  C   UNL     1       1.757  15.430  18.895  0.00  0.00    +0.000 A 
ATOM     13  C   UNL     1       2.396  14.204  18.790  0.00  0.00    +0.000 A 
ATOM     14  F   UNL     1       3.716  14.104  18.979  0.00  0.00    +0.000 F 
ATOM     15  C   UNL     1       1.635  13.082  18.575  0.00  0.00    +0.000 A 
ATOM     16  C   UNL     1       2.091  11.681  18.430  0.00  0.00    +0.000 C 
ENDBRANCH   5   7
BRANCH   1  17
ATOM     17  C   UNL     1       2.963   6.391  18.501  0.00  0.00    +0.000 C 
ATOM     18  C   UNL     1       4.024   6.843  17.461  0.00  0.00    +0.000 C 
ATOM     19  O   UNL     1       5.067   6.079  18.105  0.00  0.00    +0.000 OA
ATOM     20  C   UNL     1       4.198   5.754  19.205  0.00  0.00    +0.000 C 
BRANCH  17  21
ATOM     21  C   UNL     1       1.971   5.321  18.020  0.00  0.00    +0.000 C 
BRANCH  21  27
ATOM     22  C   UNL     1       3.387   2.467  17.824  0.00  0.00    +0.000 C 
ATOM     23  N   UNL     1       2.423   2.909  18.793  0.00  0.00    +0.000 N 
ATOM     24  C   UNL     1       1.891   2.125  19.772  0.00  0.00    +0.000 A 
ATOM     25  N   UNL     1       1.084   2.830  20.518  0.00  0.00    +0.000 NA
ATOM     26  N   UNL     1       1.044   4.101  19.987  0.00  0.00    +0.000 NA
ATOM     27  C   UNL     1       1.842   4.143  18.939  0.00  0.00    +0.000 A 
ENDBRANCH  21  27
ENDBRANCH  17  21
ENDBRANCH   1  17
BRANCH   4  28
ATOM     28  O   UNL     1      -0.050  10.298  21.532  0.00  0.00    +0.000 OA
BRANCH  28  29
ATOM     29  C   UNL     1      -0.425   9.919  22.847  0.00  0.00    +0.000 C 
ATOM     30  F   UNL     1      -1.195  10.911  23.366  0.00  0.00    +0.000 F 
ENDBRANCH  28  29
ENDBRANCH   4  28
TORSDOF 6
ENDMDL
MODEL 5
REMARK VINA RESULT:      -7.9      2.270      3.397
REMARK  Name = 
REMARK  7 active torsions:
REMARK  status: ('A' for Active; 'I' for Inactive)
REMARK    1  A    between atoms: C_1  and  N_2
REMARK    2  A    between atoms: C_6  and  C_7
REMARK    3  A    between atoms: C_7  and  C_8
REMARK    4  A    between atoms: C_8  and  C_9
REMARK    5  A    between atoms: C_12  and  O_13
REMARK    6  A    between atoms: O_13  and  C_14
REMARK    7  A    between atoms: C_16  and  N_17
REMARK                            x       y       z     vdW  Elec       q    Type
REMARK                         _______ _______ _______ _____ _____    ______ ____
ROOT
ATOM      1  C   UNL     1       4.607   4.905  16.751  0.00  0.00    +0.000 A 
ATOM      2  C   UNL     1       4.159   3.756  17.433  0.00  0.00    +0.000 A 
ATOM      3  C   UNL     1       3.108   3.800  18.338  0.00  0.00    +0.000 A 
ATOM      4  C   UNL     1       2.476   5.011  18.591  0.00  0.00    +0.000 A 
ATOM      5  C   UNL     1       2.953   6.221  18.022  0.00  0.00    +0.000 A 
ATOM      6  C   UNL     1       3.970   6.131  17.059  0.00  0.00    +0.000 A 
ENDROOT
BRANCH   5   7
ATOM      7  N   UNL     1       2.460   7.434  18.428  0.00  0.00    +0.000 N 
ATOM      8  C   UNL     1       2.266   8.692  17.683  0.00  0.00    +0.000 C 
ATOM      9  C   UNL     1       1.379   9.445  18.654  0.00  0.00    +0.000 A 
ATOM     10  C   UNL     1       0.572  10.557  18.479  0.00  0.00    +0.000 A 
ATOM     11  C   UNL     1      -0.371  10.852  19.478  0.00  0.00    +0.000 A 
ATOM     12  C   UNL     1      -0.506  10.032  20.613  0.00  0.00    +0.000 A 
ATOM     13  C   UNL     1       0.379   8.985  20.816  0.00  0.00    +0.000 A 
ATOM     14  F   UNL     1       0.246   8.174  21.872  0.00  0.00    +0.000 F 
ATOM     15  C   UNL     1       1.341   8.742  19.867  0.00  0.00    +0.000 A 
ATOM     16  C   UNL     1       2.384   7.691  19.868  0.00  0.00    +0.000 C 
ENDBRANCH   5   7
BRANCH   1  17
ATOM     17  C   UNL     1       5.783   4.802  15.671  0.00  0.00    +0.000 C 
ATOM     18  C   UNL     1       6.289   3.398  15.244  0.00  0.00    +0.000 C 
ATOM     19  O   UNL     1       5.984   3.646  13.854  0.00  0.00    +0.000 OA
ATOM     20  C   UNL     1       5.337   4.889  14.182  0.00  0.00    +0.000 C 
BRANCH  17  21
ATOM     21  C   UNL     1       6.875   5.834  15.995  0.00  0.00    +0.000 C 
BRANCH  21  27
ATOM     22  C   UNL     1       7.773   8.271  17.850  0.00  0.00    +0.000 C 
ATOM     23  N   UNL     1       7.780   6.870  18.169  0.00  0.00    +0.000 N 
ATOM     24  C   UNL     1       8.256   6.340  19.331  0.00  0.00    +0.000 A 
ATOM     25  N   UNL     1       8.077   5.046  19.336  0.00  0.00    +0.000 NA
ATOM     26  N   UNL     1       7.513   4.707  18.126  0.00  0.00    +0.000 NA
ATOM     27  C   UNL     1       7.347   5.807  17.418  0.00  0.00    +0.000 A 
ENDBRANCH  21  27
ENDBRANCH  17  21
ENDBRANCH   1  17
BRANCH   4  28
ATOM     28  O   UNL     1       1.379   5.084  19.420  0.00  0.00    +0.000 OA
BRANCH  28  29
ATOM     29  C   UNL     1       1.383   4.189  20.521  0.00  0.00    +0.000 C 
ATOM     30  F   UNL     1       0.356   3.315  20.355  0.00  0.00    +0.000 F 
ENDBRANCH  28  29
ENDBRANCH   4  28
TORSDOF 6
ENDMDL
MODEL 6
REMARK VINA RESULT:      -7.9      2.623      4.241
REMARK  Name = 
REMARK  7 active torsions:
REMARK  status: ('A' for Active; 'I' for Inactive)
REMARK    1  A    between atoms: C_1  and  N_2
REMARK    2  A    between atoms: C_6  and  C_7
REMARK    3  A    between atoms: C_7  and  C_8
REMARK    4  A    between atoms: C_8  and  C_9
REMARK    5  A    between atoms: C_12  and  O_13
REMARK    6  A    between atoms: O_13  and  C_14
REMARK    7  A    between atoms: C_16  and  N_17
REMARK                            x       y       z     vdW  Elec       q    Type
REMARK                         _______ _______ _______ _____ _____    ______ ____
ROOT
ATOM      1  C   UNL     1       2.479   7.190  19.048  0.00  0.00    +0.000 A 
ATOM      2  C   UNL     1       2.120   6.865  20.372  0.00  0.00    +0.000 A 
ATOM      3  C   UNL     1       1.340   7.709  21.150  0.00  0.00    +0.000 A 
ATOM      4  C   UNL     1       0.901   8.915  20.619  0.00  0.00    +0.000 A 
ATOM      5  C   UNL     1       1.321   9.348  19.334  0.00  0.00    +0.000 A 
ATOM      6  C   UNL     1       2.050   8.442  18.548  0.00  0.00    +0.000 A 
ENDROOT
BRANCH   5   7
ATOM      7  N   UNL     1       1.054  10.619  18.896  0.00  0.00    +0.000 N 
ATOM      8  C   UNL     1      -0.231  11.300  18.643  0.00  0.00    +0.000 C 
ATOM      9  C   UNL     1       0.244  12.736  18.537  0.00  0.00    +0.000 A 
ATOM     10  C   UNL     1      -0.448  13.933  18.609  0.00  0.00    +0.000 A 
ATOM     11  C   UNL     1       0.293  15.114  18.780  0.00  0.00    +0.000 A 
ATOM     12  C   UNL     1       1.695  15.081  18.895  0.00  0.00    +0.000 A 
ATOM     13  C   UNL     1       2.373  13.885  18.719  0.00  0.00    +0.000 A 
ATOM     14  F   UNL     1       3.702  13.827  18.857  0.00  0.00    +0.000 F 
ATOM     15  C   UNL     1       1.646  12.744  18.486  0.00  0.00    +0.000 A 
ATOM     16  C   UNL     1       2.146  11.368  18.269  0.00  0.00    +0.000 C 
ENDBRANCH   5   7
BRANCH   1  17
ATOM     17  C   UNL     1       3.330   6.164  18.163  0.00  0.00    +0.000 C 
ATOM     18  C   UNL     1       4.299   5.182  18.875  0.00  0.00    +0.000 C 
ATOM     19  O   UNL     1       3.635   4.027  18.313  0.00  0.00    +0.000 OA
ATOM     20  C   UNL     1       2.594   4.852  17.761  0.00  0.00    +0.000 C 
BRANCH  17  21
ATOM     21  C   UNL     1       3.902   6.890  16.935  0.00  0.00    +0.000 C 
BRANCH  21  27
ATOM     22  C   UNL     1       5.120   4.498  15.209  0.00  0.00    +0.000 C 
ATOM     23  N   UNL     1       5.832   5.506  15.946  0.00  0.00    +0.000 N 
ATOM     24  C   UNL     1       7.186   5.555  16.085  0.00  0.00    +0.000 A 
ATOM     25  N   UNL     1       7.525   6.615  16.769  0.00  0.00    +0.000 NA
ATOM     26  N   UNL     1       6.360   7.256  17.133  0.00  0.00    +0.000 NA
ATOM     27  C   UNL     1       5.340   6.578  16.647  0.00  0.00    +0.000 A 
ENDBRANCH  21  27
ENDBRANCH  17  21
ENDBRANCH   1  17
BRANCH   4  28
ATOM     28  O   UNL     1       0.060   9.743  21.329  0.00  0.00    +0.000 OA
BRANCH  28  29
ATOM     29  C   UNL     1      -0.537   9.169  22.481  0.00  0.00    +0.000 C 
ATOM     30  F   UNL     1      -0.299   9.995  23.532  0.00  0.00    +0.000 F 
ENDBRANCH  28  29
ENDBRANCH   4  28
TORSDOF 6
ENDMDL
MODEL 7
REMARK VINA RESULT:      -7.7      2.794      7.275
REMARK  Name = 
REMARK  7 active torsions:
REMARK  status: ('A' for Active; 'I' for Inactive)
REMARK    1  A    between atoms: C_1  and  N_2
REMARK    2  A    between atoms: C_6  and  C_7
REMARK    3  A    between atoms: C_7  and  C_8
REMARK    4  A    between atoms: C_8  and  C_9
REMARK    5  A    between atoms: C_12  and  O_13
REMARK    6  A    between atoms: O_13  and  C_14
REMARK    7  A    between atoms: C_16  and  N_17
REMARK                            x       y       z     vdW  Elec       q    Type
REMARK                         _______ _______ _______ _____ _____    ______ ____
ROOT
ATOM      1  C   UNL     1       1.692   6.803  20.263  0.00  0.00    +0.000 A 
ATOM      2  C   UNL     1       1.008   5.768  20.933  0.00  0.00    +0.000 A 
ATOM      3  C   UNL     1       1.360   4.435  20.780  0.00  0.00    +0.000 A 
ATOM      4  C   UNL     1       2.413   4.099  19.938  0.00  0.00    +0.000 A 
ATOM      5  C   UNL     1       3.066   5.083  19.151  0.00  0.00    +0.000 A 
ATOM      6  C   UNL     1       2.734   6.428  19.382  0.00  0.00    +0.000 A 
ENDROOT
BRANCH   5   7
ATOM      7  N   UNL     1       3.962   4.727  18.176  0.00  0.00    +0.000 N 
ATOM      8  C   UNL     1       3.763   4.006  16.904  0.00  0.00    +0.000 C 
ATOM      9  C   UNL     1       5.086   4.297  16.223  0.00  0.00    +0.000 A 
ATOM     10  C   UNL     1       5.471   4.191  14.897  0.00  0.00    +0.000 A 
ATOM     11  C   UNL     1       6.666   4.818  14.505  0.00  0.00    +0.000 A 
ATOM     12  C   UNL     1       7.439   5.547  15.427  0.00  0.00    +0.000 A 
ATOM     13  C   UNL     1       7.088   5.554  16.768  0.00  0.00    +0.000 A 
ATOM     14  F   UNL     1       7.790   6.268  17.654  0.00  0.00    +0.000 F 
ATOM     15  C   UNL     1       5.953   4.884  17.155  0.00  0.00    +0.000 A 
ATOM     16  C   UNL     1       5.387   4.754  18.516  0.00  0.00    +0.000 C 
ENDBRANCH   5   7
BRANCH   1  17
ATOM     17  C   UNL     1       1.295   8.333  20.512  0.00  0.00    +0.000 C 
ATOM     18  C   UNL     1      -0.073   8.655  21.170  0.00  0.00    +0.000 C 
ATOM     19  O   UNL     1       0.553   9.371  22.259  0.00  0.00    +0.000 OA
ATOM     20  C   UNL     1       1.862   8.970  21.815  0.00  0.00    +0.000 C 
BRANCH  17  21
ATOM     21  C   UNL     1       1.652   9.168  19.272  0.00  0.00    +0.000 C 
BRANCH  21  27
ATOM     22  C   UNL     1       1.296  12.203  20.194  0.00  0.00    +0.000 C 
ATOM     23  N   UNL     1       0.441  11.437  19.329  0.00  0.00    +0.000 N 
ATOM     24  C   UNL     1      -0.735  11.884  18.806  0.00  0.00    +0.000 A 
ATOM     25  N   UNL     1      -1.249  10.973  18.024  0.00  0.00    +0.000 NA
ATOM     26  N   UNL     1      -0.415   9.877  18.071  0.00  0.00    +0.000 NA
ATOM     27  C   UNL     1       0.597  10.154  18.869  0.00  0.00    +0.000 A 
ENDBRANCH  21  27
ENDBRANCH  17  21
ENDBRANCH   1  17
BRANCH   4  28
ATOM     28  O   UNL     1       2.845   2.796  19.819  0.00  0.00    +0.000 OA
BRANCH  28  29
ATOM     29  C   UNL     1       1.854   1.855  19.437  0.00  0.00    +0.000 C 
ATOM     30  F   UNL     1       1.350   2.241  18.237  0.00  0.00    +0.000 F 
ENDBRANCH  28  29
ENDBRANCH   4  28
TORSDOF 6
ENDMDL
MODEL 8
REMARK VINA RESULT:      -7.7      1.752      2.712
REMARK  Name = 
REMARK  7 active torsions:
REMARK  status: ('A' for Active; 'I' for Inactive)
REMARK    1  A    between atoms: C_1  and  N_2
REMARK    2  A    between atoms: C_6  and  C_7
REMARK    3  A    between atoms: C_7  and  C_8
REMARK    4  A    between atoms: C_8  and  C_9
REMARK    5  A    between atoms: C_12  and  O_13
REMARK    6  A    between atoms: O_13  and  C_14
REMARK    7  A    between atoms: C_16  and  N_17
REMARK                            x       y       z     vdW  Elec       q    Type
REMARK                         _______ _______ _______ _____ _____    ______ ____
ROOT
ATOM      1  C   UNL     1       4.753   4.693  17.784  0.00  0.00    +0.000 A 
ATOM      2  C   UNL     1       4.819   3.676  18.758  0.00  0.00    +0.000 A 
ATOM      3  C   UNL     1       3.987   3.665  19.868  0.00  0.00    +0.000 A 
ATOM      4  C   UNL     1       3.060   4.687  20.037  0.00  0.00    +0.000 A 
ATOM      5  C   UNL     1       3.022   5.796  19.151  0.00  0.00    +0.000 A 
ATOM      6  C   UNL     1       3.827   5.741  18.003  0.00  0.00    +0.000 A 
ENDROOT
BRANCH   5   7
ATOM      7  N   UNL     1       2.252   6.895  19.431  0.00  0.00    +0.000 N 
ATOM      8  C   UNL     1       1.527   7.275  20.659  0.00  0.00    +0.000 C 
ATOM      9  C   UNL     1       1.223   8.728  20.351  0.00  0.00    +0.000 A 
ATOM     10  C   UNL     1       0.839   9.773  21.174  0.00  0.00    +0.000 A 
ATOM     11  C   UNL     1       0.923  11.080  20.664  0.00  0.00    +0.000 A 
ATOM     12  C   UNL     1       1.402  11.321  19.363  0.00  0.00    +0.000 A 
ATOM     13  C   UNL     1       1.684  10.255  18.523  0.00  0.00    +0.000 A 
ATOM     14  F   UNL     1       2.172  10.464  17.295  0.00  0.00    +0.000 F 
ATOM     15  C   UNL     1       1.537   8.979  19.007  0.00  0.00    +0.000 A 
ATOM     16  C   UNL     1       1.776   7.699  18.303  0.00  0.00    +0.000 C 
ENDBRANCH   5   7
BRANCH   1  17
ATOM     17  C   UNL     1       5.689   4.638  16.488  0.00  0.00    +0.000 C 
ATOM     18  C   UNL     1       5.360   3.616  15.367  0.00  0.00    +0.000 C 
ATOM     19  O   UNL     1       5.237   4.657  14.372  0.00  0.00    +0.000 OA
ATOM     20  C   UNL     1       5.361   5.679  15.378  0.00  0.00    +0.000 C 
BRANCH  17  21
ATOM     21  C   UNL     1       7.165   4.710  16.912  0.00  0.00    +0.000 C 
BRANCH  21  27
ATOM     22  C   UNL     1       8.014   5.620  19.851  0.00  0.00    +0.000 C 
ATOM     23  N   UNL     1       7.910   6.434  18.670  0.00  0.00    +0.000 N 
ATOM     24  C   UNL     1       8.096   7.783  18.638  0.00  0.00    +0.000 A 
ATOM     25  N   UNL     1       7.980   8.219  17.413  0.00  0.00    +0.000 NA
ATOM     26  N   UNL     1       7.660   7.136  16.622  0.00  0.00    +0.000 NA
ATOM     27  C   UNL     1       7.605   6.063  17.385  0.00  0.00    +0.000 A 
ENDBRANCH  21  27
ENDBRANCH  17  21
ENDBRANCH   1  17
BRANCH   4  28
ATOM     28  O   UNL     1       2.163   4.671  21.081  0.00  0.00    +0.000 OA
BRANCH  28  29
ATOM     29  C   UNL     1       1.921   3.400  21.662  0.00  0.00    +0.000 C 
ATOM     30  F   UNL     1       0.920   2.803  20.965  0.00  0.00    +0.000 F 
ENDBRANCH  28  29
ENDBRANCH   4  28
TORSDOF 6
ENDMDL
MODEL 9
REMARK VINA RESULT:      -7.7      1.346      1.716
REMARK  Name = 
REMARK  7 active torsions:
REMARK  status: ('A' for Active; 'I' for Inactive)
REMARK    1  A    between atoms: C_1  and  N_2
REMARK    2  A    between atoms: C_6  and  C_7
REMARK    3  A    between atoms: C_7  and  C_8
REMARK    4  A    between atoms: C_8  and  C_9
REMARK    5  A    between atoms: C_12  and  O_13
REMARK    6  A    between atoms: O_13  and  C_14
REMARK    7  A    between atoms: C_16  and  N_17
REMARK                            x       y       z     vdW  Elec       q    Type
REMARK                         _______ _______ _______ _____ _____    ______ ____
ROOT
ATOM      1  C   UNL     1       5.465   5.619  18.632  0.00  0.00    +0.000 A 
ATOM      2  C   UNL     1       4.955   4.419  19.168  0.00  0.00    +0.000 A 
ATOM      3  C   UNL     1       3.614   4.270  19.492  0.00  0.00    +0.000 A 
ATOM      4  C   UNL     1       2.741   5.331  19.290  0.00  0.00    +0.000 A 
ATOM      5  C   UNL     1       3.214   6.598  18.859  0.00  0.00    +0.000 A 
ATOM      6  C   UNL     1       4.560   6.695  18.474  0.00  0.00    +0.000 A 
ENDROOT
BRANCH   5   7
ATOM      7  N   UNL     1       2.390   7.694  18.855  0.00  0.00    +0.000 N 
ATOM      8  C   UNL     1       1.919   8.540  17.741  0.00  0.00    +0.000 C 
ATOM      9  C   UNL     1       0.800   9.295  18.433  0.00  0.00    +0.000 A 
ATOM     10  C   UNL     1      -0.259  10.025  17.922  0.00  0.00    +0.000 A 
ATOM     11  C   UNL     1      -1.311  10.359  18.791  0.00  0.00    +0.000 A 
ATOM     12  C   UNL     1      -1.298   9.947  20.137  0.00  0.00    +0.000 A 
ATOM     13  C   UNL     1      -0.182   9.306  20.651  0.00  0.00    +0.000 A 
ATOM     14  F   UNL     1      -0.165   8.877  21.918  0.00  0.00    +0.000 F 
ATOM     15  C   UNL     1       0.871   9.041  19.810  0.00  0.00    +0.000 A 
ATOM     16  C   UNL     1       2.153   8.374  20.131  0.00  0.00    +0.000 C 
ENDBRANCH   5   7
BRANCH   1  17
ATOM     17  C   UNL     1       7.006   5.732  18.216  0.00  0.00    +0.000 C 
ATOM     18  C   UNL     1       7.562   7.109  17.764  0.00  0.00    +0.000 C 
ATOM     19  O   UNL     1       8.568   7.110  18.803  0.00  0.00    +0.000 OA
ATOM     20  C   UNL     1       8.007   5.923  19.394  0.00  0.00    +0.000 C 
BRANCH  17  21
ATOM     21  C   UNL     1       7.393   4.535  17.334  0.00  0.00    +0.000 C 
BRANCH  21  27
ATOM     22  C   UNL     1       4.749   3.432  15.929  0.00  0.00    +0.000 C 
ATOM     23  N   UNL     1       5.849   4.125  15.317  0.00  0.00    +0.000 N 
ATOM     24  C   UNL     1       5.970   4.365  13.982  0.00  0.00    +0.000 A 
ATOM     25  N   UNL     1       7.054   5.056  13.750  0.00  0.00    +0.000 NA
ATOM     26  N   UNL     1       7.690   5.235  14.960  0.00  0.00    +0.000 NA
ATOM     27  C   UNL     1       6.969   4.661  15.902  0.00  0.00    +0.000 A 
ENDBRANCH  21  27
ENDBRANCH  17  21
ENDBRANCH   1  17
BRANCH   4  28
ATOM     28  O   UNL     1       1.390   5.199  19.522  0.00  0.00    +0.000 OA
BRANCH  28  29
ATOM     29  C   UNL     1       0.921   3.867  19.667  0.00  0.00    +0.000 C 
ATOM     30  F   UNL     1       0.708   3.640  20.989  0.00  0.00    +0.000 F 
ENDBRANCH  28  29
ENDBRANCH   4  28
TORSDOF 6
ENDMDL
