MODEL 1
REMARK VINA RESULT:      -8.1      0.000      0.000
REMARK  Name = 
REMARK  5 active torsions:
REMARK  status: ('A' for Active; 'I' for Inactive)
REMARK    1  A    between atoms: C_2  and  C_10
REMARK    2  A    between atoms: N_3  and  C_4
REMARK    3  A    between atoms: C_10  and  N_11
REMARK    4  A    between atoms: C_10  and  C_25
REMARK    5  A    between atoms: C_18  and  C_19
REMARK                            x       y       z     vdW  Elec       q    Type
REMARK                         _______ _______ _______ _____ _____    ______ ____
ROOT
ATOM      1  C   UNL     1       3.190   6.220  18.864  0.00  0.00    +0.000 C 
ENDROOT
BRANCH   1   2
ATOM      2  N   UNL     1       2.383   7.171  18.082  0.00  0.00    +0.000 N 
ATOM      3  C   UNL     1       1.766   8.302  18.560  0.00  0.00    +0.000 A 
ATOM      4  C   UNL     1       1.218   9.276  17.564  0.00  0.00    +0.000 A 
ATOM      5  C   UNL     1       0.579  10.366  18.012  0.00  0.00    +0.000 A 
ATOM      6  C   UNL     1       0.444  10.553  19.400  0.00  0.00    +0.000 A 
ATOM      7  N   UNL     1      -0.125  11.491  20.120  0.00  0.00    +0.000 NA
ATOM      8  N   UNL     1       0.013  11.136  21.445  0.00  0.00    +0.000 NA
ATOM      9  C   UNL     1       0.661   9.989  21.497  0.00  0.00    +0.000 A 
ATOM     10  N   UNL     1       0.975   9.586  20.228  0.00  0.00    +0.000 N 
ATOM     11  N   UNL     1       1.631   8.458  19.849  0.00  0.00    +0.000 NA
ATOM     12  H   UNL     1       2.324   6.952  17.095  0.00  0.00    +0.000 HD
BRANCH   9  13
ATOM     13  C   UNL     1       1.011   9.179  22.673  0.00  0.00    +0.000 C 
ATOM     14  F   UNL     1       0.262   9.500  23.763  0.00  0.00    +0.000 F 
ATOM     15  F   UNL     1       0.817   7.849  22.465  0.00  0.00    +0.000 F 
ATOM     16  F   UNL     1       2.308   9.332  23.052  0.00  0.00    +0.000 F 
ENDBRANCH   9  13
ENDBRANCH   1   2
BRANCH   1  17
ATOM     17  C   UNL     1       2.364   5.066  19.424  0.00  0.00    +0.000 A 
ATOM     18  C   UNL     1       2.322   4.822  20.807  0.00  0.00    +0.000 A 
ATOM     19  C   UNL     1       1.595   3.744  21.324  0.00  0.00    +0.000 A 
ATOM     20  C   UNL     1       0.887   2.901  20.470  0.00  0.00    +0.000 A 
ATOM     21  C   UNL     1       0.906   3.134  19.099  0.00  0.00    +0.000 A 
ATOM     22  C   UNL     1       1.639   4.203  18.583  0.00  0.00    +0.000 A 
ENDBRANCH   1  17
BRANCH   1  24
ATOM     23  O   UNL     1       5.526   5.599  18.803  0.00  0.00    +0.000 OA
ATOM     24  C   UNL     1       4.495   5.775  18.154  0.00  0.00    +0.000 C 
ATOM     25  N   UNL     1       4.410   5.690  16.774  0.00  0.00    +0.000 N 
ATOM     26  H   UNL     1       3.536   5.990  16.362  0.00  0.00    +0.000 HD
BRANCH  25  27
ATOM     27  C   UNL     1       5.423   5.260  15.899  0.00  0.00    +0.000 A 
ATOM     28  C   UNL     1       6.755   5.655  16.035  0.00  0.00    +0.000 A 
ATOM     29  C   UNL     1       7.711   5.254  15.103  0.00  0.00    +0.000 A 
ATOM     30  C   UNL     1       7.344   4.450  14.030  0.00  0.00    +0.000 A 
ATOM     31  C   UNL     1       6.025   4.013  13.910  0.00  0.00    +0.000 A 
ATOM     32  C   UNL     1       5.069   4.402  14.853  0.00  0.00    +0.000 A 
ENDBRANCH  25  27
ENDBRANCH   1  24
TORSDOF 5
ENDMDL
MODEL 2
REMARK VINA RESULT:      -8.1      0.063      1.114
REMARK  Name = 
REMARK  5 active torsions:
REMARK  status: ('A' for Active; 'I' for Inactive)
REMARK    1  A    between atoms: C_2  and  C_10
REMARK    2  A    between atoms: N_3  and  C_4
REMARK    3  A    between atoms: C_10  and  N_11
REMARK    4  A    between atoms: C_10  and  C_25
REMARK    5  A    between atoms: C_18  and  C_19
REMARK                            x       y       z     vdW  Elec       q    Type
REMARK                         _______ _______ _______ _____ _____    ______ ____
ROOT
ATOM      1  C   UNL     1       3.235   6.212  18.838  0.00  0.00    +0.000 C 
ENDROOT
BRANCH   1   2
ATOM      2  N   UNL     1       2.411   7.151  18.060  0.00  0.00    +0.000 N 
ATOM      3  C   UNL     1       1.789   8.279  18.539  0.00  0.00    +0.000 A 
ATOM      4  C   UNL     1       1.222   9.244  17.544  0.00  0.00    +0.000 A 
ATOM      5  C   UNL     1       0.578  10.330  17.994  0.00  0.00    +0.000 A 
ATOM      6  C   UNL     1       0.456  10.523  19.383  0.00  0.00    +0.000 A 
ATOM      7  N   UNL     1      -0.113  11.460  20.103  0.00  0.00    +0.000 NA
ATOM      8  N   UNL     1       0.043  11.113  21.429  0.00  0.00    +0.000 NA
ATOM      9  C   UNL     1       0.702   9.972  21.479  0.00  0.00    +0.000 A 
ATOM     10  N   UNL     1       1.005   9.565  20.209  0.00  0.00    +0.000 N 
ATOM     11  N   UNL     1       1.666   8.441  19.829  0.00  0.00    +0.000 NA
ATOM     12  H   UNL     1       2.343   6.927  17.075  0.00  0.00    +0.000 HD
BRANCH   9  13
ATOM     13  C   UNL     1       1.071   9.171  22.656  0.00  0.00    +0.000 C 
ATOM     14  F   UNL     1       2.363   9.373  23.033  0.00  0.00    +0.000 F 
ATOM     15  F   UNL     1       0.313   9.466  23.745  0.00  0.00    +0.000 F 
ATOM     16  F   UNL     1       0.948   7.834  22.442  0.00  0.00    +0.000 F 
ENDBRANCH   9  13
ENDBRANCH   1   2
BRANCH   1  17
ATOM     17  C   UNL     1       2.424   5.054  19.415  0.00  0.00    +0.000 A 
ATOM     18  C   UNL     1       1.665   4.225  18.572  0.00  0.00    +0.000 A 
ATOM     19  C   UNL     1       0.892   3.185  19.098  0.00  0.00    +0.000 A 
ATOM     20  C   UNL     1       0.875   2.946  20.471  0.00  0.00    +0.000 A 
ATOM     21  C   UNL     1       1.630   3.748  21.319  0.00  0.00    +0.000 A 
ATOM     22  C   UNL     1       2.393   4.793  20.796  0.00  0.00    +0.000 A 
ENDBRANCH   1  17
BRANCH   1  24
ATOM     23  O   UNL     1       5.570   5.591  18.756  0.00  0.00    +0.000 OA
ATOM     24  C   UNL     1       4.535   5.773  18.116  0.00  0.00    +0.000 C 
ATOM     25  N   UNL     1       4.440   5.701  16.735  0.00  0.00    +0.000 N 
ATOM     26  H   UNL     1       3.564   6.004  16.332  0.00  0.00    +0.000 HD
BRANCH  25  27
ATOM     27  C   UNL     1       5.448   5.279  15.850  0.00  0.00    +0.000 A 
ATOM     28  C   UNL     1       6.768   5.723  15.941  0.00  0.00    +0.000 A 
ATOM     29  C   UNL     1       7.716   5.326  14.999  0.00  0.00    +0.000 A 
ATOM     30  C   UNL     1       7.352   4.477  13.960  0.00  0.00    +0.000 A 
ATOM     31  C   UNL     1       6.047   3.991  13.886  0.00  0.00    +0.000 A 
ATOM     32  C   UNL     1       5.100   4.376  14.839  0.00  0.00    +0.000 A 
ENDBRANCH  25  27
ENDBRANCH   1  24
TORSDOF 5
ENDMDL
MODEL 3
REMARK VINA RESULT:      -7.8      0.132      1.133
REMARK  Name = 
REMARK  5 active torsions:
REMARK  status: ('A' for Active; 'I' for Inactive)
REMARK    1  A    between atoms: C_2  and  C_10
REMARK    2  A    between atoms: N_3  and  C_4
REMARK    3  A    between atoms: C_10  and  N_11
REMARK    4  A    between atoms: C_10  and  C_25
REMARK    5  A    between atoms: C_18  and  C_19
REMARK                            x       y       z     vdW  Elec       q    Type
REMARK                         _______ _______ _______ _____ _____    ______ ____
ROOT
ATOM      1  C   UNL     1       3.191   6.230  18.834  0.00  0.00    +0.000 C 
ENDROOT
BRANCH   1   2
ATOM      2  N   UNL     1       2.380   7.203  18.086  0.00  0.00    +0.000 N 
ATOM      3  C   UNL     1       1.800   8.342  18.593  0.00  0.00    +0.000 A 
ATOM      4  C   UNL     1       1.241   9.336  17.624  0.00  0.00    +0.000 A 
ATOM      5  C   UNL     1       0.638  10.433  18.101  0.00  0.00    +0.000 A 
ATOM      6  C   UNL     1       0.549  10.609  19.495  0.00  0.00    +0.000 A 
ATOM      7  N   UNL     1       0.021  11.551  20.240  0.00  0.00    +0.000 NA
ATOM      8  N   UNL     1       0.193  11.180  21.557  0.00  0.00    +0.000 NA
ATOM      9  C   UNL     1       0.820  10.021  21.578  0.00  0.00    +0.000 A 
ATOM     10  N   UNL     1       1.086   9.624  20.296  0.00  0.00    +0.000 N 
ATOM     11  N   UNL     1       1.707   8.488  19.887  0.00  0.00    +0.000 NA
ATOM     12  H   UNL     1       2.286   6.996  17.099  0.00  0.00    +0.000 HD
BRANCH   9  13
ATOM     13  C   UNL     1       1.189   9.192  22.735  0.00  0.00    +0.000 C 
ATOM     14  F   UNL     1       1.094   7.860  22.469  0.00  0.00    +0.000 F 
ATOM     15  F   UNL     1       2.471   9.402  23.138  0.00  0.00    +0.000 F 
ATOM     16  F   UNL     1       0.397   9.415  23.818  0.00  0.00    +0.000 F 
ENDBRANCH   9  13
ENDBRANCH   1   2
BRANCH   1  17
ATOM     17  C   UNL     1       2.360   5.085  19.406  0.00  0.00    +0.000 A 
ATOM     18  C   UNL     1       2.334   4.843  20.789  0.00  0.00    +0.000 A 
ATOM     19  C   UNL     1       1.602   3.773  21.317  0.00  0.00    +0.000 A 
ATOM     20  C   UNL     1       0.874   2.936  20.473  0.00  0.00    +0.000 A 
ATOM     21  C   UNL     1       0.878   3.168  19.102  0.00  0.00    +0.000 A 
ATOM     22  C   UNL     1       1.616   4.228  18.575  0.00  0.00    +0.000 A 
ENDBRANCH   1  17
BRANCH   1  24
ATOM     23  O   UNL     1       5.499   5.520  18.703  0.00  0.00    +0.000 OA
ATOM     24  C   UNL     1       4.466   5.768  18.081  0.00  0.00    +0.000 C 
ATOM     25  N   UNL     1       4.357   5.755  16.699  0.00  0.00    +0.000 N 
ATOM     26  H   UNL     1       3.489   6.109  16.317  0.00  0.00    +0.000 HD
BRANCH  25  27
ATOM     27  C   UNL     1       5.339   5.329  15.788  0.00  0.00    +0.000 A 
ATOM     28  C   UNL     1       5.061   4.465  14.727  0.00  0.00    +0.000 A 
ATOM     29  C   UNL     1       6.082   4.020  13.890  0.00  0.00    +0.000 A 
ATOM     30  C   UNL     1       7.390   4.439  14.103  0.00  0.00    +0.000 A 
ATOM     31  C   UNL     1       7.672   5.337  15.132  0.00  0.00    +0.000 A 
ATOM     32  C   UNL     1       6.646   5.797  15.962  0.00  0.00    +0.000 A 
ENDBRANCH  25  27
ENDBRANCH   1  24
TORSDOF 5
ENDMDL
MODEL 4
REMARK VINA RESULT:      -7.7      0.227      1.261
REMARK  Name = 
REMARK  5 active torsions:
REMARK  status: ('A' for Active; 'I' for Inactive)
REMARK    1  A    between atoms: C_2  and  C_10
REMARK    2  A    between atoms: N_3  and  C_4
REMARK    3  A    between atoms: C_10  and  N_11
REMARK    4  A    between atoms: C_10  and  C_25
REMARK    5  A    between atoms: C_18  and  C_19
REMARK                            x       y       z     vdW  Elec       q    Type
REMARK                         _______ _______ _______ _____ _____    ______ ____
ROOT
ATOM      1  C   UNL     1       3.252   6.067  18.849  0.00  0.00    +0.000 C 
ENDROOT
BRANCH   1   2
ATOM      2  N   UNL     1       2.402   6.985  18.074  0.00  0.00    +0.000 N 
ATOM      3  C   UNL     1       1.800   8.129  18.542  0.00  0.00    +0.000 A 
ATOM      4  C   UNL     1       1.199   9.066  17.540  0.00  0.00    +0.000 A 
ATOM      5  C   UNL     1       0.574  10.167  17.980  0.00  0.00    +0.000 A 
ATOM      6  C   UNL     1       0.504  10.401  19.366  0.00  0.00    +0.000 A 
ATOM      7  N   UNL     1      -0.037  11.360  20.079  0.00  0.00    +0.000 NA
ATOM      8  N   UNL     1       0.166  11.052  21.408  0.00  0.00    +0.000 NA
ATOM      9  C   UNL     1       0.824   9.911  21.468  0.00  0.00    +0.000 A 
ATOM     10  N   UNL     1       1.080   9.466  20.200  0.00  0.00    +0.000 N 
ATOM     11  N   UNL     1       1.725   8.329  19.830  0.00  0.00    +0.000 NA
ATOM     12  H   UNL     1       2.298   6.732  17.099  0.00  0.00    +0.000 HD
BRANCH   9  13
ATOM     13  C   UNL     1       1.234   9.144  22.653  0.00  0.00    +0.000 C 
ATOM     14  F   UNL     1       0.433   9.385  23.728  0.00  0.00    +0.000 F 
ATOM     15  F   UNL     1       1.188   7.801  22.446  0.00  0.00    +0.000 F 
ATOM     16  F   UNL     1       2.500   9.435  23.057  0.00  0.00    +0.000 F 
ENDBRANCH   9  13
ENDBRANCH   1   2
BRANCH   1  17
ATOM     17  C   UNL     1       2.453   4.961  19.534  0.00  0.00    +0.000 A 
ATOM     18  C   UNL     1       1.564   4.161  18.796  0.00  0.00    +0.000 A 
ATOM     19  C   UNL     1       0.803   3.169  19.424  0.00  0.00    +0.000 A 
ATOM     20  C   UNL     1       0.927   2.950  20.795  0.00  0.00    +0.000 A 
ATOM     21  C   UNL     1       1.811   3.724  21.539  0.00  0.00    +0.000 A 
ATOM     22  C   UNL     1       2.563   4.720  20.915  0.00  0.00    +0.000 A 
ENDBRANCH   1  17
BRANCH   1  24
ATOM     23  O   UNL     1       5.470   5.119  18.683  0.00  0.00    +0.000 OA
ATOM     24  C   UNL     1       4.495   5.559  18.073  0.00  0.00    +0.000 C 
ATOM     25  N   UNL     1       4.436   5.730  16.699  0.00  0.00    +0.000 N 
ATOM     26  H   UNL     1       3.628   6.225  16.346  0.00  0.00    +0.000 HD
BRANCH  25  27
ATOM     27  C   UNL     1       5.398   5.310  15.764  0.00  0.00    +0.000 A 
ATOM     28  C   UNL     1       5.109   4.416  14.732  0.00  0.00    +0.000 A 
ATOM     29  C   UNL     1       6.113   3.980  13.869  0.00  0.00    +0.000 A 
ATOM     30  C   UNL     1       7.416   4.439  14.029  0.00  0.00    +0.000 A 
ATOM     31  C   UNL     1       7.707   5.367  15.029  0.00  0.00    +0.000 A 
ATOM     32  C   UNL     1       6.697   5.816  15.884  0.00  0.00    +0.000 A 
ENDBRANCH  25  27
ENDBRANCH   1  24
TORSDOF 5
ENDMDL
MODEL 5
REMARK VINA RESULT:      -7.7      3.490      5.440
REMARK  Name = 
REMARK  5 active torsions:
REMARK  status: ('A' for Active; 'I' for Inactive)
REMARK    1  A    between atoms: C_2  and  C_10
REMARK    2  A    between atoms: N_3  and  C_4
REMARK    3  A    between atoms: C_10  and  N_11
REMARK    4  A    between atoms: C_10  and  C_25
REMARK    5  A    between atoms: C_18  and  C_19
REMARK                            x       y       z     vdW  Elec       q    Type
REMARK                         _______ _______ _______ _____ _____    ______ ____
ROOT
ATOM      1  C   UNL     1       5.870   6.295  15.812  0.00  0.00    +0.000 C 
ENDROOT
BRANCH   1   2
ATOM      2  N   UNL     1       4.686   7.075  16.207  0.00  0.00    +0.000 N 
ATOM      3  C   UNL     1       3.917   6.878  17.330  0.00  0.00    +0.000 A 
ATOM      4  C   UNL     1       2.922   7.935  17.692  0.00  0.00    +0.000 A 
ATOM      5  C   UNL     1       2.137   7.743  18.762  0.00  0.00    +0.000 A 
ATOM      6  C   UNL     1       2.276   6.554  19.502  0.00  0.00    +0.000 A 
ATOM      7  N   UNL     1       1.658   6.089  20.562  0.00  0.00    +0.000 NA
ATOM      8  N   UNL     1       2.182   4.843  20.833  0.00  0.00    +0.000 NA
ATOM      9  C   UNL     1       3.103   4.580  19.927  0.00  0.00    +0.000 A 
ATOM     10  N   UNL     1       3.216   5.641  19.072  0.00  0.00    +0.000 N 
ATOM     11  N   UNL     1       4.042   5.764  18.000  0.00  0.00    +0.000 NA
ATOM     12  H   UNL     1       4.465   7.840  15.581  0.00  0.00    +0.000 HD
BRANCH   9  13
ATOM     13  C   UNL     1       3.911   3.363  19.758  0.00  0.00    +0.000 C 
ATOM     14  F   UNL     1       3.623   2.708  18.600  0.00  0.00    +0.000 F 
ATOM     15  F   UNL     1       5.245   3.625  19.718  0.00  0.00    +0.000 F 
ATOM     16  F   UNL     1       3.718   2.460  20.757  0.00  0.00    +0.000 F 
ENDBRANCH   9  13
ENDBRANCH   1   2
BRANCH   1  17
ATOM     17  C   UNL     1       6.821   6.036  16.977  0.00  0.00    +0.000 A 
ATOM     18  C   UNL     1       7.220   4.727  17.296  0.00  0.00    +0.000 A 
ATOM     19  C   UNL     1       8.063   4.480  18.385  0.00  0.00    +0.000 A 
ATOM     20  C   UNL     1       8.533   5.536  19.164  0.00  0.00    +0.000 A 
ATOM     21  C   UNL     1       8.159   6.839  18.856  0.00  0.00    +0.000 A 
ATOM     22  C   UNL     1       7.309   7.085  17.776  0.00  0.00    +0.000 A 
ENDBRANCH   1  17
BRANCH   1  24
ATOM     23  O   UNL     1       4.775   4.174  15.426  0.00  0.00    +0.000 OA
ATOM     24  C   UNL     1       5.537   5.031  14.977  0.00  0.00    +0.000 C 
ATOM     25  N   UNL     1       6.222   4.926  13.778  0.00  0.00    +0.000 N 
ATOM     26  H   UNL     1       6.916   5.639  13.596  0.00  0.00    +0.000 HD
BRANCH  25  27
ATOM     27  C   UNL     1       6.067   3.914  12.813  0.00  0.00    +0.000 A 
ATOM     28  C   UNL     1       4.819   3.510  12.337  0.00  0.00    +0.000 A 
ATOM     29  C   UNL     1       4.714   2.457  11.429  0.00  0.00    +0.000 A 
ATOM     30  C   UNL     1       5.858   1.804  10.986  0.00  0.00    +0.000 A 
ATOM     31  C   UNL     1       7.113   2.229  11.421  0.00  0.00    +0.000 A 
ATOM     32  C   UNL     1       7.219   3.294  12.319  0.00  0.00    +0.000 A 
ENDBRANCH  25  27
ENDBRANCH   1  24
TORSDOF 5
ENDMDL
MODEL 6
REMARK VINA RESULT:      -7.7      6.387      8.634
REMARK  Name = 
REMARK  5 active torsions:
REMARK  status: ('A' for Active; 'I' for Inactive)
REMARK    1  A    between atoms: C_2  and  C_10
REMARK    2  A    between atoms: N_3  and  C_4
REMARK    3  A    between atoms: C_10  and  N_11
REMARK    4  A    between atoms: C_10  and  C_25
REMARK    5  A    between atoms: C_18  and  C_19
REMARK                            x       y       z     vdW  Elec       q    Type
REMARK                         _______ _______ _______ _____ _____    ______ ____
ROOT
ATOM      1  C   UNL     1      -1.466  12.689  20.014  0.00  0.00    +0.000 C 
ENDROOT
BRANCH   1   2
ATOM      2  N   UNL     1      -2.825  12.477  19.489  0.00  0.00    +0.000 N 
ATOM      3  C   UNL     1      -3.999  12.603  20.191  0.00  0.00    +0.000 A 
ATOM      4  C   UNL     1      -5.282  12.607  19.419  0.00  0.00    +0.000 A 
ATOM      5  C   UNL     1      -6.439  12.689  20.091  0.00  0.00    +0.000 A 
ATOM      6  C   UNL     1      -6.406  12.767  21.496  0.00  0.00    +0.000 A 
ATOM      7  N   UNL     1      -7.350  12.843  22.404  0.00  0.00    +0.000 NA
ATOM      8  N   UNL     1      -6.735  12.852  23.638  0.00  0.00    +0.000 NA
ATOM      9  C   UNL     1      -5.432  12.779  23.448  0.00  0.00    +0.000 A 
ATOM     10  N   UNL     1      -5.170  12.742  22.106  0.00  0.00    +0.000 N 
ATOM     11  N   UNL     1      -3.959  12.657  21.495  0.00  0.00    +0.000 NA
ATOM     12  H   UNL     1      -2.858  12.246  18.503  0.00  0.00    +0.000 HD
BRANCH   9  13
ATOM     13  C   UNL     1      -4.356  12.709  24.448  0.00  0.00    +0.000 C 
ATOM     14  F   UNL     1      -3.363  11.854  24.079  0.00  0.00    +0.000 F 
ATOM     15  F   UNL     1      -3.757  13.912  24.653  0.00  0.00    +0.000 F 
ATOM     16  F   UNL     1      -4.791  12.275  25.661  0.00  0.00    +0.000 F 
ENDBRANCH   9  13
ENDBRANCH   1   2
BRANCH   1  17
ATOM     17  C   UNL     1      -0.877  11.434  20.650  0.00  0.00    +0.000 A 
ATOM     18  C   UNL     1      -0.870  11.277  22.046  0.00  0.00    +0.000 A 
ATOM     19  C   UNL     1      -0.299  10.144  22.638  0.00  0.00    +0.000 A 
ATOM     20  C   UNL     1       0.260   9.144  21.844  0.00  0.00    +0.000 A 
ATOM     21  C   UNL     1       0.251   9.276  20.460  0.00  0.00    +0.000 A 
ATOM     22  C   UNL     1      -0.309  10.410  19.871  0.00  0.00    +0.000 A 
ENDBRANCH   1  17
BRANCH   1  24
ATOM     23  O   UNL     1      -0.618  13.193  17.807  0.00  0.00    +0.000 OA
ATOM     24  C   UNL     1      -0.513  13.397  19.016  0.00  0.00    +0.000 C 
ATOM     25  N   UNL     1       0.477  14.170  19.601  0.00  0.00    +0.000 N 
ATOM     26  H   UNL     1       0.525  14.143  20.611  0.00  0.00    +0.000 HD
BRANCH  25  27
ATOM     27  C   UNL     1       1.430  14.955  18.929  0.00  0.00    +0.000 A 
ATOM     28  C   UNL     1       1.229  16.306  18.643  0.00  0.00    +0.000 A 
ATOM     29  C   UNL     1       2.177  17.025  17.916  0.00  0.00    +0.000 A 
ATOM     30  C   UNL     1       3.337  16.399  17.474  0.00  0.00    +0.000 A 
ATOM     31  C   UNL     1       3.568  15.061  17.794  0.00  0.00    +0.000 A 
ATOM     32  C   UNL     1       2.626  14.345  18.536  0.00  0.00    +0.000 A 
ENDBRANCH  25  27
ENDBRANCH   1  24
TORSDOF 5
ENDMDL
MODEL 7
REMARK VINA RESULT:      -7.6      4.676      8.123
REMARK  Name = 
REMARK  5 active torsions:
REMARK  status: ('A' for Active; 'I' for Inactive)
REMARK    1  A    between atoms: C_2  and  C_10
REMARK    2  A    between atoms: N_3  and  C_4
REMARK    3  A    between atoms: C_10  and  N_11
REMARK    4  A    between atoms: C_10  and  C_25
REMARK    5  A    between atoms: C_18  and  C_19
REMARK                            x       y       z     vdW  Elec       q    Type
REMARK                         _______ _______ _______ _____ _____    ______ ____
ROOT
ATOM      1  C   UNL     1       0.658  13.298  18.829  0.00  0.00    +0.000 C 
ENDROOT
BRANCH   1   2
ATOM      2  N   UNL     1      -0.597  13.680  19.497  0.00  0.00    +0.000 N 
ATOM      3  C   UNL     1      -1.811  13.048  19.374  0.00  0.00    +0.000 A 
ATOM      4  C   UNL     1      -2.897  13.422  20.334  0.00  0.00    +0.000 A 
ATOM      5  C   UNL     1      -4.100  12.844  20.204  0.00  0.00    +0.000 A 
ATOM      6  C   UNL     1      -4.298  11.911  19.169  0.00  0.00    +0.000 A 
ATOM      7  N   UNL     1      -5.341  11.209  18.794  0.00  0.00    +0.000 NA
ATOM      8  N   UNL     1      -4.971  10.483  17.682  0.00  0.00    +0.000 NA
ATOM      9  C   UNL     1      -3.712  10.765  17.408  0.00  0.00    +0.000 A 
ATOM     10  N   UNL     1      -3.233  11.651  18.333  0.00  0.00    +0.000 N 
ATOM     11  N   UNL     1      -1.991  12.197  18.400  0.00  0.00    +0.000 NA
ATOM     12  H   UNL     1      -0.510  14.471  20.124  0.00  0.00    +0.000 HD
BRANCH   9  13
ATOM     13  C   UNL     1      -2.879  10.285  16.296  0.00  0.00    +0.000 C 
ATOM     14  F   UNL     1      -1.729   9.698  16.727  0.00  0.00    +0.000 F 
ATOM     15  F   UNL     1      -3.513   9.351  15.536  0.00  0.00    +0.000 F 
ATOM     16  F   UNL     1      -2.498  11.282  15.454  0.00  0.00    +0.000 F 
ENDBRANCH   9  13
ENDBRANCH   1   2
BRANCH   1  17
ATOM     17  C   UNL     1       1.647  14.456  18.727  0.00  0.00    +0.000 A 
ATOM     18  C   UNL     1       2.814  14.332  17.954  0.00  0.00    +0.000 A 
ATOM     19  C   UNL     1       3.743  15.376  17.886  0.00  0.00    +0.000 A 
ATOM     20  C   UNL     1       3.515  16.565  18.576  0.00  0.00    +0.000 A 
ATOM     21  C   UNL     1       2.360  16.711  19.335  0.00  0.00    +0.000 A 
ATOM     22  C   UNL     1       1.439  15.666  19.412  0.00  0.00    +0.000 A 
ENDBRANCH   1  17
BRANCH   1  24
ATOM     23  O   UNL     1       1.967  11.994  20.387  0.00  0.00    +0.000 OA
ATOM     24  C   UNL     1       1.278  11.983  19.366  0.00  0.00    +0.000 C 
ATOM     25  N   UNL     1       1.067  10.869  18.571  0.00  0.00    +0.000 N 
ATOM     26  H   UNL     1       0.593  11.032  17.692  0.00  0.00    +0.000 HD
BRANCH  25  27
ATOM     27  C   UNL     1       1.472   9.552  18.853  0.00  0.00    +0.000 A 
ATOM     28  C   UNL     1       1.209   8.926  20.072  0.00  0.00    +0.000 A 
ATOM     29  C   UNL     1       1.689   7.642  20.328  0.00  0.00    +0.000 A 
ATOM     30  C   UNL     1       2.431   6.972  19.362  0.00  0.00    +0.000 A 
ATOM     31  C   UNL     1       2.661   7.570  18.124  0.00  0.00    +0.000 A 
ATOM     32  C   UNL     1       2.167   8.851  17.862  0.00  0.00    +0.000 A 
ENDBRANCH  25  27
ENDBRANCH   1  24
TORSDOF 5
ENDMDL
MODEL 8
REMARK VINA RESULT:      -7.5      3.183      5.865
REMARK  Name = 
REMARK  5 active torsions:
REMARK  status: ('A' for Active; 'I' for Inactive)
REMARK    1  A    between atoms: C_2  and  C_10
REMARK    2  A    between atoms: N_3  and  C_4
REMARK    3  A    between atoms: C_10  and  N_11
REMARK    4  A    between atoms: C_10  and  C_25
REMARK    5  A    between atoms: C_18  and  C_19
REMARK                            x       y       z     vdW  Elec       q    Type
REMARK                         _______ _______ _______ _____ _____    ______ ____
ROOT
ATOM      1  C   UNL     1       0.313  10.695  19.001  0.00  0.00    +0.000 C 
ENDROOT
BRANCH   1   2
ATOM      2  N   UNL     1       0.823  12.061  19.198  0.00  0.00    +0.000 N 
ATOM      3  C   UNL     1       0.617  12.858  20.299  0.00  0.00    +0.000 A 
ATOM      4  C   UNL     1       1.435  14.105  20.426  0.00  0.00    +0.000 A 
ATOM      5  C   UNL     1       1.220  14.914  21.473  0.00  0.00    +0.000 A 
ATOM      6  C   UNL     1       0.232  14.562  22.413  0.00  0.00    +0.000 A 
ATOM      7  N   UNL     1      -0.202  15.144  23.506  0.00  0.00    +0.000 NA
ATOM      8  N   UNL     1      -1.221  14.365  24.011  0.00  0.00    +0.000 NA
ATOM      9  C   UNL     1      -1.382  13.330  23.210  0.00  0.00    +0.000 A 
ATOM     10  N   UNL     1      -0.471  13.397  22.191  0.00  0.00    +0.000 N 
ATOM     11  N   UNL     1      -0.313  12.532  21.156  0.00  0.00    +0.000 NA
ATOM     12  H   UNL     1       1.403  12.402  18.440  0.00  0.00    +0.000 HD
BRANCH   9  13
ATOM     13  C   UNL     1      -2.370  12.244  23.292  0.00  0.00    +0.000 C 
ATOM     14  F   UNL     1      -1.787  11.030  23.491  0.00  0.00    +0.000 F 
ATOM     15  F   UNL     1      -3.244  12.412  24.321  0.00  0.00    +0.000 F 
ATOM     16  F   UNL     1      -3.114  12.122  22.161  0.00  0.00    +0.000 F 
ENDBRANCH   9  13
ENDBRANCH   1   2
BRANCH   1  17
ATOM     17  C   UNL     1      -1.011  10.664  18.241  0.00  0.00    +0.000 A 
ATOM     18  C   UNL     1      -2.037  11.570  18.557  0.00  0.00    +0.000 A 
ATOM     19  C   UNL     1      -3.265  11.524  17.889  0.00  0.00    +0.000 A 
ATOM     20  C   UNL     1      -3.483  10.582  16.885  0.00  0.00    +0.000 A 
ATOM     21  C   UNL     1      -2.475   9.685  16.550  0.00  0.00    +0.000 A 
ATOM     22  C   UNL     1      -1.254   9.724  17.224  0.00  0.00    +0.000 A 
ENDBRANCH   1  17
BRANCH   1  24
ATOM     23  O   UNL     1       1.987   9.954  17.422  0.00  0.00    +0.000 OA
ATOM     24  C   UNL     1       1.374   9.702  18.460  0.00  0.00    +0.000 C 
ATOM     25  N   UNL     1       1.489   8.522  19.176  0.00  0.00    +0.000 N 
ATOM     26  H   UNL     1       0.830   8.393  19.932  0.00  0.00    +0.000 HD
BRANCH  25  27
ATOM     27  C   UNL     1       2.406   7.484  18.933  0.00  0.00    +0.000 A 
ATOM     28  C   UNL     1       2.571   6.403  19.800  0.00  0.00    +0.000 A 
ATOM     29  C   UNL     1       3.540   5.433  19.548  0.00  0.00    +0.000 A 
ATOM     30  C   UNL     1       4.349   5.534  18.422  0.00  0.00    +0.000 A 
ATOM     31  C   UNL     1       4.163   6.585  17.526  0.00  0.00    +0.000 A 
ATOM     32  C   UNL     1       3.181   7.549  17.770  0.00  0.00    +0.000 A 
ENDBRANCH  25  27
ENDBRANCH   1  24
TORSDOF 5
ENDMDL
MODEL 9
REMARK VINA RESULT:      -7.5      3.465      5.383
REMARK  Name = 
REMARK  5 active torsions:
REMARK  status: ('A' for Active; 'I' for Inactive)
REMARK    1  A    between atoms: C_2  and  C_10
REMARK    2  A    between atoms: N_3  and  C_4
REMARK    3  A    between atoms: C_10  and  N_11
REMARK    4  A    between atoms: C_10  and  C_25
REMARK    5  A    between atoms: C_18  and  C_19
REMARK                            x       y       z     vdW  Elec       q    Type
REMARK                         _______ _______ _______ _____ _____    ______ ____
ROOT
ATOM      1  C   UNL     1       5.861   6.273  15.843  0.00  0.00    +0.000 C 
ENDROOT
BRANCH   1   2
ATOM      2  N   UNL     1       4.681   7.064  16.228  0.00  0.00    +0.000 N 
ATOM      3  C   UNL     1       3.905   6.878  17.347  0.00  0.00    +0.000 A 
ATOM      4  C   UNL     1       2.916   7.945  17.700  0.00  0.00    +0.000 A 
ATOM      5  C   UNL     1       2.123   7.763  18.766  0.00  0.00    +0.000 A 
ATOM      6  C   UNL     1       2.248   6.576  19.512  0.00  0.00    +0.000 A 
ATOM      7  N   UNL     1       1.620   6.121  20.570  0.00  0.00    +0.000 NA
ATOM      8  N   UNL     1       2.132   4.871  20.848  0.00  0.00    +0.000 NA
ATOM      9  C   UNL     1       3.056   4.597  19.949  0.00  0.00    +0.000 A 
ATOM     10  N   UNL     1       3.183   5.654  19.090  0.00  0.00    +0.000 N 
ATOM     11  N   UNL     1       4.016   5.766  18.022  0.00  0.00    +0.000 NA
ATOM     12  H   UNL     1       4.470   7.829  15.599  0.00  0.00    +0.000 HD
BRANCH   9  13
ATOM     13  C   UNL     1       3.854   3.373  19.789  0.00  0.00    +0.000 C 
ATOM     14  F   UNL     1       5.188   3.632  19.710  0.00  0.00    +0.000 F 
ATOM     15  F   UNL     1       3.702   2.512  20.832  0.00  0.00    +0.000 F 
ATOM     16  F   UNL     1       3.540   2.682  18.661  0.00  0.00    +0.000 F 
ENDBRANCH   9  13
ENDBRANCH   1   2
BRANCH   1  17
ATOM     17  C   UNL     1       6.798   6.002  17.017  0.00  0.00    +0.000 A 
ATOM     18  C   UNL     1       7.276   7.059  17.808  0.00  0.00    +0.000 A 
ATOM     19  C   UNL     1       8.164   6.821  18.863  0.00  0.00    +0.000 A 
ATOM     20  C   UNL     1       8.576   5.522  19.155  0.00  0.00    +0.000 A 
ATOM     21  C   UNL     1       8.102   4.461  18.391  0.00  0.00    +0.000 A 
ATOM     22  C   UNL     1       7.226   4.700  17.332  0.00  0.00    +0.000 A 
ENDBRANCH   1  17
BRANCH   1  24
ATOM     23  O   UNL     1       4.769   4.151  15.452  0.00  0.00    +0.000 OA
ATOM     24  C   UNL     1       5.523   5.015  15.002  0.00  0.00    +0.000 C 
ATOM     25  N   UNL     1       6.194   4.921  13.794  0.00  0.00    +0.000 N 
ATOM     26  H   UNL     1       6.883   5.639  13.610  0.00  0.00    +0.000 HD
BRANCH  25  27
ATOM     27  C   UNL     1       6.031   3.917  12.823  0.00  0.00    +0.000 A 
ATOM     28  C   UNL     1       4.782   3.547  12.321  0.00  0.00    +0.000 A 
ATOM     29  C   UNL     1       4.667   2.500  11.408  0.00  0.00    +0.000 A 
ATOM     30  C   UNL     1       5.802   1.818  10.985  0.00  0.00    +0.000 A 
ATOM     31  C   UNL     1       7.059   2.209  11.446  0.00  0.00    +0.000 A 
ATOM     32  C   UNL     1       7.176   3.268  12.349  0.00  0.00    +0.000 A 
ENDBRANCH  25  27
ENDBRANCH   1  24
TORSDOF 5
ENDMDL
