MODEL 1
REMARK VINA RESULT:      -9.1      0.000      0.000
REMARK  Name = 
REMARK  6 active torsions:
REMARK  status: ('A' for Active; 'I' for Inactive)
REMARK    1  A    between atoms: C_1  and  C_2
REMARK    2  A    between atoms: C_4  and  N_5
REMARK    3  A    between atoms: C_8  and  N_9
REMARK    4  A    between atoms: N_12  and  C_13
REMARK    5  A    between atoms: C_17  and  C_18
REMARK    6  A    between atoms: C_27  and  C_28
REMARK                            x       y       z     vdW  Elec       q    Type
REMARK                         _______ _______ _______ _____ _____    ______ ____
ROOT
ATOM      1  N   UNL     1       1.269   8.756  20.492  0.00  0.00    +0.000 N 
ATOM      2  C   UNL     1       1.948   7.663  20.003  0.00  0.00    +0.000 C 
ATOM      3  O   UNL     1       2.608   7.720  18.962  0.00  0.00    +0.000 OA
ATOM      4  N   UNL     1       1.812   6.542  20.778  0.00  0.00    +0.000 N 
ATOM      5  H   UNL     1       0.638   8.632  21.272  0.00  0.00    +0.000 HD
ATOM      6  H   UNL     1       0.913   6.425  21.214  0.00  0.00    +0.000 HD
ENDROOT
BRANCH   1  10
ATOM      7  N   UNL     1      -1.105  10.495  18.310  0.00  0.00    +0.000 N 
ATOM      8  C   UNL     1      -1.165  10.621  19.763  0.00  0.00    +0.000 C 
ATOM      9  C   UNL     1       0.233  11.003  20.242  0.00  0.00    +0.000 C 
ATOM     10  C   UNL     1       1.293  10.014  19.748  0.00  0.00    +0.000 C 
ATOM     11  C   UNL     1       1.193   9.791  18.230  0.00  0.00    +0.000 C 
ATOM     12  C   UNL     1      -0.229   9.446  17.801  0.00  0.00    +0.000 C 
BRANCH   7  16
ATOM     13  C   UNL     1      -5.662  12.285  18.155  0.00  0.00    +0.000 C 
ATOM     14  C   UNL     1      -4.449  11.677  17.519  0.00  0.00    +0.000 A 
ATOM     15  C   UNL     1      -3.280  11.498  18.229  0.00  0.00    +0.000 A 
ATOM     16  C   UNL     1      -2.230  10.860  17.589  0.00  0.00    +0.000 A 
ATOM     17  N   UNL     1      -2.338  10.463  16.312  0.00  0.00    +0.000 NA
ATOM     18  C   UNL     1      -3.506  10.685  15.687  0.00  0.00    +0.000 A 
ATOM     19  C   UNL     1      -3.646  10.172  14.292  0.00  0.00    +0.000 C 
ATOM     20  N   UNL     1      -4.577  11.276  16.241  0.00  0.00    +0.000 NA
ENDBRANCH   7  16
ENDBRANCH   1  10
BRANCH   4  21
ATOM     21  C   UNL     1       2.502   5.357  20.433  0.00  0.00    +0.000 A 
ATOM     22  C   UNL     1       2.049   4.104  20.849  0.00  0.00    +0.000 A 
ATOM     23  C   UNL     1       2.683   2.948  20.393  0.00  0.00    +0.000 A 
ATOM     24  C   UNL     1       3.823   3.045  19.593  0.00  0.00    +0.000 A 
ATOM     25  C   UNL     1       4.352   4.302  19.269  0.00  0.00    +0.000 A 
ATOM     26  C   UNL     1       3.647   5.454  19.650  0.00  0.00    +0.000 A 
BRANCH  25  27
ATOM     27  C   UNL     1       5.620   4.469  18.570  0.00  0.00    +0.000 A 
ATOM     28  N   UNL     1       6.794   4.807  19.074  0.00  0.00    +0.000 NA
ATOM     29  C   UNL     1       7.625   4.833  17.986  0.00  0.00    +0.000 A 
ATOM     30  C   UNL     1       6.925   4.494  16.857  0.00  0.00    +0.000 A 
ATOM     31  O   UNL     1       5.635   4.245  17.219  0.00  0.00    +0.000 OA
ENDBRANCH  25  27
ENDBRANCH   4  21
TORSDOF 4
ENDMDL
MODEL 2
REMARK VINA RESULT:      -9.0      1.570      2.001
REMARK  Name = 
REMARK  6 active torsions:
REMARK  status: ('A' for Active; 'I' for Inactive)
REMARK    1  A    between atoms: C_1  and  C_2
REMARK    2  A    between atoms: C_4  and  N_5
REMARK    3  A    between atoms: C_8  and  N_9
REMARK    4  A    between atoms: N_12  and  C_13
REMARK    5  A    between atoms: C_17  and  C_18
REMARK    6  A    between atoms: C_27  and  C_28
REMARK                            x       y       z     vdW  Elec       q    Type
REMARK                         _______ _______ _______ _____ _____    ______ ____
ROOT
ATOM      1  N   UNL     1       1.080   9.071  20.450  0.00  0.00    +0.000 N 
ATOM      2  C   UNL     1       1.712   7.980  19.901  0.00  0.00    +0.000 C 
ATOM      3  O   UNL     1       2.228   8.022  18.780  0.00  0.00    +0.000 OA
ATOM      4  N   UNL     1       1.705   6.876  20.711  0.00  0.00    +0.000 N 
ATOM      5  H   UNL     1       0.560   8.956  21.309  0.00  0.00    +0.000 HD
ATOM      6  H   UNL     1       0.874   6.753  21.265  0.00  0.00    +0.000 HD
ENDROOT
BRANCH   1  10
ATOM      7  N   UNL     1      -1.643  11.395  19.674  0.00  0.00    +0.000 N 
ATOM      8  C   UNL     1      -0.890  11.486  20.921  0.00  0.00    +0.000 C 
ATOM      9  C   UNL     1       0.591  11.508  20.554  0.00  0.00    +0.000 C 
ATOM     10  C   UNL     1       0.978  10.310  19.681  0.00  0.00    +0.000 C 
ATOM     11  C   UNL     1       0.039  10.166  18.473  0.00  0.00    +0.000 C 
ATOM     12  C   UNL     1      -1.428  10.185  18.890  0.00  0.00    +0.000 C 
BRANCH   7  16
ATOM     13  C   UNL     1      -5.047  14.247  21.741  0.00  0.00    +0.000 C 
ATOM     14  C   UNL     1      -4.534  13.377  20.634  0.00  0.00    +0.000 A 
ATOM     15  C   UNL     1      -3.239  12.901  20.638  0.00  0.00    +0.000 A 
ATOM     16  C   UNL     1      -2.866  12.042  19.617  0.00  0.00    +0.000 A 
ATOM     17  N   UNL     1      -3.728  11.714  18.642  0.00  0.00    +0.000 NA
ATOM     18  C   UNL     1      -4.966  12.230  18.705  0.00  0.00    +0.000 A 
ATOM     19  C   UNL     1      -5.942  11.800  17.660  0.00  0.00    +0.000 C 
ATOM     20  N   UNL     1      -5.412  13.050  19.669  0.00  0.00    +0.000 NA
ENDBRANCH   7  16
ENDBRANCH   1  10
BRANCH   4  21
ATOM     21  C   UNL     1       2.369   5.696  20.305  0.00  0.00    +0.000 A 
ATOM     22  C   UNL     1       1.762   4.444  20.418  0.00  0.00    +0.000 A 
ATOM     23  C   UNL     1       2.396   3.315  19.899  0.00  0.00    +0.000 A 
ATOM     24  C   UNL     1       3.674   3.421  19.346  0.00  0.00    +0.000 A 
ATOM     25  C   UNL     1       4.337   4.656  19.337  0.00  0.00    +0.000 A 
ATOM     26  C   UNL     1       3.649   5.800  19.770  0.00  0.00    +0.000 A 
BRANCH  25  27
ATOM     27  C   UNL     1       5.725   4.803  18.918  0.00  0.00    +0.000 A 
ATOM     28  N   UNL     1       6.740   5.297  19.605  0.00  0.00    +0.000 NA
ATOM     29  C   UNL     1       7.796   5.216  18.739  0.00  0.00    +0.000 A 
ATOM     30  C   UNL     1       7.386   4.659  17.555  0.00  0.00    +0.000 A 
ATOM     31  O   UNL     1       6.057   4.377  17.659  0.00  0.00    +0.000 OA
ENDBRANCH  25  27
ENDBRANCH   4  21
TORSDOF 4
ENDMDL
MODEL 3
REMARK VINA RESULT:      -8.7      2.377      3.071
REMARK  Name = 
REMARK  6 active torsions:
REMARK  status: ('A' for Active; 'I' for Inactive)
REMARK    1  A    between atoms: C_1  and  C_2
REMARK    2  A    between atoms: C_4  and  N_5
REMARK    3  A    between atoms: C_8  and  N_9
REMARK    4  A    between atoms: N_12  and  C_13
REMARK    5  A    between atoms: C_17  and  C_18
REMARK    6  A    between atoms: C_27  and  C_28
REMARK                            x       y       z     vdW  Elec       q    Type
REMARK                         _______ _______ _______ _____ _____    ______ ____
ROOT
ATOM      1  N   UNL     1       1.474   9.371  19.587  0.00  0.00    +0.000 N 
ATOM      2  C   UNL     1       1.871   8.142  19.114  0.00  0.00    +0.000 C 
ATOM      3  O   UNL     1       1.929   7.898  17.905  0.00  0.00    +0.000 OA
ATOM      4  N   UNL     1       2.184   7.248  20.103  0.00  0.00    +0.000 N 
ATOM      5  H   UNL     1       1.315   9.487  20.578  0.00  0.00    +0.000 HD
ATOM      6  H   UNL     1       1.623   7.312  20.936  0.00  0.00    +0.000 HD
ENDROOT
BRANCH   1  10
ATOM      7  N   UNL     1      -0.960  12.108  19.666  0.00  0.00    +0.000 N 
ATOM      8  C   UNL     1       0.376  12.253  20.237  0.00  0.00    +0.000 C 
ATOM      9  C   UNL     1       1.375  11.821  19.168  0.00  0.00    +0.000 C 
ATOM     10  C   UNL     1       1.073  10.414  18.644  0.00  0.00    +0.000 C 
ATOM     11  C   UNL     1      -0.397  10.273  18.216  0.00  0.00    +0.000 C 
ATOM     12  C   UNL     1      -1.351  10.750  19.306  0.00  0.00    +0.000 C 
BRANCH   7  16
ATOM     13  C   UNL     1      -2.186  16.474  21.517  0.00  0.00    +0.000 C 
ATOM     14  C   UNL     1      -2.519  15.108  20.998  0.00  0.00    +0.000 A 
ATOM     15  C   UNL     1      -1.551  14.297  20.443  0.00  0.00    +0.000 A 
ATOM     16  C   UNL     1      -1.926  13.020  20.057  0.00  0.00    +0.000 A 
ATOM     17  N   UNL     1      -3.195  12.604  20.187  0.00  0.00    +0.000 NA
ATOM     18  C   UNL     1      -4.079  13.460  20.726  0.00  0.00    +0.000 A 
ATOM     19  C   UNL     1      -5.471  12.964  20.940  0.00  0.00    +0.000 C 
ATOM     20  N   UNL     1      -3.793  14.703  21.145  0.00  0.00    +0.000 NA
ENDBRANCH   7  16
ENDBRANCH   1  10
BRANCH   4  21
ATOM     21  C   UNL     1       2.666   5.963  19.768  0.00  0.00    +0.000 A 
ATOM     22  C   UNL     1       1.969   4.807  20.129  0.00  0.00    +0.000 A 
ATOM     23  C   UNL     1       2.408   3.562  19.680  0.00  0.00    +0.000 A 
ATOM     24  C   UNL     1       3.591   3.459  18.945  0.00  0.00    +0.000 A 
ATOM     25  C   UNL     1       4.358   4.603  18.681  0.00  0.00    +0.000 A 
ATOM     26  C   UNL     1       3.853   5.859  19.051  0.00  0.00    +0.000 A 
BRANCH  25  27
ATOM     27  C   UNL     1       5.674   4.545  18.057  0.00  0.00    +0.000 A 
ATOM     28  N   UNL     1       6.859   4.628  18.635  0.00  0.00    +0.000 NA
ATOM     29  C   UNL     1       7.742   4.532  17.594  0.00  0.00    +0.000 A 
ATOM     30  C   UNL     1       7.058   4.379  16.416  0.00  0.00    +0.000 A 
ATOM     31  O   UNL     1       5.724   4.373  16.698  0.00  0.00    +0.000 OA
ENDBRANCH  25  27
ENDBRANCH   4  21
TORSDOF 4
ENDMDL
MODEL 4
REMARK VINA RESULT:      -8.7      6.961      9.809
REMARK  Name = 
REMARK  6 active torsions:
REMARK  status: ('A' for Active; 'I' for Inactive)
REMARK    1  A    between atoms: C_1  and  C_2
REMARK    2  A    between atoms: C_4  and  N_5
REMARK    3  A    between atoms: C_8  and  N_9
REMARK    4  A    between atoms: N_12  and  C_13
REMARK    5  A    between atoms: C_17  and  C_18
REMARK    6  A    between atoms: C_27  and  C_28
REMARK                            x       y       z     vdW  Elec       q    Type
REMARK                         _______ _______ _______ _____ _____    ______ ____
ROOT
ATOM      1  N   UNL     1       8.430   9.751  18.078  0.00  0.00    +0.000 N 
ATOM      2  C   UNL     1       8.058   8.426  18.053  0.00  0.00    +0.000 C 
ATOM      3  O   UNL     1       8.650   7.571  18.718  0.00  0.00    +0.000 OA
ATOM      4  N   UNL     1       6.991   8.172  17.233  0.00  0.00    +0.000 N 
ATOM      5  H   UNL     1       8.005  10.392  17.422  0.00  0.00    +0.000 HD
ATOM      6  H   UNL     1       6.950   8.724  16.393  0.00  0.00    +0.000 HD
ENDROOT
BRANCH   1  10
ATOM      7  N   UNL     1       9.826  12.981  19.094  0.00  0.00    +0.000 N 
ATOM      8  C   UNL     1       8.733  12.353  19.830  0.00  0.00    +0.000 C 
ATOM      9  C   UNL     1       9.164  10.923  20.145  0.00  0.00    +0.000 C 
ATOM     10  C   UNL     1       9.579  10.163  18.882  0.00  0.00    +0.000 C 
ATOM     11  C   UNL     1      10.607  10.956  18.059  0.00  0.00    +0.000 C 
ATOM     12  C   UNL     1      10.144  12.387  17.802  0.00  0.00    +0.000 C 
BRANCH   7  16
ATOM     13  C   UNL     1       9.614  16.933  21.981  0.00  0.00    +0.000 C 
ATOM     14  C   UNL     1       9.891  16.253  20.675  0.00  0.00    +0.000 A 
ATOM     15  C   UNL     1       9.847  14.879  20.558  0.00  0.00    +0.000 A 
ATOM     16  C   UNL     1      10.040  14.334  19.299  0.00  0.00    +0.000 A 
ATOM     17  N   UNL     1      10.297  15.117  18.240  0.00  0.00    +0.000 NA
ATOM     18  C   UNL     1      10.336  16.445  18.441  0.00  0.00    +0.000 A 
ATOM     19  C   UNL     1      10.546  17.314  17.245  0.00  0.00    +0.000 C 
ATOM     20  N   UNL     1      10.138  17.052  19.622  0.00  0.00    +0.000 NA
ENDBRANCH   7  16
ENDBRANCH   1  10
BRANCH   4  21
ATOM     21  C   UNL     1       6.458   6.865  17.151  0.00  0.00    +0.000 A 
ATOM     22  C   UNL     1       7.026   5.898  16.320  0.00  0.00    +0.000 A 
ATOM     23  C   UNL     1       6.551   4.587  16.353  0.00  0.00    +0.000 A 
ATOM     24  C   UNL     1       5.451   4.260  17.149  0.00  0.00    +0.000 A 
ATOM     25  C   UNL     1       4.802   5.254  17.896  0.00  0.00    +0.000 A 
ATOM     26  C   UNL     1       5.352   6.544  17.932  0.00  0.00    +0.000 A 
BRANCH  25  27
ATOM     27  C   UNL     1       3.562   5.012  18.622  0.00  0.00    +0.000 A 
ATOM     28  N   UNL     1       3.227   5.426  19.831  0.00  0.00    +0.000 NA
ATOM     29  C   UNL     1       1.976   4.905  20.024  0.00  0.00    +0.000 A 
ATOM     30  C   UNL     1       1.589   4.201  18.914  0.00  0.00    +0.000 A 
ATOM     31  O   UNL     1       2.595   4.270  17.997  0.00  0.00    +0.000 OA
ENDBRANCH  25  27
ENDBRANCH   4  21
TORSDOF 4
ENDMDL
MODEL 5
REMARK VINA RESULT:      -8.7      2.542      3.280
REMARK  Name = 
REMARK  6 active torsions:
REMARK  status: ('A' for Active; 'I' for Inactive)
REMARK    1  A    between atoms: C_1  and  C_2
REMARK    2  A    between atoms: C_4  and  N_5
REMARK    3  A    between atoms: C_8  and  N_9
REMARK    4  A    between atoms: N_12  and  C_13
REMARK    5  A    between atoms: C_17  and  C_18
REMARK    6  A    between atoms: C_27  and  C_28
REMARK                            x       y       z     vdW  Elec       q    Type
REMARK                         _______ _______ _______ _____ _____    ______ ____
ROOT
ATOM      1  N   UNL     1       1.638   9.283  19.715  0.00  0.00    +0.000 N 
ATOM      2  C   UNL     1       1.853   8.217  18.872  0.00  0.00    +0.000 C 
ATOM      3  O   UNL     1       1.721   8.318  17.649  0.00  0.00    +0.000 OA
ATOM      4  N   UNL     1       2.217   7.068  19.522  0.00  0.00    +0.000 N 
ATOM      5  H   UNL     1       1.628   9.124  20.713  0.00  0.00    +0.000 HD
ATOM      6  H   UNL     1       1.784   6.924  20.419  0.00  0.00    +0.000 HD
ENDROOT
BRANCH   1  10
ATOM      7  N   UNL     1      -1.142  11.569  20.398  0.00  0.00    +0.000 N 
ATOM      8  C   UNL     1       0.087  11.600  21.185  0.00  0.00    +0.000 C 
ATOM      9  C   UNL     1       1.251  11.691  20.201  0.00  0.00    +0.000 C 
ATOM     10  C   UNL     1       1.206  10.566  19.163  0.00  0.00    +0.000 C 
ATOM     11  C   UNL     1      -0.172  10.473  18.490  0.00  0.00    +0.000 C 
ATOM     12  C   UNL     1      -1.300  10.419  19.515  0.00  0.00    +0.000 C 
BRANCH   7  16
ATOM     13  C   UNL     1      -3.867  12.792  24.281  0.00  0.00    +0.000 C 
ATOM     14  C   UNL     1      -3.605  12.727  22.807  0.00  0.00    +0.000 A 
ATOM     15  C   UNL     1      -2.396  12.281  22.312  0.00  0.00    +0.000 A 
ATOM     16  C   UNL     1      -2.262  12.179  20.937  0.00  0.00    +0.000 A 
ATOM     17  N   UNL     1      -3.263  12.537  20.118  0.00  0.00    +0.000 NA
ATOM     18  C   UNL     1      -4.403  12.973  20.679  0.00  0.00    +0.000 A 
ATOM     19  C   UNL     1      -5.538  13.296  19.765  0.00  0.00    +0.000 C 
ATOM     20  N   UNL     1      -4.621  13.080  21.999  0.00  0.00    +0.000 NA
ENDBRANCH   7  16
ENDBRANCH   1  10
BRANCH   4  21
ATOM     21  C   UNL     1       2.530   5.906  18.782  0.00  0.00    +0.000 A 
ATOM     22  C   UNL     1       1.730   4.763  18.849  0.00  0.00    +0.000 A 
ATOM     23  C   UNL     1       1.997   3.677  18.015  0.00  0.00    +0.000 A 
ATOM     24  C   UNL     1       3.116   3.695  17.179  0.00  0.00    +0.000 A 
ATOM     25  C   UNL     1       3.990   4.791  17.194  0.00  0.00    +0.000 A 
ATOM     26  C   UNL     1       3.652   5.917  17.961  0.00  0.00    +0.000 A 
BRANCH  25  27
ATOM     27  C   UNL     1       5.250   4.806  16.464  0.00  0.00    +0.000 A 
ATOM     28  N   UNL     1       6.329   5.529  16.706  0.00  0.00    +0.000 NA
ATOM     29  C   UNL     1       7.201   5.166  15.716  0.00  0.00    +0.000 A 
ATOM     30  C   UNL     1       6.622   4.218  14.912  0.00  0.00    +0.000 A 
ATOM     31  O   UNL     1       5.370   3.967  15.387  0.00  0.00    +0.000 OA
ENDBRANCH  25  27
ENDBRANCH   4  21
TORSDOF 4
ENDMDL
MODEL 6
REMARK VINA RESULT:      -8.7      0.793      1.704
REMARK  Name = 
REMARK  6 active torsions:
REMARK  status: ('A' for Active; 'I' for Inactive)
REMARK    1  A    between atoms: C_1  and  C_2
REMARK    2  A    between atoms: C_4  and  N_5
REMARK    3  A    between atoms: C_8  and  N_9
REMARK    4  A    between atoms: N_12  and  C_13
REMARK    5  A    between atoms: C_17  and  C_18
REMARK    6  A    between atoms: C_27  and  C_28
REMARK                            x       y       z     vdW  Elec       q    Type
REMARK                         _______ _______ _______ _____ _____    ______ ____
ROOT
ATOM      1  N   UNL     1       1.354   8.665  20.464  0.00  0.00    +0.000 N 
ATOM      2  C   UNL     1       2.004   7.564  19.957  0.00  0.00    +0.000 C 
ATOM      3  O   UNL     1       2.556   7.585  18.853  0.00  0.00    +0.000 OA
ATOM      4  N   UNL     1       1.972   6.476  20.789  0.00  0.00    +0.000 N 
ATOM      5  H   UNL     1       0.807   8.566  21.308  0.00  0.00    +0.000 HD
ATOM      6  H   UNL     1       1.124   6.363  21.319  0.00  0.00    +0.000 HD
ENDROOT
BRANCH   1  10
ATOM      7  N   UNL     1      -1.181  10.143  18.272  0.00  0.00    +0.000 N 
ATOM      8  C   UNL     1      -1.218  10.328  19.719  0.00  0.00    +0.000 C 
ATOM      9  C   UNL     1       0.161  10.824  20.146  0.00  0.00    +0.000 C 
ATOM     10  C   UNL     1       1.275   9.888  19.667  0.00  0.00    +0.000 C 
ATOM     11  C   UNL     1       1.157   9.593  18.164  0.00  0.00    +0.000 C 
ATOM     12  C   UNL     1      -0.248   9.135  17.785  0.00  0.00    +0.000 C 
BRANCH   7  16
ATOM     13  C   UNL     1      -3.666  10.214  14.051  0.00  0.00    +0.000 C 
ATOM     14  C   UNL     1      -3.530  10.482  15.518  0.00  0.00    +0.000 A 
ATOM     15  C   UNL     1      -2.431  10.044  16.228  0.00  0.00    +0.000 A 
ATOM     16  C   UNL     1      -2.344  10.400  17.564  0.00  0.00    +0.000 A 
ATOM     17  N   UNL     1      -3.315  11.115  18.153  0.00  0.00    +0.000 NA
ATOM     18  C   UNL     1      -4.358  11.492  17.394  0.00  0.00    +0.000 A 
ATOM     19  C   UNL     1      -5.397  12.353  18.034  0.00  0.00    +0.000 C 
ATOM     20  N   UNL     1      -4.506  11.208  16.090  0.00  0.00    +0.000 NA
ENDBRANCH   7  16
ENDBRANCH   1  10
BRANCH   4  21
ATOM     21  C   UNL     1       2.650   5.290  20.429  0.00  0.00    +0.000 A 
ATOM     22  C   UNL     1       2.262   4.047  20.935  0.00  0.00    +0.000 A 
ATOM     23  C   UNL     1       2.874   2.884  20.467  0.00  0.00    +0.000 A 
ATOM     24  C   UNL     1       3.933   2.966  19.560  0.00  0.00    +0.000 A 
ATOM     25  C   UNL     1       4.405   4.217  19.138  0.00  0.00    +0.000 A 
ATOM     26  C   UNL     1       3.715   5.373  19.538  0.00  0.00    +0.000 A 
BRANCH  25  27
ATOM     27  C   UNL     1       5.599   4.375  18.318  0.00  0.00    +0.000 A 
ATOM     28  N   UNL     1       5.710   4.275  17.006  0.00  0.00    +0.000 NA
ATOM     29  C   UNL     1       7.040   4.495  16.769  0.00  0.00    +0.000 A 
ATOM     30  C   UNL     1       7.689   4.739  17.951  0.00  0.00    +0.000 A 
ATOM     31  O   UNL     1       6.773   4.676  18.958  0.00  0.00    +0.000 OA
ENDBRANCH  25  27
ENDBRANCH   4  21
TORSDOF 4
ENDMDL
MODEL 7
REMARK VINA RESULT:      -8.7      7.149     10.088
REMARK  Name = 
REMARK  6 active torsions:
REMARK  status: ('A' for Active; 'I' for Inactive)
REMARK    1  A    between atoms: C_1  and  C_2
REMARK    2  A    between atoms: C_4  and  N_5
REMARK    3  A    between atoms: C_8  and  N_9
REMARK    4  A    between atoms: N_12  and  C_13
REMARK    5  A    between atoms: C_17  and  C_18
REMARK    6  A    between atoms: C_27  and  C_28
REMARK                            x       y       z     vdW  Elec       q    Type
REMARK                         _______ _______ _______ _____ _____    ______ ____
ROOT
ATOM      1  N   UNL     1       8.470   9.851  18.009  0.00  0.00    +0.000 N 
ATOM      2  C   UNL     1       8.108   8.524  18.042  0.00  0.00    +0.000 C 
ATOM      3  O   UNL     1       8.686   7.710  18.769  0.00  0.00    +0.000 OA
ATOM      4  N   UNL     1       7.070   8.217  17.203  0.00  0.00    +0.000 N 
ATOM      5  H   UNL     1       8.061  10.453  17.308  0.00  0.00    +0.000 HD
ATOM      6  H   UNL     1       7.053   8.725  16.334  0.00  0.00    +0.000 HD
ENDROOT
BRANCH   1  10
ATOM      7  N   UNL     1       9.821  13.142  18.880  0.00  0.00    +0.000 N 
ATOM      8  C   UNL     1       8.705  12.554  19.614  0.00  0.00    +0.000 C 
ATOM      9  C   UNL     1       9.128  11.147  20.028  0.00  0.00    +0.000 C 
ATOM     10  C   UNL     1       9.589  10.316  18.826  0.00  0.00    +0.000 C 
ATOM     11  C   UNL     1      10.643  11.063  17.994  0.00  0.00    +0.000 C 
ATOM     12  C   UNL     1      10.186  12.474  17.637  0.00  0.00    +0.000 C 
BRANCH   7  16
ATOM     13  C   UNL     1      12.223  17.225  17.632  0.00  0.00    +0.000 C 
ATOM     14  C   UNL     1      11.218  16.469  18.447  0.00  0.00    +0.000 A 
ATOM     15  C   UNL     1      10.907  15.156  18.164  0.00  0.00    +0.000 A 
ATOM     16  C   UNL     1      10.025  14.506  19.012  0.00  0.00    +0.000 A 
ATOM     17  N   UNL     1       9.467  15.147  20.051  0.00  0.00    +0.000 NA
ATOM     18  C   UNL     1       9.813  16.430  20.250  0.00  0.00    +0.000 A 
ATOM     19  C   UNL     1       9.250  17.114  21.452  0.00  0.00    +0.000 C 
ATOM     20  N   UNL     1      10.676  17.123  19.490  0.00  0.00    +0.000 NA
ENDBRANCH   7  16
ENDBRANCH   1  10
BRANCH   4  21
ATOM     21  C   UNL     1       6.550   6.903  17.173  0.00  0.00    +0.000 A 
ATOM     22  C   UNL     1       7.146   5.902  16.404  0.00  0.00    +0.000 A 
ATOM     23  C   UNL     1       6.681   4.589  16.490  0.00  0.00    +0.000 A 
ATOM     24  C   UNL     1       5.565   4.292  17.275  0.00  0.00    +0.000 A 
ATOM     25  C   UNL     1       4.890   5.315  17.957  0.00  0.00    +0.000 A 
ATOM     26  C   UNL     1       5.429   6.610  17.942  0.00  0.00    +0.000 A 
BRANCH  25  27
ATOM     27  C   UNL     1       3.636   5.097  18.665  0.00  0.00    +0.000 A 
ATOM     28  N   UNL     1       2.719   4.171  18.442  0.00  0.00    +0.000 NA
ATOM     29  C   UNL     1       1.752   4.432  19.374  0.00  0.00    +0.000 A 
ATOM     30  C   UNL     1       2.124   5.504  20.144  0.00  0.00    +0.000 A 
ATOM     31  O   UNL     1       3.341   5.936  19.707  0.00  0.00    +0.000 OA
ENDBRANCH  25  27
ENDBRANCH   4  21
TORSDOF 4
ENDMDL
MODEL 8
REMARK VINA RESULT:      -8.7      7.081      9.861
REMARK  Name = 
REMARK  6 active torsions:
REMARK  status: ('A' for Active; 'I' for Inactive)
REMARK    1  A    between atoms: C_1  and  C_2
REMARK    2  A    between atoms: C_4  and  N_5
REMARK    3  A    between atoms: C_8  and  N_9
REMARK    4  A    between atoms: N_12  and  C_13
REMARK    5  A    between atoms: C_17  and  C_18
REMARK    6  A    between atoms: C_27  and  C_28
REMARK                            x       y       z     vdW  Elec       q    Type
REMARK                         _______ _______ _______ _____ _____    ______ ____
ROOT
ATOM      1  N   UNL     1       8.562   9.889  18.040  0.00  0.00    +0.000 N 
ATOM      2  C   UNL     1       8.194   8.566  18.126  0.00  0.00    +0.000 C 
ATOM      3  O   UNL     1       8.739   7.789  18.916  0.00  0.00    +0.000 OA
ATOM      4  N   UNL     1       7.187   8.220  17.265  0.00  0.00    +0.000 N 
ATOM      5  H   UNL     1       8.184  10.456  17.293  0.00  0.00    +0.000 HD
ATOM      6  H   UNL     1       7.205   8.682  16.371  0.00  0.00    +0.000 HD
ENDROOT
BRANCH   1  10
ATOM      7  N   UNL     1       9.854  13.221  18.845  0.00  0.00    +0.000 N 
ATOM      8  C   UNL     1       8.722  12.643  19.564  0.00  0.00    +0.000 C 
ATOM      9  C   UNL     1       9.146  11.255  20.035  0.00  0.00    +0.000 C 
ATOM     10  C   UNL     1       9.652  10.392  18.875  0.00  0.00    +0.000 C 
ATOM     11  C   UNL     1      10.722  11.124  18.051  0.00  0.00    +0.000 C 
ATOM     12  C   UNL     1      10.262  12.518  17.635  0.00  0.00    +0.000 C 
BRANCH   7  16
ATOM     13  C   UNL     1       8.157  17.677  19.970  0.00  0.00    +0.000 C 
ATOM     14  C   UNL     1       9.204  16.748  19.434  0.00  0.00    +0.000 A 
ATOM     15  C   UNL     1       9.063  15.379  19.527  0.00  0.00    +0.000 A 
ATOM     16  C   UNL     1      10.039  14.590  18.939  0.00  0.00    +0.000 A 
ATOM     17  N   UNL     1      11.101  15.143  18.333  0.00  0.00    +0.000 NA
ATOM     18  C   UNL     1      11.169  16.485  18.297  0.00  0.00    +0.000 A 
ATOM     19  C   UNL     1      12.312  17.094  17.554  0.00  0.00    +0.000 C 
ATOM     20  N   UNL     1      10.257  17.318  18.821  0.00  0.00    +0.000 NA
ENDBRANCH   7  16
ENDBRANCH   1  10
BRANCH   4  21
ATOM     21  C   UNL     1       6.662   6.908  17.282  0.00  0.00    +0.000 A 
ATOM     22  C   UNL     1       7.156   5.915  16.433  0.00  0.00    +0.000 A 
ATOM     23  C   UNL     1       6.700   4.603  16.558  0.00  0.00    +0.000 A 
ATOM     24  C   UNL     1       5.688   4.297  17.470  0.00  0.00    +0.000 A 
ATOM     25  C   UNL     1       5.105   5.312  18.243  0.00  0.00    +0.000 A 
ATOM     26  C   UNL     1       5.643   6.607  18.179  0.00  0.00    +0.000 A 
BRANCH  25  27
ATOM     27  C   UNL     1       3.946   5.087  19.097  0.00  0.00    +0.000 A 
ATOM     28  N   UNL     1       3.562   3.965  19.678  0.00  0.00    +0.000 NA
ATOM     29  C   UNL     1       2.415   4.310  20.339  0.00  0.00    +0.000 A 
ATOM     30  C   UNL     1       2.149   5.641  20.147  0.00  0.00    +0.000 A 
ATOM     31  O   UNL     1       3.133   6.159  19.358  0.00  0.00    +0.000 OA
ENDBRANCH  25  27
ENDBRANCH   4  21
TORSDOF 4
ENDMDL
MODEL 9
REMARK VINA RESULT:      -8.6      2.692      3.375
REMARK  Name = 
REMARK  6 active torsions:
REMARK  status: ('A' for Active; 'I' for Inactive)
REMARK    1  A    between atoms: C_1  and  C_2
REMARK    2  A    between atoms: C_4  and  N_5
REMARK    3  A    between atoms: C_8  and  N_9
REMARK    4  A    between atoms: N_12  and  C_13
REMARK    5  A    between atoms: C_17  and  C_18
REMARK    6  A    between atoms: C_27  and  C_28
REMARK                            x       y       z     vdW  Elec       q    Type
REMARK                         _______ _______ _______ _____ _____    ______ ____
ROOT
ATOM      1  N   UNL     1       1.322   9.304  19.581  0.00  0.00    +0.000 N 
ATOM      2  C   UNL     1       1.785   8.067  19.197  0.00  0.00    +0.000 C 
ATOM      3  O   UNL     1       1.887   7.750  18.008  0.00  0.00    +0.000 OA
ATOM      4  N   UNL     1       2.109   7.252  20.249  0.00  0.00    +0.000 N 
ATOM      5  H   UNL     1       1.131   9.475  20.558  0.00  0.00    +0.000 HD
ATOM      6  H   UNL     1       1.524   7.343  21.062  0.00  0.00    +0.000 HD
ENDROOT
BRANCH   1  10
ATOM      7  N   UNL     1      -0.391  12.541  19.658  0.00  0.00    +0.000 N 
ATOM      8  C   UNL     1       1.049  12.431  19.867  0.00  0.00    +0.000 C 
ATOM      9  C   UNL     1       1.613  11.615  18.708  0.00  0.00    +0.000 C 
ATOM     10  C   UNL     1       0.902  10.266  18.563  0.00  0.00    +0.000 C 
ATOM     11  C   UNL     1      -0.625  10.435  18.522  0.00  0.00    +0.000 C 
ATOM     12  C   UNL     1      -1.133  11.286  19.681  0.00  0.00    +0.000 C 
BRANCH   7  16
ATOM     13  C   UNL     1      -4.206  14.855  21.680  0.00  0.00    +0.000 C 
ATOM     14  C   UNL     1      -2.873  14.834  20.997  0.00  0.00    +0.000 A 
ATOM     15  C   UNL     1      -2.200  13.651  20.772  0.00  0.00    +0.000 A 
ATOM     16  C   UNL     1      -1.010  13.711  20.067  0.00  0.00    +0.000 A 
ATOM     17  N   UNL     1      -0.513  14.886  19.650  0.00  0.00    +0.000 NA
ATOM     18  C   UNL     1      -1.223  15.994  19.920  0.00  0.00    +0.000 A 
ATOM     19  C   UNL     1      -0.705  17.288  19.387  0.00  0.00    +0.000 C 
ATOM     20  N   UNL     1      -2.394  16.018  20.577  0.00  0.00    +0.000 NA
ENDBRANCH   7  16
ENDBRANCH   1  10
BRANCH   4  21
ATOM     21  C   UNL     1       2.656   5.971  20.009  0.00  0.00    +0.000 A 
ATOM     22  C   UNL     1       2.063   4.818  20.527  0.00  0.00    +0.000 A 
ATOM     23  C   UNL     1       2.556   3.562  20.172  0.00  0.00    +0.000 A 
ATOM     24  C   UNL     1       3.697   3.459  19.373  0.00  0.00    +0.000 A 
ATOM     25  C   UNL     1       4.366   4.615  18.947  0.00  0.00    +0.000 A 
ATOM     26  C   UNL     1       3.801   5.868  19.226  0.00  0.00    +0.000 A 
BRANCH  25  27
ATOM     27  C   UNL     1       5.642   4.574  18.243  0.00  0.00    +0.000 A 
ATOM     28  N   UNL     1       6.859   4.674  18.748  0.00  0.00    +0.000 NA
ATOM     29  C   UNL     1       7.678   4.590  17.655  0.00  0.00    +0.000 A 
ATOM     30  C   UNL     1       6.925   4.426  16.521  0.00  0.00    +0.000 A 
ATOM     31  O   UNL     1       5.612   4.402  16.884  0.00  0.00    +0.000 OA
ENDBRANCH  25  27
ENDBRANCH   4  21
TORSDOF 4
ENDMDL
