MODEL 1
REMARK VINA RESULT:      -8.5      0.000      0.000
REMARK  Name = 
REMARK  4 active torsions:
REMARK  status: ('A' for Active; 'I' for Inactive)
REMARK    1  A    between atoms: C_2  and  C_3
REMARK    2  A    between atoms: C_3  and  N_4
REMARK    3  A    between atoms: N_15  and  C_16
REMARK    4  A    between atoms: C_17  and  C_18
REMARK                            x       y       z     vdW  Elec       q    Type
REMARK                         _______ _______ _______ _____ _____    ______ ____
ROOT
ATOM      1  O   UNL     1       3.781   8.294  18.040  0.00  0.00    +0.000 OA
ATOM      2  C   UNL     1       2.665   7.803  17.956  0.00  0.00    +0.000 C 
ATOM      3  N   UNL     1       2.541   6.397  17.696  0.00  0.00    +0.000 N 
ATOM      4  H   UNL     1       1.668   6.022  17.323  0.00  0.00    +0.000 HD
ENDROOT
BRANCH   3   5
ATOM      5  C   UNL     1       3.670   5.570  17.710  0.00  0.00    +0.000 A 
ATOM      6  C   UNL     1       3.976   4.598  18.660  0.00  0.00    +0.000 A 
ATOM      7  N   UNL     1       5.227   4.043  18.435  0.00  0.00    +0.000 NA
ATOM      8  C   UNL     1       5.616   4.618  17.335  0.00  0.00    +0.000 A 
ATOM      9  S   UNL     1       7.037   4.497  16.345  0.00  0.00    +0.000 S 
ATOM     10  C   UNL     1       6.350   5.722  15.269  0.00  0.00    +0.000 A 
ATOM     11  C   UNL     1       5.143   6.158  15.673  0.00  0.00    +0.000 A 
ATOM     12  N   UNL     1       4.732   5.528  16.833  0.00  0.00    +0.000 N 
BRANCH   6  13
ATOM     13  C   UNL     1       3.097   4.066  19.690  0.00  0.00    +0.000 A 
ATOM     14  C   UNL     1       1.712   4.319  19.680  0.00  0.00    +0.000 A 
ATOM     15  C   UNL     1       0.871   3.707  20.609  0.00  0.00    +0.000 A 
ATOM     16  C   UNL     1       1.405   2.823  21.540  0.00  0.00    +0.000 A 
ATOM     17  F   UNL     1       0.592   2.212  22.401  0.00  0.00    +0.000 F 
ATOM     18  C   UNL     1       2.769   2.555  21.564  0.00  0.00    +0.000 A 
ATOM     19  C   UNL     1       3.612   3.176  20.642  0.00  0.00    +0.000 A 
ENDBRANCH   6  13
ENDBRANCH   3   5
BRANCH   2  20
ATOM     20  C   UNL     1       1.371   8.581  18.064  0.00  0.00    +0.000 C 
BRANCH  20  21
ATOM     21  N   UNL     1       1.129   9.239  19.334  0.00  0.00    +0.000 N 
ATOM     22  C   UNL     1       1.248   8.615  20.540  0.00  0.00    +0.000 C 
ATOM     23  O   UNL     1       1.319   7.404  20.661  0.00  0.00    +0.000 OA
ATOM     24  C   UNL     1       1.330   9.669  21.623  0.00  0.00    +0.000 C 
ATOM     25  C   UNL     1       0.618   9.273  22.912  0.00  0.00    +0.000 C 
ATOM     26  C   UNL     1      -0.642  10.012  23.207  0.00  0.00    +0.000 C 
ATOM     27  C   UNL     1      -1.039  11.110  22.559  0.00  0.00    +0.000 C 
ATOM     28  C   UNL     1      -0.281  11.754  21.447  0.00  0.00    +0.000 C 
ATOM     29  C   UNL     1       0.910  10.963  20.908  0.00  0.00    +0.000 C 
ATOM     30  C   UNL     1       0.731  10.533  19.467  0.00  0.00    +0.000 C 
ATOM     31  O   UNL     1       0.328  11.234  18.554  0.00  0.00    +0.000 OA
ENDBRANCH  20  21
ENDBRANCH   2  20
TORSDOF 4
ENDMDL
MODEL 2
REMARK VINA RESULT:      -8.2      2.846      4.646
REMARK  Name = 
REMARK  4 active torsions:
REMARK  status: ('A' for Active; 'I' for Inactive)
REMARK    1  A    between atoms: C_2  and  C_3
REMARK    2  A    between atoms: C_3  and  N_4
REMARK    3  A    between atoms: N_15  and  C_16
REMARK    4  A    between atoms: C_17  and  C_18
REMARK                            x       y       z     vdW  Elec       q    Type
REMARK                         _______ _______ _______ _____ _____    ______ ____
ROOT
ATOM      1  O   UNL     1       1.747   7.437  17.658  0.00  0.00    +0.000 OA
ATOM      2  C   UNL     1       2.207   7.922  18.681  0.00  0.00    +0.000 C 
ATOM      3  N   UNL     1       2.791   7.052  19.662  0.00  0.00    +0.000 N 
ATOM      4  H   UNL     1       2.898   7.370  20.627  0.00  0.00    +0.000 HD
ENDROOT
BRANCH   3   5
ATOM      5  C   UNL     1       2.988   5.696  19.380  0.00  0.00    +0.000 A 
ATOM      6  C   UNL     1       4.034   5.144  18.643  0.00  0.00    +0.000 A 
ATOM      7  N   UNL     1       3.862   3.781  18.459  0.00  0.00    +0.000 NA
ATOM      8  C   UNL     1       2.783   3.520  19.138  0.00  0.00    +0.000 A 
ATOM      9  S   UNL     1       1.877   2.075  19.460  0.00  0.00    +0.000 S 
ATOM     10  C   UNL     1       0.736   3.042  20.405  0.00  0.00    +0.000 A 
ATOM     11  C   UNL     1       1.058   4.348  20.440  0.00  0.00    +0.000 A 
ATOM     12  N   UNL     1       2.216   4.610  19.731  0.00  0.00    +0.000 N 
BRANCH   6  13
ATOM     13  C   UNL     1       5.256   5.808  18.217  0.00  0.00    +0.000 A 
ATOM     14  C   UNL     1       5.246   6.808  17.227  0.00  0.00    +0.000 A 
ATOM     15  C   UNL     1       6.409   7.512  16.915  0.00  0.00    +0.000 A 
ATOM     16  C   UNL     1       7.584   7.235  17.605  0.00  0.00    +0.000 A 
ATOM     17  F   UNL     1       8.683   7.936  17.329  0.00  0.00    +0.000 F 
ATOM     18  C   UNL     1       7.615   6.254  18.589  0.00  0.00    +0.000 A 
ATOM     19  C   UNL     1       6.455   5.543  18.894  0.00  0.00    +0.000 A 
ENDBRANCH   6  13
ENDBRANCH   3   5
BRANCH   2  20
ATOM     20  C   UNL     1       2.172   9.396  19.027  0.00  0.00    +0.000 C 
BRANCH  20  21
ATOM     21  N   UNL     1       1.026   9.841  19.797  0.00  0.00    +0.000 N 
ATOM     22  C   UNL     1       0.116  10.745  19.338  0.00  0.00    +0.000 C 
ATOM     23  O   UNL     1       0.307  11.448  18.359  0.00  0.00    +0.000 OA
ATOM     24  C   UNL     1      -1.125  10.661  20.201  0.00  0.00    +0.000 C 
ATOM     25  C   UNL     1      -1.790  12.013  20.441  0.00  0.00    +0.000 C 
ATOM     26  C   UNL     1      -1.668  12.555  21.825  0.00  0.00    +0.000 C 
ATOM     27  C   UNL     1      -1.232  11.851  22.873  0.00  0.00    +0.000 C 
ATOM     28  C   UNL     1      -0.806  10.422  22.811  0.00  0.00    +0.000 C 
ATOM     29  C   UNL     1      -0.676   9.827  21.409  0.00  0.00    +0.000 C 
ATOM     30  C   UNL     1       0.746   9.434  21.064  0.00  0.00    +0.000 C 
ATOM     31  O   UNL     1       1.516   8.819  21.784  0.00  0.00    +0.000 OA
ENDBRANCH  20  21
ENDBRANCH   2  20
TORSDOF 4
ENDMDL
MODEL 3
REMARK VINA RESULT:      -8.1      1.039      1.923
REMARK  Name = 
REMARK  4 active torsions:
REMARK  status: ('A' for Active; 'I' for Inactive)
REMARK    1  A    between atoms: C_2  and  C_3
REMARK    2  A    between atoms: C_3  and  N_4
REMARK    3  A    between atoms: N_15  and  C_16
REMARK    4  A    between atoms: C_17  and  C_18
REMARK                            x       y       z     vdW  Elec       q    Type
REMARK                         _______ _______ _______ _____ _____    ______ ____
ROOT
ATOM      1  O   UNL     1       1.929   7.121  17.310  0.00  0.00    +0.000 OA
ATOM      2  C   UNL     1       2.791   7.609  18.027  0.00  0.00    +0.000 C 
ATOM      3  N   UNL     1       3.968   6.843  18.320  0.00  0.00    +0.000 N 
ATOM      4  H   UNL     1       4.542   7.078  19.131  0.00  0.00    +0.000 HD
ENDROOT
BRANCH   3   5
ATOM      5  C   UNL     1       4.210   5.633  17.660  0.00  0.00    +0.000 A 
ATOM      6  C   UNL     1       3.904   4.356  18.126  0.00  0.00    +0.000 A 
ATOM      7  N   UNL     1       4.383   3.374  17.273  0.00  0.00    +0.000 NA
ATOM      8  C   UNL     1       4.891   4.056  16.288  0.00  0.00    +0.000 A 
ATOM      9  S   UNL     1       5.674   3.628  14.799  0.00  0.00    +0.000 S 
ATOM     10  C   UNL     1       5.862   5.350  14.442  0.00  0.00    +0.000 A 
ATOM     11  C   UNL     1       5.360   6.144  15.405  0.00  0.00    +0.000 A 
ATOM     12  N   UNL     1       4.808   5.409  16.439  0.00  0.00    +0.000 N 
BRANCH   6  13
ATOM     13  C   UNL     1       3.066   4.013  19.265  0.00  0.00    +0.000 A 
ATOM     14  C   UNL     1       1.685   4.281  19.271  0.00  0.00    +0.000 A 
ATOM     15  C   UNL     1       0.880   3.841  20.323  0.00  0.00    +0.000 A 
ATOM     16  C   UNL     1       1.447   3.114  21.363  0.00  0.00    +0.000 A 
ATOM     17  F   UNL     1       0.667   2.665  22.345  0.00  0.00    +0.000 F 
ATOM     18  C   UNL     1       2.808   2.835  21.374  0.00  0.00    +0.000 A 
ATOM     19  C   UNL     1       3.615   3.284  20.329  0.00  0.00    +0.000 A 
ENDBRANCH   6  13
ENDBRANCH   3   5
BRANCH   2  20
ATOM     20  C   UNL     1       2.696   8.970  18.683  0.00  0.00    +0.000 C 
BRANCH  20  21
ATOM     21  N   UNL     1       1.555   9.178  19.555  0.00  0.00    +0.000 N 
ATOM     22  C   UNL     1       0.740  10.267  19.482  0.00  0.00    +0.000 C 
ATOM     23  O   UNL     1       1.029  11.278  18.863  0.00  0.00    +0.000 OA
ATOM     24  C   UNL     1      -0.542   9.963  20.228  0.00  0.00    +0.000 C 
ATOM     25  C   UNL     1      -1.109  11.164  20.977  0.00  0.00    +0.000 C 
ATOM     26  C   UNL     1      -1.007  11.105  22.463  0.00  0.00    +0.000 C 
ATOM     27  C   UNL     1      -0.675  10.009  23.151  0.00  0.00    +0.000 C 
ATOM     28  C   UNL     1      -0.359   8.688  22.533  0.00  0.00    +0.000 C 
ATOM     29  C   UNL     1      -0.214   8.683  21.012  0.00  0.00    +0.000 C 
ATOM     30  C   UNL     1       1.187   8.332  20.553  0.00  0.00    +0.000 C 
ATOM     31  O   UNL     1       1.873   7.417  20.980  0.00  0.00    +0.000 OA
ENDBRANCH  20  21
ENDBRANCH   2  20
TORSDOF 4
ENDMDL
MODEL 4
REMARK VINA RESULT:      -7.9      4.195      8.447
REMARK  Name = 
REMARK  4 active torsions:
REMARK  status: ('A' for Active; 'I' for Inactive)
REMARK    1  A    between atoms: C_2  and  C_3
REMARK    2  A    between atoms: C_3  and  N_4
REMARK    3  A    between atoms: N_15  and  C_16
REMARK    4  A    between atoms: C_17  and  C_18
REMARK                            x       y       z     vdW  Elec       q    Type
REMARK                         _______ _______ _______ _____ _____    ______ ____
ROOT
ATOM      1  O   UNL     1       1.589   8.849  17.673  0.00  0.00    +0.000 OA
ATOM      2  C   UNL     1       1.588   8.755  18.892  0.00  0.00    +0.000 C 
ATOM      3  N   UNL     1       0.848   9.714  19.662  0.00  0.00    +0.000 N 
ATOM      4  H   UNL     1       1.066   9.853  20.649  0.00  0.00    +0.000 HD
ENDROOT
BRANCH   3   5
ATOM      5  C   UNL     1       0.003  10.632  19.029  0.00  0.00    +0.000 A 
ATOM      6  C   UNL     1       0.217  12.003  18.894  0.00  0.00    +0.000 A 
ATOM      7  N   UNL     1      -0.873  12.633  18.314  0.00  0.00    +0.000 NA
ATOM      8  C   UNL     1      -1.679  11.648  18.042  0.00  0.00    +0.000 A 
ATOM      9  S   UNL     1      -3.244  11.537  17.299  0.00  0.00    +0.000 S 
ATOM     10  C   UNL     1      -3.201   9.787  17.550  0.00  0.00    +0.000 A 
ATOM     11  C   UNL     1      -2.073   9.370  18.154  0.00  0.00    +0.000 A 
ATOM     12  N   UNL     1      -1.217  10.422  18.422  0.00  0.00    +0.000 N 
BRANCH   6  13
ATOM     13  C   UNL     1       1.449  12.731  19.157  0.00  0.00    +0.000 A 
ATOM     14  C   UNL     1       2.292  13.155  18.114  0.00  0.00    +0.000 A 
ATOM     15  C   UNL     1       3.407  13.950  18.380  0.00  0.00    +0.000 A 
ATOM     16  C   UNL     1       3.674  14.342  19.687  0.00  0.00    +0.000 A 
ATOM     17  F   UNL     1       4.719  15.132  19.930  0.00  0.00    +0.000 F 
ATOM     18  C   UNL     1       2.851  13.938  20.732  0.00  0.00    +0.000 A 
ATOM     19  C   UNL     1       1.743  13.134  20.467  0.00  0.00    +0.000 A 
ENDBRANCH   6  13
ENDBRANCH   3   5
BRANCH   2  20
ATOM     20  C   UNL     1       2.355   7.713  19.677  0.00  0.00    +0.000 C 
BRANCH  20  21
ATOM     21  N   UNL     1       2.341   6.368  19.132  0.00  0.00    +0.000 N 
ATOM     22  C   UNL     1       1.647   5.338  19.690  0.00  0.00    +0.000 C 
ATOM     23  O   UNL     1       1.186   5.376  20.818  0.00  0.00    +0.000 OA
ATOM     24  C   UNL     1       1.521   4.230  18.666  0.00  0.00    +0.000 C 
ATOM     25  C   UNL     1       1.610   2.832  19.269  0.00  0.00    +0.000 C 
ATOM     26  C   UNL     1       2.857   2.074  18.963  0.00  0.00    +0.000 C 
ATOM     27  C   UNL     1       3.753   2.442  18.043  0.00  0.00    +0.000 C 
ATOM     28  C   UNL     1       3.637   3.661  17.191  0.00  0.00    +0.000 C 
ATOM     29  C   UNL     1       2.517   4.631  17.568  0.00  0.00    +0.000 C 
ATOM     30  C   UNL     1       3.034   5.979  18.029  0.00  0.00    +0.000 C 
ATOM     31  O   UNL     1       3.907   6.636  17.486  0.00  0.00    +0.000 OA
ENDBRANCH  20  21
ENDBRANCH   2  20
TORSDOF 4
ENDMDL
MODEL 5
REMARK VINA RESULT:      -7.8      3.043      4.751
REMARK  Name = 
REMARK  4 active torsions:
REMARK  status: ('A' for Active; 'I' for Inactive)
REMARK    1  A    between atoms: C_2  and  C_3
REMARK    2  A    between atoms: C_3  and  N_4
REMARK    3  A    between atoms: N_15  and  C_16
REMARK    4  A    between atoms: C_17  and  C_18
REMARK                            x       y       z     vdW  Elec       q    Type
REMARK                         _______ _______ _______ _____ _____    ______ ____
ROOT
ATOM      1  O   UNL     1       2.233   7.848  20.037  0.00  0.00    +0.000 OA
ATOM      2  C   UNL     1       1.973   7.723  18.849  0.00  0.00    +0.000 C 
ATOM      3  N   UNL     1       2.392   6.532  18.166  0.00  0.00    +0.000 N 
ATOM      4  H   UNL     1       2.468   6.526  17.148  0.00  0.00    +0.000 HD
ENDROOT
BRANCH   3   5
ATOM      5  C   UNL     1       2.932   5.458  18.881  0.00  0.00    +0.000 A 
ATOM      6  C   UNL     1       4.267   5.058  18.899  0.00  0.00    +0.000 A 
ATOM      7  N   UNL     1       4.438   3.886  19.621  0.00  0.00    +0.000 NA
ATOM      8  C   UNL     1       3.246   3.643  20.083  0.00  0.00    +0.000 A 
ATOM      9  S   UNL     1       2.571   2.401  21.090  0.00  0.00    +0.000 S 
ATOM     10  C   UNL     1       0.992   3.182  20.936  0.00  0.00    +0.000 A 
ATOM     11  C   UNL     1       1.025   4.289  20.172  0.00  0.00    +0.000 A 
ATOM     12  N   UNL     1       2.299   4.548  19.700  0.00  0.00    +0.000 N 
BRANCH   6  13
ATOM     13  C   UNL     1       5.412   5.793  18.386  0.00  0.00    +0.000 A 
ATOM     14  C   UNL     1       5.280   6.732  17.346  0.00  0.00    +0.000 A 
ATOM     15  C   UNL     1       6.368   7.509  16.947  0.00  0.00    +0.000 A 
ATOM     16  C   UNL     1       7.588   7.367  17.598  0.00  0.00    +0.000 A 
ATOM     17  F   UNL     1       8.613   8.138  17.238  0.00  0.00    +0.000 F 
ATOM     18  C   UNL     1       7.739   6.449  18.631  0.00  0.00    +0.000 A 
ATOM     19  C   UNL     1       6.655   5.664  19.022  0.00  0.00    +0.000 A 
ENDBRANCH   6  13
ENDBRANCH   3   5
BRANCH   2  20
ATOM     20  C   UNL     1       1.267   8.765  18.007  0.00  0.00    +0.000 C 
BRANCH  20  21
ATOM     21  N   UNL     1       1.099  10.069  18.620  0.00  0.00    +0.000 N 
ATOM     22  C   UNL     1       0.091  10.370  19.486  0.00  0.00    +0.000 C 
ATOM     23  O   UNL     1      -0.895   9.668  19.633  0.00  0.00    +0.000 OA
ATOM     24  C   UNL     1       0.453  11.640  20.225  0.00  0.00    +0.000 C 
ATOM     25  C   UNL     1      -0.744  12.545  20.500  0.00  0.00    +0.000 C 
ATOM     26  C   UNL     1      -0.797  13.805  19.706  0.00  0.00    +0.000 C 
ATOM     27  C   UNL     1       0.216  14.276  18.974  0.00  0.00    +0.000 C 
ATOM     28  C   UNL     1       1.544  13.609  18.844  0.00  0.00    +0.000 C 
ATOM     29  C   UNL     1       1.642  12.201  19.431  0.00  0.00    +0.000 C 
ATOM     30  C   UNL     1       1.902  11.140  18.381  0.00  0.00    +0.000 C 
ATOM     31  O   UNL     1       2.723  11.208  17.481  0.00  0.00    +0.000 OA
ENDBRANCH  20  21
ENDBRANCH   2  20
TORSDOF 4
ENDMDL
MODEL 6
REMARK VINA RESULT:      -7.7      2.801      4.814
REMARK  Name = 
REMARK  4 active torsions:
REMARK  status: ('A' for Active; 'I' for Inactive)
REMARK    1  A    between atoms: C_2  and  C_3
REMARK    2  A    between atoms: C_3  and  N_4
REMARK    3  A    between atoms: N_15  and  C_16
REMARK    4  A    between atoms: C_17  and  C_18
REMARK                            x       y       z     vdW  Elec       q    Type
REMARK                         _______ _______ _______ _____ _____    ______ ____
ROOT
ATOM      1  O   UNL     1       1.696   6.386  17.738  0.00  0.00    +0.000 OA
ATOM      2  C   UNL     1       2.556   7.033  18.317  0.00  0.00    +0.000 C 
ATOM      3  N   UNL     1       3.468   6.353  19.192  0.00  0.00    +0.000 N 
ATOM      4  H   UNL     1       3.978   6.876  19.905  0.00  0.00    +0.000 HD
ENDROOT
BRANCH   3   5
ATOM      5  C   UNL     1       3.487   4.955  19.249  0.00  0.00    +0.000 A 
ATOM      6  C   UNL     1       4.117   4.095  18.351  0.00  0.00    +0.000 A 
ATOM      7  N   UNL     1       3.840   2.767  18.639  0.00  0.00    +0.000 NA
ATOM      8  C   UNL     1       3.129   2.839  19.727  0.00  0.00    +0.000 A 
ATOM      9  S   UNL     1       2.389   1.662  20.767  0.00  0.00    +0.000 S 
ATOM     10  C   UNL     1       1.773   2.984  21.767  0.00  0.00    +0.000 A 
ATOM     11  C   UNL     1       2.123   4.199  21.306  0.00  0.00    +0.000 A 
ATOM     12  N   UNL     1       2.893   4.111  20.161  0.00  0.00    +0.000 N 
BRANCH   6  13
ATOM     13  C   UNL     1       5.076   4.452  17.317  0.00  0.00    +0.000 A 
ATOM     14  C   UNL     1       6.444   4.612  17.603  0.00  0.00    +0.000 A 
ATOM     15  C   UNL     1       7.363   4.840  16.579  0.00  0.00    +0.000 A 
ATOM     16  C   UNL     1       6.923   4.890  15.261  0.00  0.00    +0.000 A 
ATOM     17  F   UNL     1       7.810   5.071  14.283  0.00  0.00    +0.000 F 
ATOM     18  C   UNL     1       5.576   4.729  14.955  0.00  0.00    +0.000 A 
ATOM     19  C   UNL     1       4.656   4.512  15.981  0.00  0.00    +0.000 A 
ENDBRANCH   6  13
ENDBRANCH   3   5
BRANCH   2  20
ATOM     20  C   UNL     1       2.715   8.536  18.219  0.00  0.00    +0.000 C 
BRANCH  20  21
ATOM     21  N   UNL     1       1.706   9.328  18.897  0.00  0.00    +0.000 N 
ATOM     22  C   UNL     1       1.338  10.578  18.500  0.00  0.00    +0.000 C 
ATOM     23  O   UNL     1       1.984  11.245  17.709  0.00  0.00    +0.000 OA
ATOM     24  C   UNL     1       0.017  10.923  19.155  0.00  0.00    +0.000 C 
ATOM     25  C   UNL     1      -0.097  12.389  19.557  0.00  0.00    +0.000 C 
ATOM     26  C   UNL     1      -0.054  12.662  21.022  0.00  0.00    +0.000 C 
ATOM     27  C   UNL     1      -0.153  11.722  21.965  0.00  0.00    +0.000 C 
ATOM     28  C   UNL     1      -0.319  10.265  21.690  0.00  0.00    +0.000 C 
ATOM     29  C   UNL     1      -0.153   9.840  20.231  0.00  0.00    +0.000 C 
ATOM     30  C   UNL     1       1.038   8.929  20.013  0.00  0.00    +0.000 C 
ATOM     31  O   UNL     1       1.341   7.968  20.700  0.00  0.00    +0.000 OA
ENDBRANCH  20  21
ENDBRANCH   2  20
TORSDOF 4
ENDMDL
MODEL 7
REMARK VINA RESULT:      -7.7      4.465      8.749
REMARK  Name = 
REMARK  4 active torsions:
REMARK  status: ('A' for Active; 'I' for Inactive)
REMARK    1  A    between atoms: C_2  and  C_3
REMARK    2  A    between atoms: C_3  and  N_4
REMARK    3  A    between atoms: N_15  and  C_16
REMARK    4  A    between atoms: C_17  and  C_18
REMARK                            x       y       z     vdW  Elec       q    Type
REMARK                         _______ _______ _______ _____ _____    ______ ____
ROOT
ATOM      1  O   UNL     1      -1.029   9.359  20.071  0.00  0.00    +0.000 OA
ATOM      2  C   UNL     1      -0.172  10.085  19.588  0.00  0.00    +0.000 C 
ATOM      3  N   UNL     1      -0.580  11.234  18.831  0.00  0.00    +0.000 N 
ATOM      4  H   UNL     1       0.071  11.671  18.177  0.00  0.00    +0.000 HD
ENDROOT
BRANCH   3   5
ATOM      5  C   UNL     1      -1.925  11.616  18.791  0.00  0.00    +0.000 A 
ATOM      6  C   UNL     1      -2.651  12.212  19.820  0.00  0.00    +0.000 A 
ATOM      7  N   UNL     1      -3.988  12.354  19.484  0.00  0.00    +0.000 NA
ATOM      8  C   UNL     1      -4.036  11.924  18.257  0.00  0.00    +0.000 A 
ATOM      9  S   UNL     1      -5.300  11.770  17.078  0.00  0.00    +0.000 S 
ATOM     10  C   UNL     1      -4.118  11.095  15.948  0.00  0.00    +0.000 A 
ATOM     11  C   UNL     1      -2.881  11.010  16.471  0.00  0.00    +0.000 A 
ATOM     12  N   UNL     1      -2.839  11.485  17.768  0.00  0.00    +0.000 N 
BRANCH   6  13
ATOM     13  C   UNL     1      -2.126  12.779  21.053  0.00  0.00    +0.000 A 
ATOM     14  C   UNL     1      -1.262  13.890  21.045  0.00  0.00    +0.000 A 
ATOM     15  C   UNL     1      -0.862  14.488  22.239  0.00  0.00    +0.000 A 
ATOM     16  C   UNL     1      -1.339  13.994  23.448  0.00  0.00    +0.000 A 
ATOM     17  F   UNL     1      -0.984  14.594  24.584  0.00  0.00    +0.000 F 
ATOM     18  C   UNL     1      -2.198  12.901  23.479  0.00  0.00    +0.000 A 
ATOM     19  C   UNL     1      -2.589  12.296  22.285  0.00  0.00    +0.000 A 
ENDBRANCH   6  13
ENDBRANCH   3   5
BRANCH   2  20
ATOM     20  C   UNL     1       1.319   9.842  19.689  0.00  0.00    +0.000 C 
BRANCH  20  21
ATOM     21  N   UNL     1       1.750   8.464  19.549  0.00  0.00    +0.000 N 
ATOM     22  C   UNL     1       2.239   7.942  18.389  0.00  0.00    +0.000 C 
ATOM     23  O   UNL     1       2.128   8.496  17.308  0.00  0.00    +0.000 OA
ATOM     24  C   UNL     1       2.956   6.647  18.707  0.00  0.00    +0.000 C 
ATOM     25  C   UNL     1       2.780   5.577  17.634  0.00  0.00    +0.000 C 
ATOM     26  C   UNL     1       1.916   4.422  18.010  0.00  0.00    +0.000 C 
ATOM     27  C   UNL     1       1.497   4.169  19.252  0.00  0.00    +0.000 C 
ATOM     28  C   UNL     1       1.833   5.004  20.442  0.00  0.00    +0.000 C 
ATOM     29  C   UNL     1       2.526   6.334  20.148  0.00  0.00    +0.000 C 
ATOM     30  C   UNL     1       1.690   7.535  20.540  0.00  0.00    +0.000 C 
ATOM     31  O   UNL     1       1.083   7.675  21.589  0.00  0.00    +0.000 OA
ENDBRANCH  20  21
ENDBRANCH   2  20
TORSDOF 4
ENDMDL
MODEL 8
REMARK VINA RESULT:      -7.7      4.639      9.008
REMARK  Name = 
REMARK  4 active torsions:
REMARK  status: ('A' for Active; 'I' for Inactive)
REMARK    1  A    between atoms: C_2  and  C_3
REMARK    2  A    between atoms: C_3  and  N_4
REMARK    3  A    between atoms: N_15  and  C_16
REMARK    4  A    between atoms: C_17  and  C_18
REMARK                            x       y       z     vdW  Elec       q    Type
REMARK                         _______ _______ _______ _____ _____    ______ ____
ROOT
ATOM      1  O   UNL     1      -1.228   9.492  19.144  0.00  0.00    +0.000 OA
ATOM      2  C   UNL     1      -0.447  10.411  19.342  0.00  0.00    +0.000 C 
ATOM      3  N   UNL     1      -0.941  11.759  19.330  0.00  0.00    +0.000 N 
ATOM      4  H   UNL     1      -0.296  12.537  19.185  0.00  0.00    +0.000 HD
ENDROOT
BRANCH   3   5
ATOM      5  C   UNL     1      -2.315  12.010  19.268  0.00  0.00    +0.000 A 
ATOM      6  C   UNL     1      -3.107  12.559  20.274  0.00  0.00    +0.000 A 
ATOM      7  N   UNL     1      -4.448  12.564  19.922  0.00  0.00    +0.000 NA
ATOM      8  C   UNL     1      -4.440  12.100  18.707  0.00  0.00    +0.000 A 
ATOM      9  S   UNL     1      -5.670  11.796  17.521  0.00  0.00    +0.000 S 
ATOM     10  C   UNL     1      -4.417  11.208  16.421  0.00  0.00    +0.000 A 
ATOM     11  C   UNL     1      -3.183  11.255  16.956  0.00  0.00    +0.000 A 
ATOM     12  N   UNL     1      -3.201  11.766  18.241  0.00  0.00    +0.000 N 
BRANCH   6  13
ATOM     13  C   UNL     1      -2.652  13.206  21.496  0.00  0.00    +0.000 A 
ATOM     14  C   UNL     1      -3.216  12.896  22.748  0.00  0.00    +0.000 A 
ATOM     15  C   UNL     1      -2.689  13.441  23.919  0.00  0.00    +0.000 A 
ATOM     16  C   UNL     1      -1.584  14.282  23.848  0.00  0.00    +0.000 A 
ATOM     17  F   UNL     1      -1.062  14.769  24.973  0.00  0.00    +0.000 F 
ATOM     18  C   UNL     1      -1.009  14.597  22.622  0.00  0.00    +0.000 A 
ATOM     19  C   UNL     1      -1.542  14.061  21.450  0.00  0.00    +0.000 A 
ENDBRANCH   6  13
ENDBRANCH   3   5
BRANCH   2  20
ATOM     20  C   UNL     1       1.042  10.244  19.560  0.00  0.00    +0.000 C 
BRANCH  20  21
ATOM     21  N   UNL     1       1.544   8.884  19.507  0.00  0.00    +0.000 N 
ATOM     22  C   UNL     1       2.109   8.333  18.396  0.00  0.00    +0.000 C 
ATOM     23  O   UNL     1       2.019   8.829  17.285  0.00  0.00    +0.000 OA
ATOM     24  C   UNL     1       2.872   7.092  18.807  0.00  0.00    +0.000 C 
ATOM     25  C   UNL     1       2.796   5.965  17.782  0.00  0.00    +0.000 C 
ATOM     26  C   UNL     1       1.972   4.787  18.178  0.00  0.00    +0.000 C 
ATOM     27  C   UNL     1       1.511   4.573  19.413  0.00  0.00    +0.000 C 
ATOM     28  C   UNL     1       1.754   5.479  20.573  0.00  0.00    +0.000 C 
ATOM     29  C   UNL     1       2.394   6.827  20.242  0.00  0.00    +0.000 C 
ATOM     30  C   UNL     1       1.485   8.002  20.540  0.00  0.00    +0.000 C 
ATOM     31  O   UNL     1       0.827   8.161  21.554  0.00  0.00    +0.000 OA
ENDBRANCH  20  21
ENDBRANCH   2  20
TORSDOF 4
ENDMDL
MODEL 9
REMARK VINA RESULT:      -7.7      5.110      9.210
REMARK  Name = 
REMARK  4 active torsions:
REMARK  status: ('A' for Active; 'I' for Inactive)
REMARK    1  A    between atoms: C_2  and  C_3
REMARK    2  A    between atoms: C_3  and  N_4
REMARK    3  A    between atoms: N_15  and  C_16
REMARK    4  A    between atoms: C_17  and  C_18
REMARK                            x       y       z     vdW  Elec       q    Type
REMARK                         _______ _______ _______ _____ _____    ______ ____
ROOT
ATOM      1  O   UNL     1      -0.641  14.181  20.276  0.00  0.00    +0.000 OA
ATOM      2  C   UNL     1      -0.364  13.020  20.542  0.00  0.00    +0.000 C 
ATOM      3  N   UNL     1      -1.415  12.127  20.937  0.00  0.00    +0.000 N 
ATOM      4  H   UNL     1      -1.192  11.271  21.447  0.00  0.00    +0.000 HD
ENDROOT
BRANCH   3   5
ATOM      5  C   UNL     1      -2.753  12.525  20.854  0.00  0.00    +0.000 A 
ATOM      6  C   UNL     1      -3.584  12.420  19.740  0.00  0.00    +0.000 A 
ATOM      7  N   UNL     1      -4.816  13.015  19.966  0.00  0.00    +0.000 NA
ATOM      8  C   UNL     1      -4.742  13.393  21.209  0.00  0.00    +0.000 A 
ATOM      9  S   UNL     1      -5.835  14.191  22.297  0.00  0.00    +0.000 S 
ATOM     10  C   UNL     1      -4.588  14.118  23.549  0.00  0.00    +0.000 A 
ATOM     11  C   UNL     1      -3.453  13.530  23.127  0.00  0.00    +0.000 A 
ATOM     12  N   UNL     1      -3.549  13.117  21.811  0.00  0.00    +0.000 N 
BRANCH   6  13
ATOM     13  C   UNL     1      -3.329  11.670  18.520  0.00  0.00    +0.000 A 
ATOM     14  C   UNL     1      -2.247  10.776  18.416  0.00  0.00    +0.000 A 
ATOM     15  C   UNL     1      -2.087   9.983  17.280  0.00  0.00    +0.000 A 
ATOM     16  C   UNL     1      -3.018  10.062  16.251  0.00  0.00    +0.000 A 
ATOM     17  F   UNL     1      -2.880   9.275  15.185  0.00  0.00    +0.000 F 
ATOM     18  C   UNL     1      -4.096  10.935  16.335  0.00  0.00    +0.000 A 
ATOM     19  C   UNL     1      -4.250  11.737  17.466  0.00  0.00    +0.000 A 
ENDBRANCH   6  13
ENDBRANCH   3   5
BRANCH   2  20
ATOM     20  C   UNL     1       1.037  12.445  20.529  0.00  0.00    +0.000 C 
BRANCH  20  21
ATOM     21  N   UNL     1       1.162  11.088  20.031  0.00  0.00    +0.000 N 
ATOM     22  C   UNL     1       0.980   9.982  20.806  0.00  0.00    +0.000 C 
ATOM     23  O   UNL     1       0.946  10.018  22.024  0.00  0.00    +0.000 OA
ATOM     24  C   UNL     1       0.780   8.786  19.900  0.00  0.00    +0.000 C 
ATOM     25  C   UNL     1       1.412   7.506  20.437  0.00  0.00    +0.000 C 
ATOM     26  C   UNL     1       2.619   7.025  19.705  0.00  0.00    +0.000 C 
ATOM     27  C   UNL     1       3.020   7.500  18.523  0.00  0.00    +0.000 C 
ATOM     28  C   UNL     1       2.320   8.578  17.765  0.00  0.00    +0.000 C 
ATOM     29  C   UNL     1       1.201   9.300  18.515  0.00  0.00    +0.000 C 
ATOM     30  C   UNL     1       1.500  10.766  18.754  0.00  0.00    +0.000 C 
ATOM     31  O   UNL     1       1.941  11.551  17.931  0.00  0.00    +0.000 OA
ENDBRANCH  20  21
ENDBRANCH   2  20
TORSDOF 4
ENDMDL
