MODEL 1
REMARK VINA RESULT:      -9.2      0.000      0.000
REMARK  Name = 
REMARK  5 active torsions:
REMARK  status: ('A' for Active; 'I' for Inactive)
REMARK    1  A    between atoms: C_2  and  C_3
REMARK    2  A    between atoms: C_3  and  N_4
REMARK    3  A    between atoms: C_5  and  C_7
REMARK    4  A    between atoms: C_10  and  N_11
REMARK    5  A    between atoms: N_22  and  C_23
REMARK                            x       y       z     vdW  Elec       q    Type
REMARK                         _______ _______ _______ _____ _____    ______ ____
ROOT
ATOM      1  N   UNL     1       3.971   5.744  18.965  0.00  0.00    +0.000 N 
ATOM      2  C   UNL     1       2.894   6.003  19.766  0.00  0.00    +0.000 C 
ATOM      3  O   UNL     1       2.460   5.185  20.571  0.00  0.00    +0.000 OA
ATOM      4  H   UNL     1       4.218   6.360  18.196  0.00  0.00    +0.000 HD
ENDROOT
BRANCH   2   5
ATOM      5  C   UNL     1       2.237   7.328  19.611  0.00  0.00    +0.000 A 
ATOM      6  C   UNL     1       2.304   7.906  18.343  0.00  0.00    +0.000 A 
ATOM      7  C   UNL     1       1.595   9.065  18.076  0.00  0.00    +0.000 A 
ATOM      8  C   UNL     1       0.816   9.666  19.077  0.00  0.00    +0.000 A 
ATOM      9  C   UNL     1       0.800   9.154  20.373  0.00  0.00    +0.000 A 
ATOM     10  C   UNL     1       1.506   7.964  20.634  0.00  0.00    +0.000 A 
BRANCH   8  11
ATOM     11  N   UNL     1       0.017  10.760  18.670  0.00  0.00    +0.000 N 
ATOM     12  C   UNL     1       0.031  11.970  19.335  0.00  0.00    +0.000 A 
ATOM     13  N   UNL     1      -1.135  12.563  19.323  0.00  0.00    +0.000 NA
ATOM     14  C   UNL     1      -1.928  11.742  18.570  0.00  0.00    +0.000 A 
ATOM     15  C   UNL     1      -3.309  11.819  18.362  0.00  0.00    +0.000 A 
ATOM     16  C   UNL     1      -3.917  10.871  17.536  0.00  0.00    +0.000 A 
ATOM     17  C   UNL     1      -3.154   9.898  16.888  0.00  0.00    +0.000 A 
ATOM     18  C   UNL     1      -1.773   9.780  17.110  0.00  0.00    +0.000 A 
ATOM     19  C   UNL     1      -1.195  10.694  18.002  0.00  0.00    +0.000 A 
ENDBRANCH   8  11
ENDBRANCH   2   5
BRANCH   1  20
ATOM     20  C   UNL     1       4.658   4.466  19.029  0.00  0.00    +0.000 C 
BRANCH  20  22
ATOM     21  O   UNL     1       6.864   4.255  18.118  0.00  0.00    +0.000 OA
ATOM     22  C   UNL     1       5.664   4.418  17.886  0.00  0.00    +0.000 C 
ATOM     23  N   UNL     1       5.091   4.605  16.638  0.00  0.00    +0.000 N 
ATOM     24  H   UNL     1       4.120   4.896  16.612  0.00  0.00    +0.000 HD
BRANCH  23  25
ATOM     25  C   UNL     1       5.774   4.569  15.401  0.00  0.00    +0.000 A 
ATOM     26  C   UNL     1       6.934   5.313  15.143  0.00  0.00    +0.000 A 
ATOM     27  C   UNL     1       7.555   5.265  13.891  0.00  0.00    +0.000 A 
ATOM     28  C   UNL     1       7.018   4.462  12.895  0.00  0.00    +0.000 A 
ATOM     29  F   UNL     1       7.604   4.430  11.690  0.00  0.00    +0.000 F 
ATOM     30  C   UNL     1       5.887   3.698  13.148  0.00  0.00    +0.000 A 
ATOM     31  F   UNL     1       5.372   2.920  12.186  0.00  0.00    +0.000 F 
ATOM     32  C   UNL     1       5.268   3.737  14.396  0.00  0.00    +0.000 A 
ENDBRANCH  23  25
ENDBRANCH  20  22
ENDBRANCH   1  20
TORSDOF 5
ENDMDL
MODEL 2
REMARK VINA RESULT:      -9.0      5.870     10.956
REMARK  Name = 
REMARK  5 active torsions:
REMARK  status: ('A' for Active; 'I' for Inactive)
REMARK    1  A    between atoms: C_2  and  C_3
REMARK    2  A    between atoms: C_3  and  N_4
REMARK    3  A    between atoms: C_5  and  C_7
REMARK    4  A    between atoms: C_10  and  N_11
REMARK    5  A    between atoms: N_22  and  C_23
REMARK                            x       y       z     vdW  Elec       q    Type
REMARK                         _______ _______ _______ _____ _____    ______ ____
ROOT
ATOM      1  N   UNL     1      -0.611  10.729  17.795  0.00  0.00    +0.000 N 
ATOM      2  C   UNL     1       0.187  10.673  18.904  0.00  0.00    +0.000 C 
ATOM      3  O   UNL     1       0.186  11.550  19.762  0.00  0.00    +0.000 OA
ATOM      4  H   UNL     1      -0.485  10.085  17.020  0.00  0.00    +0.000 HD
ENDROOT
BRANCH   2   5
ATOM      5  C   UNL     1       1.091   9.499  19.028  0.00  0.00    +0.000 A 
ATOM      6  C   UNL     1       1.174   8.914  20.292  0.00  0.00    +0.000 A 
ATOM      7  C   UNL     1       1.875   7.732  20.460  0.00  0.00    +0.000 A 
ATOM      8  C   UNL     1       2.511   7.124  19.367  0.00  0.00    +0.000 A 
ATOM      9  C   UNL     1       2.513   7.732  18.113  0.00  0.00    +0.000 A 
ATOM     10  C   UNL     1       1.781   8.922  17.943  0.00  0.00    +0.000 A 
BRANCH   8  11
ATOM     11  N   UNL     1       3.078   5.850  19.606  0.00  0.00    +0.000 N 
ATOM     12  C   UNL     1       4.353   5.521  19.192  0.00  0.00    +0.000 A 
ATOM     13  N   UNL     1       4.462   4.261  18.855  0.00  0.00    +0.000 NA
ATOM     14  C   UNL     1       3.230   3.730  19.118  0.00  0.00    +0.000 A 
ATOM     15  C   UNL     1       2.747   2.456  18.799  0.00  0.00    +0.000 A 
ATOM     16  C   UNL     1       1.446   2.118  19.177  0.00  0.00    +0.000 A 
ATOM     17  C   UNL     1       0.661   3.014  19.906  0.00  0.00    +0.000 A 
ATOM     18  C   UNL     1       1.112   4.309  20.205  0.00  0.00    +0.000 A 
ATOM     19  C   UNL     1       2.391   4.655  19.749  0.00  0.00    +0.000 A 
ENDBRANCH   8  11
ENDBRANCH   2   5
BRANCH   1  20
ATOM     20  C   UNL     1      -1.506  11.852  17.577  0.00  0.00    +0.000 C 
BRANCH  20  22
ATOM     21  O   UNL     1      -3.504  10.854  18.446  0.00  0.00    +0.000 OA
ATOM     22  C   UNL     1      -2.652  11.737  18.574  0.00  0.00    +0.000 C 
ATOM     23  N   UNL     1      -2.627  12.712  19.559  0.00  0.00    +0.000 N 
ATOM     24  H   UNL     1      -1.967  13.473  19.442  0.00  0.00    +0.000 HD
BRANCH  23  25
ATOM     25  C   UNL     1      -3.537  12.824  20.634  0.00  0.00    +0.000 A 
ATOM     26  C   UNL     1      -4.865  13.246  20.475  0.00  0.00    +0.000 A 
ATOM     27  C   UNL     1      -5.717  13.369  21.578  0.00  0.00    +0.000 A 
ATOM     28  C   UNL     1      -5.241  13.059  22.844  0.00  0.00    +0.000 A 
ATOM     29  F   UNL     1      -6.053  13.192  23.902  0.00  0.00    +0.000 F 
ATOM     30  C   UNL     1      -3.938  12.611  23.010  0.00  0.00    +0.000 A 
ATOM     31  F   UNL     1      -3.481  12.308  24.233  0.00  0.00    +0.000 F 
ATOM     32  C   UNL     1      -3.086  12.480  21.914  0.00  0.00    +0.000 A 
ENDBRANCH  23  25
ENDBRANCH  20  22
ENDBRANCH   1  20
TORSDOF 5
ENDMDL
MODEL 3
REMARK VINA RESULT:      -9.0      1.006      1.792
REMARK  Name = 
REMARK  5 active torsions:
REMARK  status: ('A' for Active; 'I' for Inactive)
REMARK    1  A    between atoms: C_2  and  C_3
REMARK    2  A    between atoms: C_3  and  N_4
REMARK    3  A    between atoms: C_5  and  C_7
REMARK    4  A    between atoms: C_10  and  N_11
REMARK    5  A    between atoms: N_22  and  C_23
REMARK                            x       y       z     vdW  Elec       q    Type
REMARK                         _______ _______ _______ _____ _____    ______ ____
ROOT
ATOM      1  N   UNL     1       4.927   5.788  18.804  0.00  0.00    +0.000 N 
ATOM      2  C   UNL     1       3.610   5.655  19.142  0.00  0.00    +0.000 C 
ATOM      3  O   UNL     1       3.133   4.592  19.527  0.00  0.00    +0.000 OA
ATOM      4  H   UNL     1       5.271   6.622  18.337  0.00  0.00    +0.000 HD
ENDROOT
BRANCH   2   5
ATOM      5  C   UNL     1       2.749   6.860  19.003  0.00  0.00    +0.000 A 
ATOM      6  C   UNL     1       2.087   7.281  20.156  0.00  0.00    +0.000 A 
ATOM      7  C   UNL     1       1.386   8.476  20.150  0.00  0.00    +0.000 A 
ATOM      8  C   UNL     1       1.332   9.260  18.988  0.00  0.00    +0.000 A 
ATOM      9  C   UNL     1       1.915   8.820  17.801  0.00  0.00    +0.000 A 
ATOM     10  C   UNL     1       2.644   7.616  17.818  0.00  0.00    +0.000 A 
BRANCH   8  11
ATOM     11  N   UNL     1       0.717  10.528  19.120  0.00  0.00    +0.000 N 
ATOM     12  C   UNL     1       0.999  11.377  20.171  0.00  0.00    +0.000 A 
ATOM     13  N   UNL     1      -0.037  12.088  20.535  0.00  0.00    +0.000 NA
ATOM     14  C   UNL     1      -1.019  11.737  19.650  0.00  0.00    +0.000 A 
ATOM     15  C   UNL     1      -2.375  12.081  19.675  0.00  0.00    +0.000 A 
ATOM     16  C   UNL     1      -3.204  11.616  18.652  0.00  0.00    +0.000 A 
ATOM     17  C   UNL     1      -2.680  10.867  17.597  0.00  0.00    +0.000 A 
ATOM     18  C   UNL     1      -1.331  10.480  17.570  0.00  0.00    +0.000 A 
ATOM     19  C   UNL     1      -0.533  10.892  18.646  0.00  0.00    +0.000 A 
ENDBRANCH   8  11
ENDBRANCH   2   5
BRANCH   1  20
ATOM     20  C   UNL     1       5.836   4.657  18.882  0.00  0.00    +0.000 C 
BRANCH  20  22
ATOM     21  O   UNL     1       7.802   4.469  17.525  0.00  0.00    +0.000 OA
ATOM     22  C   UNL     1       6.572   4.556  17.553  0.00  0.00    +0.000 C 
ATOM     23  N   UNL     1       5.732   4.607  16.451  0.00  0.00    +0.000 N 
ATOM     24  H   UNL     1       4.761   4.850  16.618  0.00  0.00    +0.000 HD
BRANCH  23  25
ATOM     25  C   UNL     1       6.132   4.494  15.100  0.00  0.00    +0.000 A 
ATOM     26  C   UNL     1       5.463   3.691  14.166  0.00  0.00    +0.000 A 
ATOM     27  C   UNL     1       5.919   3.591  12.847  0.00  0.00    +0.000 A 
ATOM     28  C   UNL     1       7.043   4.305  12.460  0.00  0.00    +0.000 A 
ATOM     29  F   UNL     1       7.489   4.196  11.200  0.00  0.00    +0.000 F 
ATOM     30  C   UNL     1       7.695   5.128  13.367  0.00  0.00    +0.000 A 
ATOM     31  F   UNL     1       8.779   5.820  12.990  0.00  0.00    +0.000 F 
ATOM     32  C   UNL     1       7.242   5.236  14.682  0.00  0.00    +0.000 A 
ENDBRANCH  23  25
ENDBRANCH  20  22
ENDBRANCH   1  20
TORSDOF 5
ENDMDL
MODEL 4
REMARK VINA RESULT:      -9.0      0.771      1.357
REMARK  Name = 
REMARK  5 active torsions:
REMARK  status: ('A' for Active; 'I' for Inactive)
REMARK    1  A    between atoms: C_2  and  C_3
REMARK    2  A    between atoms: C_3  and  N_4
REMARK    3  A    between atoms: C_5  and  C_7
REMARK    4  A    between atoms: C_10  and  N_11
REMARK    5  A    between atoms: N_22  and  C_23
REMARK                            x       y       z     vdW  Elec       q    Type
REMARK                         _______ _______ _______ _____ _____    ______ ____
ROOT
ATOM      1  N   UNL     1       4.320   5.974  19.006  0.00  0.00    +0.000 N 
ATOM      2  C   UNL     1       3.033   6.022  19.465  0.00  0.00    +0.000 C 
ATOM      3  O   UNL     1       2.446   5.030  19.883  0.00  0.00    +0.000 OA
ATOM      4  H   UNL     1       4.736   6.761  18.517  0.00  0.00    +0.000 HD
ENDROOT
BRANCH   2   5
ATOM      5  C   UNL     1       2.346   7.341  19.419  0.00  0.00    +0.000 A 
ATOM      6  C   UNL     1       2.328   7.984  18.182  0.00  0.00    +0.000 A 
ATOM      7  C   UNL     1       1.584   9.141  18.018  0.00  0.00    +0.000 A 
ATOM      8  C   UNL     1       0.856   9.674  19.094  0.00  0.00    +0.000 A 
ATOM      9  C   UNL     1       0.927   9.095  20.359  0.00  0.00    +0.000 A 
ATOM     10  C   UNL     1       1.666   7.908  20.515  0.00  0.00    +0.000 A 
BRANCH   8  11
ATOM     11  N   UNL     1       0.015  10.771  18.793  0.00  0.00    +0.000 N 
ATOM     12  C   UNL     1      -0.002  11.918  19.562  0.00  0.00    +0.000 A 
ATOM     13  N   UNL     1      -1.187  12.469  19.614  0.00  0.00    +0.000 NA
ATOM     14  C   UNL     1      -1.962  11.691  18.799  0.00  0.00    +0.000 A 
ATOM     15  C   UNL     1      -3.348  11.737  18.613  0.00  0.00    +0.000 A 
ATOM     16  C   UNL     1      -3.935  10.845  17.714  0.00  0.00    +0.000 A 
ATOM     17  C   UNL     1      -3.148   9.960  16.975  0.00  0.00    +0.000 A 
ATOM     18  C   UNL     1      -1.761   9.870  17.171  0.00  0.00    +0.000 A 
ATOM     19  C   UNL     1      -1.203  10.722  18.135  0.00  0.00    +0.000 A 
ENDBRANCH   8  11
ENDBRANCH   2   5
BRANCH   1  20
ATOM     20  C   UNL     1       5.060   4.724  18.988  0.00  0.00    +0.000 C 
BRANCH  20  22
ATOM     21  O   UNL     1       4.390   3.327  17.160  0.00  0.00    +0.000 OA
ATOM     22  C   UNL     1       5.124   4.240  17.546  0.00  0.00    +0.000 C 
ATOM     23  N   UNL     1       6.080   4.897  16.785  0.00  0.00    +0.000 N 
ATOM     24  H   UNL     1       6.725   5.506  17.276  0.00  0.00    +0.000 HD
BRANCH  23  25
ATOM     25  C   UNL     1       6.331   4.684  15.411  0.00  0.00    +0.000 A 
ATOM     26  C   UNL     1       5.542   3.850  14.606  0.00  0.00    +0.000 A 
ATOM     27  C   UNL     1       5.852   3.650  13.257  0.00  0.00    +0.000 A 
ATOM     28  C   UNL     1       6.951   4.295  12.708  0.00  0.00    +0.000 A 
ATOM     29  F   UNL     1       7.256   4.090  11.420  0.00  0.00    +0.000 F 
ATOM     30  C   UNL     1       7.721   5.147  13.487  0.00  0.00    +0.000 A 
ATOM     31  F   UNL     1       8.780   5.773  12.954  0.00  0.00    +0.000 F 
ATOM     32  C   UNL     1       7.413   5.355  14.831  0.00  0.00    +0.000 A 
ENDBRANCH  23  25
ENDBRANCH  20  22
ENDBRANCH   1  20
TORSDOF 5
ENDMDL
MODEL 5
REMARK VINA RESULT:      -8.9      5.857     10.963
REMARK  Name = 
REMARK  5 active torsions:
REMARK  status: ('A' for Active; 'I' for Inactive)
REMARK    1  A    between atoms: C_2  and  C_3
REMARK    2  A    between atoms: C_3  and  N_4
REMARK    3  A    between atoms: C_5  and  C_7
REMARK    4  A    between atoms: C_10  and  N_11
REMARK    5  A    between atoms: N_22  and  C_23
REMARK                            x       y       z     vdW  Elec       q    Type
REMARK                         _______ _______ _______ _____ _____    ______ ____
ROOT
ATOM      1  N   UNL     1      -0.441  10.923  17.983  0.00  0.00    +0.000 N 
ATOM      2  C   UNL     1       0.116  10.610  19.192  0.00  0.00    +0.000 C 
ATOM      3  O   UNL     1      -0.102  11.264  20.206  0.00  0.00    +0.000 OA
ATOM      4  H   UNL     1      -0.130  10.476  17.126  0.00  0.00    +0.000 HD
ENDROOT
BRANCH   2   5
ATOM      5  C   UNL     1       1.031   9.438  19.233  0.00  0.00    +0.000 A 
ATOM      6  C   UNL     1       1.108   8.757  20.447  0.00  0.00    +0.000 A 
ATOM      7  C   UNL     1       1.819   7.572  20.530  0.00  0.00    +0.000 A 
ATOM      8  C   UNL     1       2.471   7.057  19.398  0.00  0.00    +0.000 A 
ATOM      9  C   UNL     1       2.477   7.762  18.196  0.00  0.00    +0.000 A 
ATOM     10  C   UNL     1       1.735   8.954  18.112  0.00  0.00    +0.000 A 
BRANCH   8  11
ATOM     11  N   UNL     1       3.048   5.773  19.543  0.00  0.00    +0.000 N 
ATOM     12  C   UNL     1       4.328   5.488  19.111  0.00  0.00    +0.000 A 
ATOM     13  N   UNL     1       4.451   4.259  18.680  0.00  0.00    +0.000 NA
ATOM     14  C   UNL     1       3.222   3.698  18.894  0.00  0.00    +0.000 A 
ATOM     15  C   UNL     1       2.752   2.449  18.476  0.00  0.00    +0.000 A 
ATOM     16  C   UNL     1       1.453   2.071  18.819  0.00  0.00    +0.000 A 
ATOM     17  C   UNL     1       0.656   2.902  19.610  0.00  0.00    +0.000 A 
ATOM     18  C   UNL     1       1.093   4.174  20.010  0.00  0.00    +0.000 A 
ATOM     19  C   UNL     1       2.372   4.565  19.589  0.00  0.00    +0.000 A 
ENDBRANCH   8  11
ENDBRANCH   2   5
BRANCH   1  20
ATOM     20  C   UNL     1      -1.326  12.067  17.843  0.00  0.00    +0.000 C 
BRANCH  20  22
ATOM     21  O   UNL     1      -3.213  10.634  18.200  0.00  0.00    +0.000 OA
ATOM     22  C   UNL     1      -2.663  11.703  18.475  0.00  0.00    +0.000 C 
ATOM     23  N   UNL     1      -3.161  12.685  19.318  0.00  0.00    +0.000 N 
ATOM     24  H   UNL     1      -2.686  13.581  19.318  0.00  0.00    +0.000 HD
BRANCH  23  25
ATOM     25  C   UNL     1      -4.355  12.602  20.069  0.00  0.00    +0.000 A 
ATOM     26  C   UNL     1      -4.419  12.875  21.443  0.00  0.00    +0.000 A 
ATOM     27  C   UNL     1      -5.622  12.748  22.145  0.00  0.00    +0.000 A 
ATOM     28  C   UNL     1      -6.768  12.356  21.468  0.00  0.00    +0.000 A 
ATOM     29  F   UNL     1      -7.916  12.219  22.146  0.00  0.00    +0.000 F 
ATOM     30  C   UNL     1      -6.724  12.113  20.103  0.00  0.00    +0.000 A 
ATOM     31  F   UNL     1      -7.832  11.737  19.450  0.00  0.00    +0.000 F 
ATOM     32  C   UNL     1      -5.529  12.243  19.396  0.00  0.00    +0.000 A 
ENDBRANCH  23  25
ENDBRANCH  20  22
ENDBRANCH   1  20
TORSDOF 5
ENDMDL
MODEL 6
REMARK VINA RESULT:      -8.8      6.107     10.937
REMARK  Name = 
REMARK  5 active torsions:
REMARK  status: ('A' for Active; 'I' for Inactive)
REMARK    1  A    between atoms: C_2  and  C_3
REMARK    2  A    between atoms: C_3  and  N_4
REMARK    3  A    between atoms: C_5  and  C_7
REMARK    4  A    between atoms: C_10  and  N_11
REMARK    5  A    between atoms: N_22  and  C_23
REMARK                            x       y       z     vdW  Elec       q    Type
REMARK                         _______ _______ _______ _____ _____    ______ ____
ROOT
ATOM      1  N   UNL     1      -0.146  11.343  18.587  0.00  0.00    +0.000 N 
ATOM      2  C   UNL     1       1.176  11.000  18.648  0.00  0.00    +0.000 C 
ATOM      3  O   UNL     1       2.077  11.813  18.466  0.00  0.00    +0.000 OA
ATOM      4  H   UNL     1      -0.875  10.637  18.579  0.00  0.00    +0.000 HD
ENDROOT
BRANCH   2   5
ATOM      5  C   UNL     1       1.494   9.574  18.928  0.00  0.00    +0.000 A 
ATOM      6  C   UNL     1       2.102   8.863  17.894  0.00  0.00    +0.000 A 
ATOM      7  C   UNL     1       2.564   7.577  18.121  0.00  0.00    +0.000 A 
ATOM      8  C   UNL     1       2.415   6.983  19.384  0.00  0.00    +0.000 A 
ATOM      9  C   UNL     1       1.737   7.642  20.407  0.00  0.00    +0.000 A 
ATOM     10  C   UNL     1       1.288   8.957  20.178  0.00  0.00    +0.000 A 
BRANCH   8  11
ATOM     11  N   UNL     1       3.045   5.728  19.559  0.00  0.00    +0.000 N 
ATOM     12  C   UNL     1       4.351   5.500  19.175  0.00  0.00    +0.000 A 
ATOM     13  N   UNL     1       4.545   4.275  18.758  0.00  0.00    +0.000 NA
ATOM     14  C   UNL     1       3.337   3.659  18.935  0.00  0.00    +0.000 A 
ATOM     15  C   UNL     1       2.939   2.386  18.512  0.00  0.00    +0.000 A 
ATOM     16  C   UNL     1       1.648   1.951  18.814  0.00  0.00    +0.000 A 
ATOM     17  C   UNL     1       0.787   2.750  19.570  0.00  0.00    +0.000 A 
ATOM     18  C   UNL     1       1.150   4.044  19.973  0.00  0.00    +0.000 A 
ATOM     19  C   UNL     1       2.424   4.490  19.594  0.00  0.00    +0.000 A 
ENDBRANCH   8  11
ENDBRANCH   2   5
BRANCH   1  20
ATOM     20  C   UNL     1      -0.550  12.707  18.293  0.00  0.00    +0.000 C 
BRANCH  20  22
ATOM     21  O   UNL     1      -1.191  14.417  19.844  0.00  0.00    +0.000 OA
ATOM     22  C   UNL     1      -1.312  13.239  19.499  0.00  0.00    +0.000 C 
ATOM     23  N   UNL     1      -2.081  12.276  20.135  0.00  0.00    +0.000 N 
ATOM     24  H   UNL     1      -1.953  11.313  19.844  0.00  0.00    +0.000 HD
BRANCH  23  25
ATOM     25  C   UNL     1      -2.921  12.493  21.250  0.00  0.00    +0.000 A 
ATOM     26  C   UNL     1      -2.505  12.296  22.574  0.00  0.00    +0.000 A 
ATOM     27  C   UNL     1      -3.386  12.496  23.642  0.00  0.00    +0.000 A 
ATOM     28  C   UNL     1      -4.687  12.905  23.384  0.00  0.00    +0.000 A 
ATOM     29  F   UNL     1      -5.534  13.081  24.407  0.00  0.00    +0.000 F 
ATOM     30  C   UNL     1      -5.101  13.134  22.080  0.00  0.00    +0.000 A 
ATOM     31  F   UNL     1      -6.356  13.533  21.832  0.00  0.00    +0.000 F 
ATOM     32  C   UNL     1      -4.225  12.942  21.012  0.00  0.00    +0.000 A 
ENDBRANCH  23  25
ENDBRANCH  20  22
ENDBRANCH   1  20
TORSDOF 5
ENDMDL
MODEL 7
REMARK VINA RESULT:      -8.7      6.109     10.870
REMARK  Name = 
REMARK  5 active torsions:
REMARK  status: ('A' for Active; 'I' for Inactive)
REMARK    1  A    between atoms: C_2  and  C_3
REMARK    2  A    between atoms: C_3  and  N_4
REMARK    3  A    between atoms: C_5  and  C_7
REMARK    4  A    between atoms: C_10  and  N_11
REMARK    5  A    between atoms: N_22  and  C_23
REMARK                            x       y       z     vdW  Elec       q    Type
REMARK                         _______ _______ _______ _____ _____    ______ ____
ROOT
ATOM      1  N   UNL     1      -0.757  10.309  17.854  0.00  0.00    +0.000 N 
ATOM      2  C   UNL     1       0.457  10.549  18.434  0.00  0.00    +0.000 C 
ATOM      3  O   UNL     1       0.844  11.681  18.708  0.00  0.00    +0.000 OA
ATOM      4  H   UNL     1      -0.995   9.392  17.488  0.00  0.00    +0.000 HD
ENDROOT
BRANCH   2   5
ATOM      5  C   UNL     1       1.322   9.371  18.710  0.00  0.00    +0.000 A 
ATOM      6  C   UNL     1       1.246   8.837  19.996  0.00  0.00    +0.000 A 
ATOM      7  C   UNL     1       1.904   7.654  20.292  0.00  0.00    +0.000 A 
ATOM      8  C   UNL     1       2.654   6.996  19.305  0.00  0.00    +0.000 A 
ATOM      9  C   UNL     1       2.812   7.553  18.037  0.00  0.00    +0.000 A 
ATOM     10  C   UNL     1       2.124   8.743  17.736  0.00  0.00    +0.000 A 
BRANCH   8  11
ATOM     11  N   UNL     1       3.168   5.726  19.659  0.00  0.00    +0.000 N 
ATOM     12  C   UNL     1       4.487   5.380  19.445  0.00  0.00    +0.000 A 
ATOM     13  N   UNL     1       4.634   4.111  19.162  0.00  0.00    +0.000 NA
ATOM     14  C   UNL     1       3.372   3.592  19.254  0.00  0.00    +0.000 A 
ATOM     15  C   UNL     1       2.930   2.313  18.900  0.00  0.00    +0.000 A 
ATOM     16  C   UNL     1       1.585   1.991  19.091  0.00  0.00    +0.000 A 
ATOM     17  C   UNL     1       0.709   2.910  19.673  0.00  0.00    +0.000 A 
ATOM     18  C   UNL     1       1.122   4.211  20.001  0.00  0.00    +0.000 A 
ATOM     19  C   UNL     1       2.457   4.538  19.730  0.00  0.00    +0.000 A 
ENDBRANCH   8  11
ENDBRANCH   2   5
BRANCH   1  20
ATOM     20  C   UNL     1      -1.656  11.401  17.524  0.00  0.00    +0.000 C 
BRANCH  20  22
ATOM     21  O   UNL     1      -3.752  11.152  18.659  0.00  0.00    +0.000 OA
ATOM     22  C   UNL     1      -2.603  11.598  18.701  0.00  0.00    +0.000 C 
ATOM     23  N   UNL     1      -2.046  12.326  19.742  0.00  0.00    +0.000 N 
ATOM     24  H   UNL     1      -1.152  12.773  19.570  0.00  0.00    +0.000 HD
BRANCH  23  25
ATOM     25  C   UNL     1      -2.676  12.624  20.971  0.00  0.00    +0.000 A 
ATOM     26  C   UNL     1      -2.296  12.044  22.190  0.00  0.00    +0.000 A 
ATOM     27  C   UNL     1      -2.973  12.351  23.374  0.00  0.00    +0.000 A 
ATOM     28  C   UNL     1      -4.029  13.250  23.341  0.00  0.00    +0.000 A 
ATOM     29  F   UNL     1      -4.688  13.531  24.474  0.00  0.00    +0.000 F 
ATOM     30  C   UNL     1      -4.395  13.854  22.147  0.00  0.00    +0.000 A 
ATOM     31  F   UNL     1      -5.413  14.725  22.117  0.00  0.00    +0.000 F 
ATOM     32  C   UNL     1      -3.720  13.556  20.964  0.00  0.00    +0.000 A 
ENDBRANCH  23  25
ENDBRANCH  20  22
ENDBRANCH   1  20
TORSDOF 5
ENDMDL
MODEL 8
REMARK VINA RESULT:      -8.7      5.980     10.976
REMARK  Name = 
REMARK  5 active torsions:
REMARK  status: ('A' for Active; 'I' for Inactive)
REMARK    1  A    between atoms: C_2  and  C_3
REMARK    2  A    between atoms: C_3  and  N_4
REMARK    3  A    between atoms: C_5  and  C_7
REMARK    4  A    between atoms: C_10  and  N_11
REMARK    5  A    between atoms: N_22  and  C_23
REMARK                            x       y       z     vdW  Elec       q    Type
REMARK                         _______ _______ _______ _____ _____    ______ ____
ROOT
ATOM      1  N   UNL     1      -0.344  11.239  18.189  0.00  0.00    +0.000 N 
ATOM      2  C   UNL     1       0.538  10.935  19.187  0.00  0.00    +0.000 C 
ATOM      3  O   UNL     1       0.688  11.648  20.174  0.00  0.00    +0.000 OA
ATOM      4  H   UNL     1      -0.343  10.732  17.309  0.00  0.00    +0.000 HD
ENDROOT
BRANCH   2   5
ATOM      5  C   UNL     1       1.344   9.695  19.024  0.00  0.00    +0.000 A 
ATOM      6  C   UNL     1       1.361   8.823  20.112  0.00  0.00    +0.000 A 
ATOM      7  C   UNL     1       1.963   7.582  19.991  0.00  0.00    +0.000 A 
ATOM      8  C   UNL     1       2.565   7.201  18.781  0.00  0.00    +0.000 A 
ATOM      9  C   UNL     1       2.633   8.087  17.708  0.00  0.00    +0.000 A 
ATOM     10  C   UNL     1       2.001   9.339  17.829  0.00  0.00    +0.000 A 
BRANCH   8  11
ATOM     11  N   UNL     1       3.024   5.865  18.708  0.00  0.00    +0.000 N 
ATOM     12  C   UNL     1       3.909   5.442  17.736  0.00  0.00    +0.000 A 
ATOM     13  N   UNL     1       3.700   4.203  17.371  0.00  0.00    +0.000 NA
ATOM     14  C   UNL     1       2.681   3.777  18.177  0.00  0.00    +0.000 A 
ATOM     15  C   UNL     1       1.960   2.581  18.107  0.00  0.00    +0.000 A 
ATOM     16  C   UNL     1       0.957   2.346  19.050  0.00  0.00    +0.000 A 
ATOM     17  C   UNL     1       0.715   3.262  20.075  0.00  0.00    +0.000 A 
ATOM     18  C   UNL     1       1.401   4.485  20.143  0.00  0.00    +0.000 A 
ATOM     19  C   UNL     1       2.349   4.735  19.142  0.00  0.00    +0.000 A 
ENDBRANCH   8  11
ENDBRANCH   2   5
BRANCH   1  20
ATOM     20  C   UNL     1      -1.154  12.444  18.250  0.00  0.00    +0.000 C 
BRANCH  20  22
ATOM     21  O   UNL     1      -3.226  11.452  18.931  0.00  0.00    +0.000 OA
ATOM     22  C   UNL     1      -2.289  12.194  19.234  0.00  0.00    +0.000 C 
ATOM     23  N   UNL     1      -2.152  12.893  20.424  0.00  0.00    +0.000 N 
ATOM     24  H   UNL     1      -1.422  13.595  20.468  0.00  0.00    +0.000 HD
BRANCH  23  25
ATOM     25  C   UNL     1      -3.029  12.822  21.530  0.00  0.00    +0.000 A 
ATOM     26  C   UNL     1      -2.625  12.397  22.804  0.00  0.00    +0.000 A 
ATOM     27  C   UNL     1      -3.541  12.315  23.858  0.00  0.00    +0.000 A 
ATOM     28  C   UNL     1      -4.865  12.670  23.639  0.00  0.00    +0.000 A 
ATOM     29  F   UNL     1      -5.744  12.576  24.646  0.00  0.00    +0.000 F 
ATOM     30  C   UNL     1      -5.269  13.121  22.391  0.00  0.00    +0.000 A 
ATOM     31  F   UNL     1      -6.547  13.467  22.182  0.00  0.00    +0.000 F 
ATOM     32  C   UNL     1      -4.360  13.210  21.338  0.00  0.00    +0.000 A 
ENDBRANCH  23  25
ENDBRANCH  20  22
ENDBRANCH   1  20
TORSDOF 5
ENDMDL
MODEL 9
REMARK VINA RESULT:      -8.6      1.190      2.363
REMARK  Name = 
REMARK  5 active torsions:
REMARK  status: ('A' for Active; 'I' for Inactive)
REMARK    1  A    between atoms: C_2  and  C_3
REMARK    2  A    between atoms: C_3  and  N_4
REMARK    3  A    between atoms: C_5  and  C_7
REMARK    4  A    between atoms: C_10  and  N_11
REMARK    5  A    between atoms: N_22  and  C_23
REMARK                            x       y       z     vdW  Elec       q    Type
REMARK                         _______ _______ _______ _____ _____    ______ ____
ROOT
ATOM      1  N   UNL     1       4.129   5.592  19.371  0.00  0.00    +0.000 N 
ATOM      2  C   UNL     1       2.946   5.877  18.749  0.00  0.00    +0.000 C 
ATOM      3  O   UNL     1       2.406   5.096  17.971  0.00  0.00    +0.000 OA
ATOM      4  H   UNL     1       4.643   6.305  19.881  0.00  0.00    +0.000 HD
ENDROOT
BRANCH   2   5
ATOM      5  C   UNL     1       2.331   7.200  19.036  0.00  0.00    +0.000 A 
ATOM      6  C   UNL     1       2.171   8.056  17.946  0.00  0.00    +0.000 A 
ATOM      7  C   UNL     1       1.474   9.243  18.099  0.00  0.00    +0.000 A 
ATOM      8  C   UNL     1       0.937   9.594  19.347  0.00  0.00    +0.000 A 
ATOM      9  C   UNL     1       1.155   8.796  20.468  0.00  0.00    +0.000 A 
ATOM     10  C   UNL     1       1.845   7.580  20.303  0.00  0.00    +0.000 A 
BRANCH   8  11
ATOM     11  N   UNL     1       0.121  10.750  19.370  0.00  0.00    +0.000 N 
ATOM     12  C   UNL     1      -1.054  10.837  18.650  0.00  0.00    +0.000 A 
ATOM     13  N   UNL     1      -1.292  12.050  18.222  0.00  0.00    +0.000 NA
ATOM     14  C   UNL     1      -0.267  12.799  18.732  0.00  0.00    +0.000 A 
ATOM     15  C   UNL     1       0.055  14.133  18.458  0.00  0.00    +0.000 A 
ATOM     16  C   UNL     1       1.150  14.706  19.108  0.00  0.00    +0.000 A 
ATOM     17  C   UNL     1       1.877  13.979  20.053  0.00  0.00    +0.000 A 
ATOM     18  C   UNL     1       1.595  12.629  20.316  0.00  0.00    +0.000 A 
ATOM     19  C   UNL     1       0.540  12.051  19.596  0.00  0.00    +0.000 A 
ENDBRANCH   8  11
ENDBRANCH   2   5
BRANCH   1  20
ATOM     20  C   UNL     1       4.815   4.335  19.129  0.00  0.00    +0.000 C 
BRANCH  20  22
ATOM     21  O   UNL     1       6.929   4.900  18.153  0.00  0.00    +0.000 OA
ATOM     22  C   UNL     1       5.767   4.539  17.957  0.00  0.00    +0.000 C 
ATOM     23  N   UNL     1       5.178   4.311  16.723  0.00  0.00    +0.000 N 
ATOM     24  H   UNL     1       4.172   4.185  16.704  0.00  0.00    +0.000 HD
BRANCH  23  25
ATOM     25  C   UNL     1       5.829   4.383  15.471  0.00  0.00    +0.000 A 
ATOM     26  C   UNL     1       6.974   5.161  15.245  0.00  0.00    +0.000 A 
ATOM     27  C   UNL     1       7.563   5.222  13.978  0.00  0.00    +0.000 A 
ATOM     28  C   UNL     1       7.010   4.495  12.934  0.00  0.00    +0.000 A 
ATOM     29  F   UNL     1       7.566   4.567  11.717  0.00  0.00    +0.000 F 
ATOM     30  C   UNL     1       5.895   3.698  13.152  0.00  0.00    +0.000 A 
ATOM     31  F   UNL     1       5.364   2.992  12.144  0.00  0.00    +0.000 F 
ATOM     32  C   UNL     1       5.307   3.628  14.415  0.00  0.00    +0.000 A 
ENDBRANCH  23  25
ENDBRANCH  20  22
ENDBRANCH   1  20
TORSDOF 5
ENDMDL
