MODEL 1
REMARK VINA RESULT:      -8.9      0.000      0.000
REMARK  Name = 
REMARK  8 active torsions:
REMARK  status: ('A' for Active; 'I' for Inactive)
REMARK    1  A    between atoms: C_1  and  C_2
REMARK    2  A    between atoms: C_2  and  C_3
REMARK    3  A    between atoms: C_7  and  C_8
REMARK    4  A    between atoms: N_14  and  C_15
REMARK    5  A    between atoms: C_19  and  C_20
REMARK    6  A    between atoms: C_20  and  C_21
REMARK    7  A    between atoms: C_21  and  C_22
REMARK    8  A    between atoms: N_26  and  C_27
REMARK                            x       y       z     vdW  Elec       q    Type
REMARK                         _______ _______ _______ _____ _____    ______ ____
ROOT
ATOM      1  C   UNL     1       0.624  11.642  19.497  0.00  0.00    +0.000 A 
ATOM      2  C   UNL     1       1.268  10.710  18.684  0.00  0.00    +0.000 A 
ATOM      3  C   UNL     1       1.448   9.435  19.182  0.00  0.00    +0.000 A 
ATOM      4  C   UNL     1       1.023   9.042  20.447  0.00  0.00    +0.000 A 
ATOM      5  C   UNL     1       0.376   9.948  21.281  0.00  0.00    +0.000 A 
ATOM      6  C   UNL     1       0.182  11.258  20.786  0.00  0.00    +0.000 A 
ATOM      7  C   UNL     1       1.413   7.614  20.666  0.00  0.00    +0.000 C 
ATOM      8  N   UNL     1       2.133   7.267  19.445  0.00  0.00    +0.000 N 
ATOM      9  C   UNL     1       2.145   8.327  18.541  0.00  0.00    +0.000 C 
ATOM     10  O   UNL     1       2.617   8.433  17.423  0.00  0.00    +0.000 OA
ENDROOT
BRANCH   8  11
ATOM     11  C   UNL     1       2.812   6.033  19.282  0.00  0.00    +0.000 A 
ATOM     12  C   UNL     1       2.680   5.001  20.217  0.00  0.00    +0.000 A 
ATOM     13  C   UNL     1       3.319   3.774  20.032  0.00  0.00    +0.000 A 
ATOM     14  C   UNL     1       4.099   3.556  18.901  0.00  0.00    +0.000 A 
ATOM     15  C   UNL     1       4.240   4.562  17.940  0.00  0.00    +0.000 A 
ATOM     16  C   UNL     1       3.609   5.800  18.152  0.00  0.00    +0.000 A 
BRANCH  15  17
ATOM     17  C   UNL     1       5.077   4.351  16.699  0.00  0.00    +0.000 C 
BRANCH  17  18
ATOM     18  C   UNL     1       6.587   4.312  16.983  0.00  0.00    +0.000 C 
BRANCH  18  19
ATOM     19  C   UNL     1       7.141   5.679  17.222  0.00  0.00    +0.000 A 
ATOM     20  N   UNL     1       7.313   6.626  16.321  0.00  0.00    +0.000 NA
ATOM     21  N   UNL     1       7.801   7.744  16.952  0.00  0.00    +0.000 NA
ATOM     22  C   UNL     1       7.924   7.456  18.225  0.00  0.00    +0.000 A 
ATOM     23  N   UNL     1       7.543   6.168  18.440  0.00  0.00    +0.000 N 
ATOM     24  C   UNL     1       7.569   5.489  19.707  0.00  0.00    +0.000 C 
ENDBRANCH  18  19
ENDBRANCH  17  18
ENDBRANCH  15  17
ENDBRANCH   8  11
BRANCH   5  25
ATOM     25  C   UNL     1      -0.084   9.594  22.671  0.00  0.00    +0.000 C 
ATOM     26  F   UNL     1      -0.761  10.599  23.295  0.00  0.00    +0.000 F 
ATOM     27  F   UNL     1      -0.923   8.522  22.682  0.00  0.00    +0.000 F 
ATOM     28  F   UNL     1       0.948   9.272  23.497  0.00  0.00    +0.000 F 
ENDBRANCH   5  25
BRANCH   1  30
ATOM     29  C   UNL     1      -0.702  13.192  18.059  0.00  0.00    +0.000 C 
ATOM     30  C   UNL     1       0.475  13.060  19.013  0.00  0.00    +0.000 C 
ENDBRANCH   1  30
TORSDOF 6
ENDMDL
MODEL 2
REMARK VINA RESULT:      -8.8      3.442      8.302
REMARK  Name = 
REMARK  8 active torsions:
REMARK  status: ('A' for Active; 'I' for Inactive)
REMARK    1  A    between atoms: C_1  and  C_2
REMARK    2  A    between atoms: C_2  and  C_3
REMARK    3  A    between atoms: C_7  and  C_8
REMARK    4  A    between atoms: N_14  and  C_15
REMARK    5  A    between atoms: C_19  and  C_20
REMARK    6  A    between atoms: C_20  and  C_21
REMARK    7  A    between atoms: C_21  and  C_22
REMARK    8  A    between atoms: N_26  and  C_27
REMARK                            x       y       z     vdW  Elec       q    Type
REMARK                         _______ _______ _______ _____ _____    ______ ____
ROOT
ATOM      1  C   UNL     1       3.909   4.544  17.553  0.00  0.00    +0.000 A 
ATOM      2  C   UNL     1       3.657   5.915  17.580  0.00  0.00    +0.000 A 
ATOM      3  C   UNL     1       2.885   6.409  18.613  0.00  0.00    +0.000 A 
ATOM      4  C   UNL     1       2.351   5.609  19.618  0.00  0.00    +0.000 A 
ATOM      5  C   UNL     1       2.586   4.238  19.621  0.00  0.00    +0.000 A 
ATOM      6  C   UNL     1       3.376   3.715  18.570  0.00  0.00    +0.000 A 
ATOM      7  C   UNL     1       1.545   6.467  20.542  0.00  0.00    +0.000 C 
ATOM      8  N   UNL     1       1.633   7.793  19.939  0.00  0.00    +0.000 N 
ATOM      9  C   UNL     1       2.444   7.785  18.805  0.00  0.00    +0.000 C 
ATOM     10  O   UNL     1       2.778   8.674  18.042  0.00  0.00    +0.000 OA
ENDROOT
BRANCH   8  11
ATOM     11  C   UNL     1       0.888   8.901  20.415  0.00  0.00    +0.000 A 
ATOM     12  C   UNL     1       0.810   9.192  21.781  0.00  0.00    +0.000 A 
ATOM     13  C   UNL     1       0.109  10.307  22.242  0.00  0.00    +0.000 A 
ATOM     14  C   UNL     1      -0.527  11.154  21.340  0.00  0.00    +0.000 A 
ATOM     15  C   UNL     1      -0.458  10.900  19.967  0.00  0.00    +0.000 A 
ATOM     16  C   UNL     1       0.234   9.761  19.520  0.00  0.00    +0.000 A 
BRANCH  15  17
ATOM     17  C   UNL     1      -1.134  11.807  18.965  0.00  0.00    +0.000 C 
BRANCH  17  18
ATOM     18  C   UNL     1      -2.615  11.465  18.738  0.00  0.00    +0.000 C 
BRANCH  18  19
ATOM     19  C   UNL     1      -2.879  11.049  17.328  0.00  0.00    +0.000 A 
ATOM     20  N   UNL     1      -2.067  10.364  16.545  0.00  0.00    +0.000 NA
ATOM     21  N   UNL     1      -2.700  10.148  15.346  0.00  0.00    +0.000 NA
ATOM     22  C   UNL     1      -3.881  10.709  15.415  0.00  0.00    +0.000 A 
ATOM     23  N   UNL     1      -4.032  11.305  16.629  0.00  0.00    +0.000 N 
ATOM     24  C   UNL     1      -5.187  12.046  17.059  0.00  0.00    +0.000 C 
ENDBRANCH  18  19
ENDBRANCH  17  18
ENDBRANCH  15  17
ENDBRANCH   8  11
BRANCH   5  25
ATOM     25  C   UNL     1       2.015   3.313  20.663  0.00  0.00    +0.000 C 
ATOM     26  F   UNL     1       2.147   1.993  20.353  0.00  0.00    +0.000 F 
ATOM     27  F   UNL     1       2.611   3.469  21.877  0.00  0.00    +0.000 F 
ATOM     28  F   UNL     1       0.685   3.515  20.869  0.00  0.00    +0.000 F 
ENDBRANCH   5  25
BRANCH   1  30
ATOM     29  C   UNL     1       5.365   5.056  15.592  0.00  0.00    +0.000 C 
ATOM     30  C   UNL     1       4.686   3.962  16.402  0.00  0.00    +0.000 C 
ENDBRANCH   1  30
TORSDOF 6
ENDMDL
MODEL 3
REMARK VINA RESULT:      -8.7      3.759      8.459
REMARK  Name = 
REMARK  8 active torsions:
REMARK  status: ('A' for Active; 'I' for Inactive)
REMARK    1  A    between atoms: C_1  and  C_2
REMARK    2  A    between atoms: C_2  and  C_3
REMARK    3  A    between atoms: C_7  and  C_8
REMARK    4  A    between atoms: N_14  and  C_15
REMARK    5  A    between atoms: C_19  and  C_20
REMARK    6  A    between atoms: C_20  and  C_21
REMARK    7  A    between atoms: C_21  and  C_22
REMARK    8  A    between atoms: N_26  and  C_27
REMARK                            x       y       z     vdW  Elec       q    Type
REMARK                         _______ _______ _______ _____ _____    ______ ____
ROOT
ATOM      1  C   UNL     1       4.423   4.248  16.962  0.00  0.00    +0.000 A 
ATOM      2  C   UNL     1       4.199   5.611  17.144  0.00  0.00    +0.000 A 
ATOM      3  C   UNL     1       3.397   5.998  18.200  0.00  0.00    +0.000 A 
ATOM      4  C   UNL     1       2.807   5.097  19.081  0.00  0.00    +0.000 A 
ATOM      5  C   UNL     1       3.014   3.730  18.928  0.00  0.00    +0.000 A 
ATOM      6  C   UNL     1       3.833   3.317  17.851  0.00  0.00    +0.000 A 
ATOM      7  C   UNL     1       1.984   5.858  20.072  0.00  0.00    +0.000 C 
ATOM      8  N   UNL     1       2.122   7.244  19.636  0.00  0.00    +0.000 N 
ATOM      9  C   UNL     1       2.977   7.352  18.541  0.00  0.00    +0.000 C 
ATOM     10  O   UNL     1       3.360   8.316  17.903  0.00  0.00    +0.000 OA
ENDROOT
BRANCH   8  11
ATOM     11  C   UNL     1       1.382   8.306  20.215  0.00  0.00    +0.000 A 
ATOM     12  C   UNL     1       1.323   8.480  21.601  0.00  0.00    +0.000 A 
ATOM     13  C   UNL     1       0.626   9.550  22.165  0.00  0.00    +0.000 A 
ATOM     14  C   UNL     1      -0.024  10.468  21.347  0.00  0.00    +0.000 A 
ATOM     15  C   UNL     1       0.027  10.331  19.956  0.00  0.00    +0.000 A 
ATOM     16  C   UNL     1       0.714   9.236  19.405  0.00  0.00    +0.000 A 
BRANCH  15  17
ATOM     17  C   UNL     1      -0.666  11.318  19.044  0.00  0.00    +0.000 C 
BRANCH  17  18
ATOM     18  C   UNL     1      -1.326  10.657  17.824  0.00  0.00    +0.000 C 
BRANCH  18  19
ATOM     19  C   UNL     1      -2.742  11.102  17.651  0.00  0.00    +0.000 A 
ATOM     20  N   UNL     1      -3.526  11.609  18.583  0.00  0.00    +0.000 NA
ATOM     21  N   UNL     1      -4.731  11.932  18.009  0.00  0.00    +0.000 NA
ATOM     22  C   UNL     1      -4.663  11.611  16.741  0.00  0.00    +0.000 A 
ATOM     23  N   UNL     1      -3.444  11.068  16.473  0.00  0.00    +0.000 N 
ATOM     24  C   UNL     1      -3.014  10.570  15.194  0.00  0.00    +0.000 C 
ENDBRANCH  18  19
ENDBRANCH  17  18
ENDBRANCH  15  17
ENDBRANCH   8  11
BRANCH   5  25
ATOM     25  C   UNL     1       2.383   2.702  19.829  0.00  0.00    +0.000 C 
ATOM     26  F   UNL     1       2.340   1.452  19.287  0.00  0.00    +0.000 F 
ATOM     27  F   UNL     1       3.048   2.570  21.009  0.00  0.00    +0.000 F 
ATOM     28  F   UNL     1       1.097   3.010  20.154  0.00  0.00    +0.000 F 
ENDBRANCH   5  25
BRANCH   1  30
ATOM     29  C   UNL     1       5.622   4.962  14.892  0.00  0.00    +0.000 C 
ATOM     30  C   UNL     1       5.233   3.788  15.779  0.00  0.00    +0.000 C 
ENDBRANCH   1  30
TORSDOF 6
ENDMDL
MODEL 4
REMARK VINA RESULT:      -8.7      1.170      1.945
REMARK  Name = 
REMARK  8 active torsions:
REMARK  status: ('A' for Active; 'I' for Inactive)
REMARK    1  A    between atoms: C_1  and  C_2
REMARK    2  A    between atoms: C_2  and  C_3
REMARK    3  A    between atoms: C_7  and  C_8
REMARK    4  A    between atoms: N_14  and  C_15
REMARK    5  A    between atoms: C_19  and  C_20
REMARK    6  A    between atoms: C_20  and  C_21
REMARK    7  A    between atoms: C_21  and  C_22
REMARK    8  A    between atoms: N_26  and  C_27
REMARK                            x       y       z     vdW  Elec       q    Type
REMARK                         _______ _______ _______ _____ _____    ______ ____
ROOT
ATOM      1  C   UNL     1       0.286  11.709  19.469  0.00  0.00    +0.000 A 
ATOM      2  C   UNL     1       0.941  10.798  18.642  0.00  0.00    +0.000 A 
ATOM      3  C   UNL     1       1.219   9.545  19.153  0.00  0.00    +0.000 A 
ATOM      4  C   UNL     1       0.880   9.155  20.445  0.00  0.00    +0.000 A 
ATOM      5  C   UNL     1       0.224  10.040  21.294  0.00  0.00    +0.000 A 
ATOM      6  C   UNL     1      -0.069  11.327  20.786  0.00  0.00    +0.000 A 
ATOM      7  C   UNL     1       1.361   7.756  20.669  0.00  0.00    +0.000 C 
ATOM      8  N   UNL     1       2.039   7.425  19.420  0.00  0.00    +0.000 N 
ATOM      9  C   UNL     1       1.945   8.465  18.497  0.00  0.00    +0.000 C 
ATOM     10  O   UNL     1       2.355   8.574  17.355  0.00  0.00    +0.000 OA
ENDROOT
BRANCH   8  11
ATOM     11  C   UNL     1       2.778   6.228  19.244  0.00  0.00    +0.000 A 
ATOM     12  C   UNL     1       2.144   5.022  18.927  0.00  0.00    +0.000 A 
ATOM     13  C   UNL     1       2.878   3.854  18.716  0.00  0.00    +0.000 A 
ATOM     14  C   UNL     1       4.266   3.875  18.817  0.00  0.00    +0.000 A 
ATOM     15  C   UNL     1       4.932   5.066  19.120  0.00  0.00    +0.000 A 
ATOM     16  C   UNL     1       4.176   6.229  19.351  0.00  0.00    +0.000 A 
BRANCH  15  17
ATOM     17  C   UNL     1       6.439   5.118  19.230  0.00  0.00    +0.000 C 
BRANCH  17  18
ATOM     18  C   UNL     1       7.096   6.008  18.164  0.00  0.00    +0.000 C 
BRANCH  18  19
ATOM     19  C   UNL     1       6.921   5.448  16.790  0.00  0.00    +0.000 A 
ATOM     20  N   UNL     1       7.635   4.488  16.235  0.00  0.00    +0.000 NA
ATOM     21  N   UNL     1       7.127   4.235  14.985  0.00  0.00    +0.000 NA
ATOM     22  C   UNL     1       6.118   5.049  14.797  0.00  0.00    +0.000 A 
ATOM     23  N   UNL     1       5.963   5.844  15.891  0.00  0.00    +0.000 N 
ATOM     24  C   UNL     1       4.977   6.880  16.039  0.00  0.00    +0.000 C 
ENDBRANCH  18  19
ENDBRANCH  17  18
ENDBRANCH  15  17
ENDBRANCH   8  11
BRANCH   5  25
ATOM     25  C   UNL     1      -0.146   9.690  22.711  0.00  0.00    +0.000 C 
ATOM     26  F   UNL     1      -0.921   8.575  22.815  0.00  0.00    +0.000 F 
ATOM     27  F   UNL     1       0.947   9.454  23.488  0.00  0.00    +0.000 F 
ATOM     28  F   UNL     1      -0.840  10.684  23.331  0.00  0.00    +0.000 F 
ENDBRANCH   5  25
BRANCH   1  30
ATOM     29  C   UNL     1      -1.201  13.707  19.624  0.00  0.00    +0.000 C 
ATOM     30  C   UNL     1       0.033  13.106  18.968  0.00  0.00    +0.000 C 
ENDBRANCH   1  30
TORSDOF 6
ENDMDL
MODEL 5
REMARK VINA RESULT:      -8.5      1.419      2.262
REMARK  Name = 
REMARK  8 active torsions:
REMARK  status: ('A' for Active; 'I' for Inactive)
REMARK    1  A    between atoms: C_1  and  C_2
REMARK    2  A    between atoms: C_2  and  C_3
REMARK    3  A    between atoms: C_7  and  C_8
REMARK    4  A    between atoms: N_14  and  C_15
REMARK    5  A    between atoms: C_19  and  C_20
REMARK    6  A    between atoms: C_20  and  C_21
REMARK    7  A    between atoms: C_21  and  C_22
REMARK    8  A    between atoms: N_26  and  C_27
REMARK                            x       y       z     vdW  Elec       q    Type
REMARK                         _______ _______ _______ _____ _____    ______ ____
ROOT
ATOM      1  C   UNL     1       0.753  11.475  19.316  0.00  0.00    +0.000 A 
ATOM      2  C   UNL     1       1.406  10.482  18.588  0.00  0.00    +0.000 A 
ATOM      3  C   UNL     1       1.550   9.240  19.174  0.00  0.00    +0.000 A 
ATOM      4  C   UNL     1       1.077   8.937  20.447  0.00  0.00    +0.000 A 
ATOM      5  C   UNL     1       0.419   9.905  21.198  0.00  0.00    +0.000 A 
ATOM      6  C   UNL     1       0.263  11.183  20.612  0.00  0.00    +0.000 A 
ATOM      7  C   UNL     1       1.436   7.521  20.772  0.00  0.00    +0.000 C 
ATOM      8  N   UNL     1       2.190   7.084  19.601  0.00  0.00    +0.000 N 
ATOM      9  C   UNL     1       2.248   8.082  18.630  0.00  0.00    +0.000 C 
ATOM     10  O   UNL     1       2.758   8.108  17.524  0.00  0.00    +0.000 OA
ENDROOT
BRANCH   8  11
ATOM     11  C   UNL     1       2.852   5.832  19.541  0.00  0.00    +0.000 A 
ATOM     12  C   UNL     1       2.555   4.808  20.446  0.00  0.00    +0.000 A 
ATOM     13  C   UNL     1       3.181   3.564  20.358  0.00  0.00    +0.000 A 
ATOM     14  C   UNL     1       4.117   3.322  19.358  0.00  0.00    +0.000 A 
ATOM     15  C   UNL     1       4.428   4.320  18.429  0.00  0.00    +0.000 A 
ATOM     16  C   UNL     1       3.805   5.575  18.544  0.00  0.00    +0.000 A 
BRANCH  15  17
ATOM     17  C   UNL     1       5.437   4.082  17.328  0.00  0.00    +0.000 C 
BRANCH  17  18
ATOM     18  C   UNL     1       4.961   4.572  15.952  0.00  0.00    +0.000 C 
BRANCH  18  19
ATOM     19  C   UNL     1       6.108   4.846  15.034  0.00  0.00    +0.000 A 
ATOM     20  N   UNL     1       7.168   5.585  15.300  0.00  0.00    +0.000 NA
ATOM     21  N   UNL     1       8.008   5.546  14.214  0.00  0.00    +0.000 NA
ATOM     22  C   UNL     1       7.443   4.791  13.304  0.00  0.00    +0.000 A 
ATOM     23  N   UNL     1       6.241   4.347  13.763  0.00  0.00    +0.000 N 
ATOM     24  C   UNL     1       5.322   3.517  13.032  0.00  0.00    +0.000 C 
ENDBRANCH  18  19
ENDBRANCH  17  18
ENDBRANCH  15  17
ENDBRANCH   8  11
BRANCH   5  25
ATOM     25  C   UNL     1      -0.092   9.650  22.592  0.00  0.00    +0.000 C 
ATOM     26  F   UNL     1      -0.968   8.609  22.671  0.00  0.00    +0.000 F 
ATOM     27  F   UNL     1       0.910   9.357  23.465  0.00  0.00    +0.000 F 
ATOM     28  F   UNL     1      -0.744  10.725  23.114  0.00  0.00    +0.000 F 
ENDBRANCH   5  25
BRANCH   1  30
ATOM     29  C   UNL     1      -0.734  13.093  18.133  0.00  0.00    +0.000 C 
ATOM     30  C   UNL     1       0.643  12.860  18.736  0.00  0.00    +0.000 C 
ENDBRANCH   1  30
TORSDOF 6
ENDMDL
MODEL 6
REMARK VINA RESULT:      -8.5      3.905      8.493
REMARK  Name = 
REMARK  8 active torsions:
REMARK  status: ('A' for Active; 'I' for Inactive)
REMARK    1  A    between atoms: C_1  and  C_2
REMARK    2  A    between atoms: C_2  and  C_3
REMARK    3  A    between atoms: C_7  and  C_8
REMARK    4  A    between atoms: N_14  and  C_15
REMARK    5  A    between atoms: C_19  and  C_20
REMARK    6  A    between atoms: C_20  and  C_21
REMARK    7  A    between atoms: C_21  and  C_22
REMARK    8  A    between atoms: N_26  and  C_27
REMARK                            x       y       z     vdW  Elec       q    Type
REMARK                         _______ _______ _______ _____ _____    ______ ____
ROOT
ATOM      1  C   UNL     1       5.299   5.155  15.941  0.00  0.00    +0.000 A 
ATOM      2  C   UNL     1       4.875   6.428  16.321  0.00  0.00    +0.000 A 
ATOM      3  C   UNL     1       3.964   6.523  17.354  0.00  0.00    +0.000 A 
ATOM      4  C   UNL     1       3.455   5.416  18.028  0.00  0.00    +0.000 A 
ATOM      5  C   UNL     1       3.861   4.134  17.674  0.00  0.00    +0.000 A 
ATOM      6  C   UNL     1       4.793   4.018  16.617  0.00  0.00    +0.000 A 
ATOM      7  C   UNL     1       2.474   5.886  19.056  0.00  0.00    +0.000 C 
ATOM      8  N   UNL     1       2.443   7.332  18.861  0.00  0.00    +0.000 N 
ATOM      9  C   UNL     1       3.339   7.733  17.872  0.00  0.00    +0.000 C 
ATOM     10  O   UNL     1       3.620   8.833  17.432  0.00  0.00    +0.000 OA
ENDROOT
BRANCH   8  11
ATOM     11  C   UNL     1       1.528   8.175  19.540  0.00  0.00    +0.000 A 
ATOM     12  C   UNL     1       1.315   8.059  20.918  0.00  0.00    +0.000 A 
ATOM     13  C   UNL     1       0.443   8.918  21.588  0.00  0.00    +0.000 A 
ATOM     14  C   UNL     1      -0.232   9.913  20.888  0.00  0.00    +0.000 A 
ATOM     15  C   UNL     1      -0.032  10.065  19.513  0.00  0.00    +0.000 A 
ATOM     16  C   UNL     1       0.833   9.178  18.849  0.00  0.00    +0.000 A 
BRANCH  15  17
ATOM     17  C   UNL     1      -0.748  11.141  18.729  0.00  0.00    +0.000 C 
BRANCH  17  18
ATOM     18  C   UNL     1      -2.266  10.921  18.640  0.00  0.00    +0.000 C 
BRANCH  18  19
ATOM     19  C   UNL     1      -2.706  10.649  17.239  0.00  0.00    +0.000 A 
ATOM     20  N   UNL     1      -2.052   9.951  16.331  0.00  0.00    +0.000 NA
ATOM     21  N   UNL     1      -2.815   9.897  15.191  0.00  0.00    +0.000 NA
ATOM     22  C   UNL     1      -3.917  10.568  15.421  0.00  0.00    +0.000 A 
ATOM     23  N   UNL     1      -3.886  11.076  16.683  0.00  0.00    +0.000 N 
ATOM     24  C   UNL     1      -4.908  11.892  17.281  0.00  0.00    +0.000 C 
ENDBRANCH  18  19
ENDBRANCH  17  18
ENDBRANCH  15  17
ENDBRANCH   8  11
BRANCH   5  25
ATOM     25  C   UNL     1       3.327   2.895  18.343  0.00  0.00    +0.000 C 
ATOM     26  F   UNL     1       3.660   2.798  19.661  0.00  0.00    +0.000 F 
ATOM     27  F   UNL     1       1.968   2.827  18.300  0.00  0.00    +0.000 F 
ATOM     28  F   UNL     1       3.778   1.751  17.761  0.00  0.00    +0.000 F 
ENDBRANCH   5  25
BRANCH   1  30
ATOM     29  C   UNL     1       5.827   3.847  13.881  0.00  0.00    +0.000 C 
ATOM     30  C   UNL     1       6.235   5.012  14.770  0.00  0.00    +0.000 C 
ENDBRANCH   1  30
TORSDOF 6
ENDMDL
MODEL 7
REMARK VINA RESULT:      -8.5      3.840      9.043
REMARK  Name = 
REMARK  8 active torsions:
REMARK  status: ('A' for Active; 'I' for Inactive)
REMARK    1  A    between atoms: C_1  and  C_2
REMARK    2  A    between atoms: C_2  and  C_3
REMARK    3  A    between atoms: C_7  and  C_8
REMARK    4  A    between atoms: N_14  and  C_15
REMARK    5  A    between atoms: C_19  and  C_20
REMARK    6  A    between atoms: C_20  and  C_21
REMARK    7  A    between atoms: C_21  and  C_22
REMARK    8  A    between atoms: N_26  and  C_27
REMARK                            x       y       z     vdW  Elec       q    Type
REMARK                         _______ _______ _______ _____ _____    ______ ____
ROOT
ATOM      1  C   UNL     1       3.907   4.648  17.571  0.00  0.00    +0.000 A 
ATOM      2  C   UNL     1       3.665   6.008  17.385  0.00  0.00    +0.000 A 
ATOM      3  C   UNL     1       2.931   6.671  18.348  0.00  0.00    +0.000 A 
ATOM      4  C   UNL     1       2.426   6.049  19.486  0.00  0.00    +0.000 A 
ATOM      5  C   UNL     1       2.652   4.694  19.701  0.00  0.00    +0.000 A 
ATOM      6  C   UNL     1       3.402   3.999  18.724  0.00  0.00    +0.000 A 
ATOM      7  C   UNL     1       1.657   7.054  20.285  0.00  0.00    +0.000 C 
ATOM      8  N   UNL     1       1.733   8.264  19.474  0.00  0.00    +0.000 N 
ATOM      9  C   UNL     1       2.506   8.065  18.331  0.00  0.00    +0.000 C 
ATOM     10  O   UNL     1       2.820   8.816  17.425  0.00  0.00    +0.000 OA
ENDROOT
BRANCH   8  11
ATOM     11  C   UNL     1       1.012   9.443  19.789  0.00  0.00    +0.000 A 
ATOM     12  C   UNL     1       0.876  10.483  18.863  0.00  0.00    +0.000 A 
ATOM     13  C   UNL     1       0.132  11.624  19.164  0.00  0.00    +0.000 A 
ATOM     14  C   UNL     1      -0.494  11.744  20.401  0.00  0.00    +0.000 A 
ATOM     15  C   UNL     1      -0.390  10.717  21.344  0.00  0.00    +0.000 A 
ATOM     16  C   UNL     1       0.381   9.584  21.034  0.00  0.00    +0.000 A 
BRANCH  15  17
ATOM     17  C   UNL     1      -1.065  10.818  22.693  0.00  0.00    +0.000 C 
BRANCH  17  18
ATOM     18  C   UNL     1      -1.517  12.245  23.042  0.00  0.00    +0.000 C 
BRANCH  18  19
ATOM     19  C   UNL     1      -3.004  12.346  23.146  0.00  0.00    +0.000 A 
ATOM     20  N   UNL     1      -3.748  11.970  24.168  0.00  0.00    +0.000 NA
ATOM     21  N   UNL     1      -5.057  12.274  23.888  0.00  0.00    +0.000 NA
ATOM     22  C   UNL     1      -5.089  12.823  22.699  0.00  0.00    +0.000 A 
ATOM     23  N   UNL     1      -3.831  12.870  22.185  0.00  0.00    +0.000 N 
ATOM     24  C   UNL     1      -3.476  13.379  20.887  0.00  0.00    +0.000 C 
ENDBRANCH  18  19
ENDBRANCH  17  18
ENDBRANCH  15  17
ENDBRANCH   8  11
BRANCH   5  25
ATOM     25  C   UNL     1       2.109   3.955  20.896  0.00  0.00    +0.000 C 
ATOM     26  F   UNL     1       2.512   2.654  20.964  0.00  0.00    +0.000 F 
ATOM     27  F   UNL     1       2.492   4.521  22.073  0.00  0.00    +0.000 F 
ATOM     28  F   UNL     1       0.749   3.924  20.918  0.00  0.00    +0.000 F 
ENDBRANCH   5  25
BRANCH   1  30
ATOM     29  C   UNL     1       6.004   4.498  16.225  0.00  0.00    +0.000 C 
ATOM     30  C   UNL     1       4.642   3.880  16.504  0.00  0.00    +0.000 C 
ENDBRANCH   1  30
TORSDOF 6
ENDMDL
MODEL 8
REMARK VINA RESULT:      -8.5      3.710      8.520
REMARK  Name = 
REMARK  8 active torsions:
REMARK  status: ('A' for Active; 'I' for Inactive)
REMARK    1  A    between atoms: C_1  and  C_2
REMARK    2  A    between atoms: C_2  and  C_3
REMARK    3  A    between atoms: C_7  and  C_8
REMARK    4  A    between atoms: N_14  and  C_15
REMARK    5  A    between atoms: C_19  and  C_20
REMARK    6  A    between atoms: C_20  and  C_21
REMARK    7  A    between atoms: C_21  and  C_22
REMARK    8  A    between atoms: N_26  and  C_27
REMARK                            x       y       z     vdW  Elec       q    Type
REMARK                         _______ _______ _______ _____ _____    ______ ____
ROOT
ATOM      1  C   UNL     1       4.752   4.766  16.441  0.00  0.00    +0.000 A 
ATOM      2  C   UNL     1       4.396   6.085  16.722  0.00  0.00    +0.000 A 
ATOM      3  C   UNL     1       3.597   6.317  17.824  0.00  0.00    +0.000 A 
ATOM      4  C   UNL     1       3.134   5.304  18.659  0.00  0.00    +0.000 A 
ATOM      5  C   UNL     1       3.474   3.979  18.407  0.00  0.00    +0.000 A 
ATOM      6  C   UNL     1       4.292   3.724  17.282  0.00  0.00    +0.000 A 
ATOM      7  C   UNL     1       2.273   5.910  19.723  0.00  0.00    +0.000 C 
ATOM      8  N   UNL     1       2.254   7.328  19.378  0.00  0.00    +0.000 N 
ATOM      9  C   UNL     1       3.054   7.594  18.268  0.00  0.00    +0.000 C 
ATOM     10  O   UNL     1       3.312   8.633  17.687  0.00  0.00    +0.000 OA
ENDROOT
BRANCH   8  11
ATOM     11  C   UNL     1       1.430   8.267  20.048  0.00  0.00    +0.000 A 
ATOM     12  C   UNL     1       1.186   8.170  21.423  0.00  0.00    +0.000 A 
ATOM     13  C   UNL     1       0.407   9.119  22.085  0.00  0.00    +0.000 A 
ATOM     14  C   UNL     1      -0.140  10.188  21.382  0.00  0.00    +0.000 A 
ATOM     15  C   UNL     1       0.096  10.322  20.011  0.00  0.00    +0.000 A 
ATOM     16  C   UNL     1       0.864   9.345  19.353  0.00  0.00    +0.000 A 
BRANCH  15  17
ATOM     17  C   UNL     1      -0.482  11.476  19.223  0.00  0.00    +0.000 C 
BRANCH  17  18
ATOM     18  C   UNL     1      -2.008  11.600  19.357  0.00  0.00    +0.000 C 
BRANCH  18  19
ATOM     19  C   UNL     1      -2.695  11.440  18.041  0.00  0.00    +0.000 A 
ATOM     20  N   UNL     1      -2.142  11.058  16.906  0.00  0.00    +0.000 NA
ATOM     21  N   UNL     1      -3.120  10.992  15.945  0.00  0.00    +0.000 NA
ATOM     22  C   UNL     1      -4.250  11.342  16.508  0.00  0.00    +0.000 A 
ATOM     23  N   UNL     1      -4.032  11.653  17.815  0.00  0.00    +0.000 N 
ATOM     24  C   UNL     1      -5.030  12.107  18.744  0.00  0.00    +0.000 C 
ENDBRANCH  18  19
ENDBRANCH  17  18
ENDBRANCH  15  17
ENDBRANCH   8  11
BRANCH   5  25
ATOM     25  C   UNL     1       2.983   2.835  19.254  0.00  0.00    +0.000 C 
ATOM     26  F   UNL     1       3.381   1.611  18.803  0.00  0.00    +0.000 F 
ATOM     27  F   UNL     1       3.425   2.915  20.540  0.00  0.00    +0.000 F 
ATOM     28  F   UNL     1       1.625   2.781  19.325  0.00  0.00    +0.000 F 
ENDBRANCH   5  25
BRANCH   1  30
ATOM     29  C   UNL     1       7.045   4.699  15.458  0.00  0.00    +0.000 C 
ATOM     30  C   UNL     1       5.562   4.471  15.207  0.00  0.00    +0.000 C 
ENDBRANCH   1  30
TORSDOF 6
ENDMDL
MODEL 9
REMARK VINA RESULT:      -8.4      3.046      4.573
REMARK  Name = 
REMARK  8 active torsions:
REMARK  status: ('A' for Active; 'I' for Inactive)
REMARK    1  A    between atoms: C_1  and  C_2
REMARK    2  A    between atoms: C_2  and  C_3
REMARK    3  A    between atoms: C_7  and  C_8
REMARK    4  A    between atoms: N_14  and  C_15
REMARK    5  A    between atoms: C_19  and  C_20
REMARK    6  A    between atoms: C_20  and  C_21
REMARK    7  A    between atoms: C_21  and  C_22
REMARK    8  A    between atoms: N_26  and  C_27
REMARK                            x       y       z     vdW  Elec       q    Type
REMARK                         _______ _______ _______ _____ _____    ______ ____
ROOT
ATOM      1  C   UNL     1      -0.308  10.075  22.048  0.00  0.00    +0.000 A 
ATOM      2  C   UNL     1       0.403   8.880  21.950  0.00  0.00    +0.000 A 
ATOM      3  C   UNL     1       1.072   8.623  20.770  0.00  0.00    +0.000 A 
ATOM      4  C   UNL     1       1.068   9.493  19.684  0.00  0.00    +0.000 A 
ATOM      5  C   UNL     1       0.370  10.694  19.752  0.00  0.00    +0.000 A 
ATOM      6  C   UNL     1      -0.320  10.974  20.954  0.00  0.00    +0.000 A 
ATOM      7  C   UNL     1       1.860   8.881  18.571  0.00  0.00    +0.000 C 
ATOM      8  N   UNL     1       2.256   7.584  19.109  0.00  0.00    +0.000 N 
ATOM      9  C   UNL     1       1.819   7.420  20.422  0.00  0.00    +0.000 C 
ATOM     10  O   UNL     1       1.955   6.504  21.214  0.00  0.00    +0.000 OA
ENDROOT
BRANCH   8  11
ATOM     11  C   UNL     1       2.912   6.599  18.328  0.00  0.00    +0.000 A 
ATOM     12  C   UNL     1       4.216   6.792  17.859  0.00  0.00    +0.000 A 
ATOM     13  C   UNL     1       4.871   5.805  17.123  0.00  0.00    +0.000 A 
ATOM     14  C   UNL     1       4.232   4.600  16.846  0.00  0.00    +0.000 A 
ATOM     15  C   UNL     1       2.934   4.369  17.311  0.00  0.00    +0.000 A 
ATOM     16  C   UNL     1       2.279   5.383  18.032  0.00  0.00    +0.000 A 
BRANCH  15  17
ATOM     17  C   UNL     1       2.218   3.068  17.029  0.00  0.00    +0.000 C 
BRANCH  17  18
ATOM     18  C   UNL     1       2.576   1.950  18.020  0.00  0.00    +0.000 C 
BRANCH  18  19
ATOM     19  C   UNL     1       2.259   2.335  19.428  0.00  0.00    +0.000 A 
ATOM     20  N   UNL     1       1.063   2.588  19.924  0.00  0.00    +0.000 NA
ATOM     21  N   UNL     1       1.196   2.857  21.264  0.00  0.00    +0.000 NA
ATOM     22  C   UNL     1       2.470   2.770  21.560  0.00  0.00    +0.000 A 
ATOM     23  N   UNL     1       3.178   2.466  20.439  0.00  0.00    +0.000 N 
ATOM     24  C   UNL     1       4.607   2.318  20.367  0.00  0.00    +0.000 C 
ENDBRANCH  18  19
ENDBRANCH  17  18
ENDBRANCH  15  17
ENDBRANCH   8  11
BRANCH   5  25
ATOM     25  C   UNL     1       0.303  11.666  18.603  0.00  0.00    +0.000 C 
ATOM     26  F   UNL     1      -0.284  12.853  18.926  0.00  0.00    +0.000 F 
ATOM     27  F   UNL     1       1.535  11.983  18.120  0.00  0.00    +0.000 F 
ATOM     28  F   UNL     1      -0.402  11.178  17.547  0.00  0.00    +0.000 F 
ENDBRANCH   5  25
BRANCH   1  30
ATOM     29  C   UNL     1      -1.716  11.748  23.253  0.00  0.00    +0.000 C 
ATOM     30  C   UNL     1      -1.107  10.354  23.294  0.00  0.00    +0.000 C 
ENDBRANCH   1  30
TORSDOF 6
ENDMDL
