MODEL 1
REMARK VINA RESULT:      -8.9      0.000      0.000
REMARK  Name = 
REMARK  5 active torsions:
REMARK  status: ('A' for Active; 'I' for Inactive)
REMARK    1  A    between atoms: C_2  and  C_19
REMARK    2  A    between atoms: N_3  and  C_4
REMARK    3  A    between atoms: C_8  and  S_9
REMARK    4  A    between atoms: S_9  and  N_12
REMARK    5  A    between atoms: C_22  and  N_23
REMARK                            x       y       z     vdW  Elec       q    Type
REMARK                         _______ _______ _______ _____ _____    ______ ____
ROOT
ATOM      1  O   UNL     1       8.465   7.062  18.881  0.00  0.00    +0.000 OA
ATOM      2  C   UNL     1       7.942   7.873  18.125  0.00  0.00    +0.000 C 
ATOM      3  N   UNL     1       7.043   7.603  17.106  0.00  0.00    +0.000 N 
ATOM      4  H   UNL     1       6.860   8.336  16.431  0.00  0.00    +0.000 HD
ENDROOT
BRANCH   3   5
ATOM      5  C   UNL     1       6.608   6.298  16.775  0.00  0.00    +0.000 A 
ATOM      6  C   UNL     1       7.011   5.659  15.595  0.00  0.00    +0.000 A 
ATOM      7  C   UNL     1       6.459   4.443  15.204  0.00  0.00    +0.000 A 
ATOM      8  C   UNL     1       5.537   3.810  16.026  0.00  0.00    +0.000 A 
ATOM      9  C   UNL     1       5.205   4.388  17.254  0.00  0.00    +0.000 A 
ATOM     10  C   UNL     1       5.731   5.632  17.637  0.00  0.00    +0.000 A 
BRANCH   9  11
ATOM     11  S   UNL     1       4.184   3.462  18.375  0.00  0.00    +0.000 S 
ATOM     12  O   UNL     1       3.724   2.294  17.652  0.00  0.00    +0.000 OA
ATOM     13  O   UNL     1       4.905   3.331  19.619  0.00  0.00    +0.000 OA
BRANCH  11  14
ATOM     14  N   UNL     1       2.841   4.474  18.651  0.00  0.00    +0.000 NA
ATOM     15  C   UNL     1       2.761   5.182  19.966  0.00  0.00    +0.000 C 
ATOM     16  C   UNL     1       2.189   4.281  21.069  0.00  0.00    +0.000 C 
ATOM     17  O   UNL     1       0.911   3.745  20.701  0.00  0.00    +0.000 OA
ATOM     18  C   UNL     1       0.996   2.990  19.485  0.00  0.00    +0.000 C 
ATOM     19  C   UNL     1       1.513   3.853  18.329  0.00  0.00    +0.000 C 
ENDBRANCH  11  14
ENDBRANCH   9  11
ENDBRANCH   3   5
BRANCH   2  20
ATOM     20  C   UNL     1       8.375   9.278  18.269  0.00  0.00    +0.000 A 
ATOM     21  C   UNL     1       7.774  10.220  17.429  0.00  0.00    +0.000 A 
ATOM     22  C   UNL     1       8.171  11.552  17.475  0.00  0.00    +0.000 A 
ATOM     23  C   UNL     1       9.204  11.954  18.326  0.00  0.00    +0.000 A 
ATOM     24  C   UNL     1       9.811  10.994  19.155  0.00  0.00    +0.000 A 
ATOM     25  C   UNL     1       9.391   9.661  19.139  0.00  0.00    +0.000 A 
BRANCH  23  26
ATOM     26  N   UNL     1       9.662  13.289  18.318  0.00  0.00    +0.000 N 
ATOM     27  C   UNL     1       9.399  14.182  19.420  0.00  0.00    +0.000 C 
ATOM     28  C   UNL     1       9.920  15.518  18.940  0.00  0.00    +0.000 C 
ATOM     29  C   UNL     1      11.067  15.148  18.016  0.00  0.00    +0.000 C 
ATOM     30  C   UNL     1      10.670  13.794  17.486  0.00  0.00    +0.000 C 
ATOM     31  O   UNL     1      11.187  13.277  16.509  0.00  0.00    +0.000 OA
ENDBRANCH  23  26
ENDBRANCH   2  20
TORSDOF 5
ENDMDL
MODEL 2
REMARK VINA RESULT:      -8.8      0.858      1.112
REMARK  Name = 
REMARK  5 active torsions:
REMARK  status: ('A' for Active; 'I' for Inactive)
REMARK    1  A    between atoms: C_2  and  C_19
REMARK    2  A    between atoms: N_3  and  C_4
REMARK    3  A    between atoms: C_8  and  S_9
REMARK    4  A    between atoms: S_9  and  N_12
REMARK    5  A    between atoms: C_22  and  N_23
REMARK                            x       y       z     vdW  Elec       q    Type
REMARK                         _______ _______ _______ _____ _____    ______ ____
ROOT
ATOM      1  O   UNL     1       8.476   7.039  18.872  0.00  0.00    +0.000 OA
ATOM      2  C   UNL     1       7.935   7.855  18.135  0.00  0.00    +0.000 C 
ATOM      3  N   UNL     1       7.015   7.592  17.133  0.00  0.00    +0.000 N 
ATOM      4  H   UNL     1       6.817   8.330  16.468  0.00  0.00    +0.000 HD
ENDROOT
BRANCH   3   5
ATOM      5  C   UNL     1       6.575   6.289  16.801  0.00  0.00    +0.000 A 
ATOM      6  C   UNL     1       6.955   5.660  15.608  0.00  0.00    +0.000 A 
ATOM      7  C   UNL     1       6.397   4.446  15.218  0.00  0.00    +0.000 A 
ATOM      8  C   UNL     1       5.492   3.806  16.054  0.00  0.00    +0.000 A 
ATOM      9  C   UNL     1       5.185   4.373  17.293  0.00  0.00    +0.000 A 
ATOM     10  C   UNL     1       5.717   5.616  17.675  0.00  0.00    +0.000 A 
BRANCH   9  11
ATOM     11  S   UNL     1       4.187   3.437  18.427  0.00  0.00    +0.000 S 
ATOM     12  O   UNL     1       3.676   2.299  17.691  0.00  0.00    +0.000 OA
ATOM     13  O   UNL     1       4.952   3.258  19.638  0.00  0.00    +0.000 OA
BRANCH  11  14
ATOM     14  N   UNL     1       2.878   4.467  18.782  0.00  0.00    +0.000 NA
ATOM     15  C   UNL     1       2.796   5.040  20.162  0.00  0.00    +0.000 C 
ATOM     16  C   UNL     1       2.167   4.055  21.156  0.00  0.00    +0.000 C 
ATOM     17  O   UNL     1       0.878   3.610  20.713  0.00  0.00    +0.000 OA
ATOM     18  C   UNL     1       0.961   2.980  19.427  0.00  0.00    +0.000 C 
ATOM     19  C   UNL     1       1.535   3.936  18.375  0.00  0.00    +0.000 C 
ENDBRANCH  11  14
ENDBRANCH   9  11
ENDBRANCH   3   5
BRANCH   2  20
ATOM     20  C   UNL     1       8.370   9.259  18.282  0.00  0.00    +0.000 A 
ATOM     21  C   UNL     1       7.810  10.194  17.406  0.00  0.00    +0.000 A 
ATOM     22  C   UNL     1       8.211  11.526  17.454  0.00  0.00    +0.000 A 
ATOM     23  C   UNL     1       9.209  11.932  18.344  0.00  0.00    +0.000 A 
ATOM     24  C   UNL     1       9.776  10.979  19.208  0.00  0.00    +0.000 A 
ATOM     25  C   UNL     1       9.350   9.647  19.190  0.00  0.00    +0.000 A 
BRANCH  23  26
ATOM     26  N   UNL     1       9.674  13.265  18.340  0.00  0.00    +0.000 N 
ATOM     27  C   UNL     1      10.696  13.703  17.421  0.00  0.00    +0.000 C 
ATOM     28  C   UNL     1      10.993  15.121  17.854  0.00  0.00    +0.000 C 
ATOM     29  C   UNL     1       9.671  15.614  18.415  0.00  0.00    +0.000 C 
ATOM     30  C   UNL     1       9.011  14.356  18.919  0.00  0.00    +0.000 C 
ATOM     31  O   UNL     1       8.059  14.355  19.682  0.00  0.00    +0.000 OA
ENDBRANCH  23  26
ENDBRANCH   2  20
TORSDOF 5
ENDMDL
MODEL 3
REMARK VINA RESULT:      -8.8      1.399      2.019
REMARK  Name = 
REMARK  5 active torsions:
REMARK  status: ('A' for Active; 'I' for Inactive)
REMARK    1  A    between atoms: C_2  and  C_19
REMARK    2  A    between atoms: N_3  and  C_4
REMARK    3  A    between atoms: C_8  and  S_9
REMARK    4  A    between atoms: S_9  and  N_12
REMARK    5  A    between atoms: C_22  and  N_23
REMARK                            x       y       z     vdW  Elec       q    Type
REMARK                         _______ _______ _______ _____ _____    ______ ____
ROOT
ATOM      1  O   UNL     1       8.418   7.153  18.799  0.00  0.00    +0.000 OA
ATOM      2  C   UNL     1       7.875   8.012  18.114  0.00  0.00    +0.000 C 
ATOM      3  N   UNL     1       6.864   7.822  17.186  0.00  0.00    +0.000 N 
ATOM      4  H   UNL     1       6.663   8.581  16.546  0.00  0.00    +0.000 HD
ENDROOT
BRANCH   3   5
ATOM      5  C   UNL     1       6.316   6.554  16.878  0.00  0.00    +0.000 A 
ATOM      6  C   UNL     1       6.995   5.630  16.074  0.00  0.00    +0.000 A 
ATOM      7  C   UNL     1       6.385   4.452  15.650  0.00  0.00    +0.000 A 
ATOM      8  C   UNL     1       5.101   4.149  16.082  0.00  0.00    +0.000 A 
ATOM      9  C   UNL     1       4.455   5.015  16.967  0.00  0.00    +0.000 A 
ATOM     10  C   UNL     1       5.050   6.222  17.368  0.00  0.00    +0.000 A 
BRANCH   9  11
ATOM     11  S   UNL     1       2.901   4.506  17.664  0.00  0.00    +0.000 S 
ATOM     12  O   UNL     1       2.098   5.703  17.811  0.00  0.00    +0.000 OA
ATOM     13  O   UNL     1       2.424   3.380  16.896  0.00  0.00    +0.000 OA
BRANCH  11  14
ATOM     14  N   UNL     1       3.303   3.946  19.222  0.00  0.00    +0.000 NA
ATOM     15  C   UNL     1       3.079   2.497  19.521  0.00  0.00    +0.000 C 
ATOM     16  C   UNL     1       1.620   2.208  19.897  0.00  0.00    +0.000 C 
ATOM     17  O   UNL     1       1.186   3.026  20.991  0.00  0.00    +0.000 OA
ATOM     18  C   UNL     1       1.316   4.421  20.680  0.00  0.00    +0.000 C 
ATOM     19  C   UNL     1       2.767   4.783  20.346  0.00  0.00    +0.000 C 
ENDBRANCH  11  14
ENDBRANCH   9  11
ENDBRANCH   3   5
BRANCH   2  20
ATOM     20  C   UNL     1       8.410   9.383  18.238  0.00  0.00    +0.000 A 
ATOM     21  C   UNL     1       9.324   9.622  19.269  0.00  0.00    +0.000 A 
ATOM     22  C   UNL     1       9.828  10.901  19.476  0.00  0.00    +0.000 A 
ATOM     23  C   UNL     1       9.392  11.969  18.687  0.00  0.00    +0.000 A 
ATOM     24  C   UNL     1       8.461  11.720  17.663  0.00  0.00    +0.000 A 
ATOM     25  C   UNL     1       7.978  10.429  17.427  0.00  0.00    +0.000 A 
BRANCH  23  26
ATOM     26  N   UNL     1       9.842  13.282  18.945  0.00  0.00    +0.000 N 
ATOM     27  C   UNL     1      11.077  13.777  18.389  0.00  0.00    +0.000 C 
ATOM     28  C   UNL     1      11.245  15.138  19.028  0.00  0.00    +0.000 C 
ATOM     29  C   UNL     1       9.820  15.612  19.251  0.00  0.00    +0.000 C 
ATOM     30  C   UNL     1       9.046  14.331  19.426  0.00  0.00    +0.000 C 
ATOM     31  O   UNL     1       7.920  14.284  19.895  0.00  0.00    +0.000 OA
ENDBRANCH  23  26
ENDBRANCH   2  20
TORSDOF 5
ENDMDL
MODEL 4
REMARK VINA RESULT:      -8.7      5.800      8.659
REMARK  Name = 
REMARK  5 active torsions:
REMARK  status: ('A' for Active; 'I' for Inactive)
REMARK    1  A    between atoms: C_2  and  C_19
REMARK    2  A    between atoms: N_3  and  C_4
REMARK    3  A    between atoms: C_8  and  S_9
REMARK    4  A    between atoms: S_9  and  N_12
REMARK    5  A    between atoms: C_22  and  N_23
REMARK                            x       y       z     vdW  Elec       q    Type
REMARK                         _______ _______ _______ _____ _____    ______ ____
ROOT
ATOM      1  O   UNL     1       1.693   8.525  19.238  0.00  0.00    +0.000 OA
ATOM      2  C   UNL     1       1.279   8.329  20.374  0.00  0.00    +0.000 C 
ATOM      3  N   UNL     1       1.313   7.137  21.080  0.00  0.00    +0.000 N 
ATOM      4  H   UNL     1       0.747   7.068  21.917  0.00  0.00    +0.000 HD
ENDROOT
BRANCH   3   5
ATOM      5  C   UNL     1       1.832   5.931  20.551  0.00  0.00    +0.000 A 
ATOM      6  C   UNL     1       1.079   4.751  20.517  0.00  0.00    +0.000 A 
ATOM      7  C   UNL     1       1.648   3.538  20.139  0.00  0.00    +0.000 A 
ATOM      8  C   UNL     1       2.971   3.500  19.723  0.00  0.00    +0.000 A 
ATOM      9  C   UNL     1       3.701   4.689  19.653  0.00  0.00    +0.000 A 
ATOM     10  C   UNL     1       3.144   5.909  20.068  0.00  0.00    +0.000 A 
BRANCH   9  11
ATOM     11  S   UNL     1       5.322   4.644  18.924  0.00  0.00    +0.000 S 
ATOM     12  O   UNL     1       6.171   5.481  19.747  0.00  0.00    +0.000 OA
ATOM     13  O   UNL     1       5.654   3.261  18.679  0.00  0.00    +0.000 OA
BRANCH  11  14
ATOM     14  N   UNL     1       5.125   5.412  17.417  0.00  0.00    +0.000 NA
ATOM     15  C   UNL     1       5.460   4.628  16.187  0.00  0.00    +0.000 C 
ATOM     16  C   UNL     1       6.966   4.642  15.891  0.00  0.00    +0.000 C 
ATOM     17  O   UNL     1       7.471   5.980  15.795  0.00  0.00    +0.000 OA
ATOM     18  C   UNL     1       7.231   6.713  17.005  0.00  0.00    +0.000 C 
ATOM     19  C   UNL     1       5.734   6.780  17.326  0.00  0.00    +0.000 C 
ENDBRANCH  11  14
ENDBRANCH   9  11
ENDBRANCH   3   5
BRANCH   2  20
ATOM     20  C   UNL     1       0.605   9.467  21.031  0.00  0.00    +0.000 A 
ATOM     21  C   UNL     1      -0.032   9.214  22.250  0.00  0.00    +0.000 A 
ATOM     22  C   UNL     1      -0.730  10.227  22.899  0.00  0.00    +0.000 A 
ATOM     23  C   UNL     1      -0.841  11.493  22.318  0.00  0.00    +0.000 A 
ATOM     24  C   UNL     1      -0.210  11.731  21.084  0.00  0.00    +0.000 A 
ATOM     25  C   UNL     1       0.524  10.727  20.445  0.00  0.00    +0.000 A 
BRANCH  23  26
ATOM     26  N   UNL     1      -1.614  12.500  22.935  0.00  0.00    +0.000 N 
ATOM     27  C   UNL     1      -2.865  12.196  23.585  0.00  0.00    +0.000 C 
ATOM     28  C   UNL     1      -3.419  13.551  23.964  0.00  0.00    +0.000 C 
ATOM     29  C   UNL     1      -2.180  14.395  24.205  0.00  0.00    +0.000 C 
ATOM     30  C   UNL     1      -1.147  13.769  23.302  0.00  0.00    +0.000 C 
ATOM     31  O   UNL     1      -0.099  14.317  22.998  0.00  0.00    +0.000 OA
ENDBRANCH  23  26
ENDBRANCH   2  20
TORSDOF 5
ENDMDL
MODEL 5
REMARK VINA RESULT:      -8.7      5.727      8.711
REMARK  Name = 
REMARK  5 active torsions:
REMARK  status: ('A' for Active; 'I' for Inactive)
REMARK    1  A    between atoms: C_2  and  C_19
REMARK    2  A    between atoms: N_3  and  C_4
REMARK    3  A    between atoms: C_8  and  S_9
REMARK    4  A    between atoms: S_9  and  N_12
REMARK    5  A    between atoms: C_22  and  N_23
REMARK                            x       y       z     vdW  Elec       q    Type
REMARK                         _______ _______ _______ _____ _____    ______ ____
ROOT
ATOM      1  O   UNL     1       1.669   8.478  19.358  0.00  0.00    +0.000 OA
ATOM      2  C   UNL     1       1.214   8.218  20.465  0.00  0.00    +0.000 C 
ATOM      3  N   UNL     1       1.243   6.992  21.111  0.00  0.00    +0.000 N 
ATOM      4  H   UNL     1       0.645   6.871  21.920  0.00  0.00    +0.000 HD
ENDROOT
BRANCH   3   5
ATOM      5  C   UNL     1       1.805   5.825  20.543  0.00  0.00    +0.000 A 
ATOM      6  C   UNL     1       1.086   4.627  20.446  0.00  0.00    +0.000 A 
ATOM      7  C   UNL     1       1.696   3.446  20.030  0.00  0.00    +0.000 A 
ATOM      8  C   UNL     1       3.027   3.461  19.639  0.00  0.00    +0.000 A 
ATOM      9  C   UNL     1       3.725   4.671  19.633  0.00  0.00    +0.000 A 
ATOM     10  C   UNL     1       3.126   5.858  20.087  0.00  0.00    +0.000 A 
BRANCH   9  11
ATOM     11  S   UNL     1       5.360   4.701  18.936  0.00  0.00    +0.000 S 
ATOM     12  O   UNL     1       6.153   5.580  19.771  0.00  0.00    +0.000 OA
ATOM     13  O   UNL     1       5.761   3.334  18.703  0.00  0.00    +0.000 OA
BRANCH  11  14
ATOM     14  N   UNL     1       5.156   5.453  17.422  0.00  0.00    +0.000 NA
ATOM     15  C   UNL     1       5.451   4.645  16.197  0.00  0.00    +0.000 C 
ATOM     16  C   UNL     1       6.951   4.617  15.875  0.00  0.00    +0.000 C 
ATOM     17  O   UNL     1       7.488   5.941  15.753  0.00  0.00    +0.000 OA
ATOM     18  C   UNL     1       7.287   6.696  16.956  0.00  0.00    +0.000 C 
ATOM     19  C   UNL     1       5.798   6.804  17.302  0.00  0.00    +0.000 C 
ENDBRANCH  11  14
ENDBRANCH   9  11
ENDBRANCH   3   5
BRANCH   2  20
ATOM     20  C   UNL     1       0.493   9.309  21.150  0.00  0.00    +0.000 A 
ATOM     21  C   UNL     1       0.374  10.524  20.468  0.00  0.00    +0.000 A 
ATOM     22  C   UNL     1      -0.248  11.610  21.074  0.00  0.00    +0.000 A 
ATOM     23  C   UNL     1      -0.720  11.513  22.386  0.00  0.00    +0.000 A 
ATOM     24  C   UNL     1      -0.580  10.292  23.068  0.00  0.00    +0.000 A 
ATOM     25  C   UNL     1       0.011   9.186  22.450  0.00  0.00    +0.000 A 
BRANCH  23  26
ATOM     26  N   UNL     1      -1.280  12.636  23.032  0.00  0.00    +0.000 N 
ATOM     27  C   UNL     1      -0.685  13.945  22.917  0.00  0.00    +0.000 C 
ATOM     28  C   UNL     1      -1.496  14.800  23.865  0.00  0.00    +0.000 C 
ATOM     29  C   UNL     1      -2.875  14.164  23.836  0.00  0.00    +0.000 C 
ATOM     30  C   UNL     1      -2.588  12.716  23.528  0.00  0.00    +0.000 C 
ATOM     31  O   UNL     1      -3.402  11.820  23.688  0.00  0.00    +0.000 OA
ENDBRANCH  23  26
ENDBRANCH   2  20
TORSDOF 5
ENDMDL
MODEL 6
REMARK VINA RESULT:      -8.7      1.367      1.792
REMARK  Name = 
REMARK  5 active torsions:
REMARK  status: ('A' for Active; 'I' for Inactive)
REMARK    1  A    between atoms: C_2  and  C_19
REMARK    2  A    between atoms: N_3  and  C_4
REMARK    3  A    between atoms: C_8  and  S_9
REMARK    4  A    between atoms: S_9  and  N_12
REMARK    5  A    between atoms: C_22  and  N_23
REMARK                            x       y       z     vdW  Elec       q    Type
REMARK                         _______ _______ _______ _____ _____    ______ ____
ROOT
ATOM      1  O   UNL     1       8.524   7.377  18.923  0.00  0.00    +0.000 OA
ATOM      2  C   UNL     1       7.973   8.212  18.217  0.00  0.00    +0.000 C 
ATOM      3  N   UNL     1       6.967   7.988  17.290  0.00  0.00    +0.000 N 
ATOM      4  H   UNL     1       6.759   8.729  16.631  0.00  0.00    +0.000 HD
ENDROOT
BRANCH   3   5
ATOM      5  C   UNL     1       6.435   6.707  17.011  0.00  0.00    +0.000 A 
ATOM      6  C   UNL     1       7.151   5.751  16.280  0.00  0.00    +0.000 A 
ATOM      7  C   UNL     1       6.563   4.555  15.879  0.00  0.00    +0.000 A 
ATOM      8  C   UNL     1       5.261   4.267  16.264  0.00  0.00    +0.000 A 
ATOM      9  C   UNL     1       4.573   5.167  17.081  0.00  0.00    +0.000 A 
ATOM     10  C   UNL     1       5.149   6.391  17.457  0.00  0.00    +0.000 A 
BRANCH   9  11
ATOM     11  S   UNL     1       2.990   4.684  17.727  0.00  0.00    +0.000 S 
ATOM     12  O   UNL     1       2.201   5.893  17.843  0.00  0.00    +0.000 OA
ATOM     13  O   UNL     1       2.522   3.563  16.947  0.00  0.00    +0.000 OA
BRANCH  11  14
ATOM     14  N   UNL     1       3.332   4.123  19.298  0.00  0.00    +0.000 NA
ATOM     15  C   UNL     1       3.213   2.654  19.555  0.00  0.00    +0.000 C 
ATOM     16  C   UNL     1       1.762   2.233  19.823  0.00  0.00    +0.000 C 
ATOM     17  O   UNL     1       1.186   2.985  20.899  0.00  0.00    +0.000 OA
ATOM     18  C   UNL     1       1.216   4.392  20.622  0.00  0.00    +0.000 C 
ATOM     19  C   UNL     1       2.649   4.884  20.397  0.00  0.00    +0.000 C 
ENDBRANCH  11  14
ENDBRANCH   9  11
ENDBRANCH   3   5
BRANCH   2  20
ATOM     20  C   UNL     1       8.491   9.593  18.309  0.00  0.00    +0.000 A 
ATOM     21  C   UNL     1       7.919  10.546  17.461  0.00  0.00    +0.000 A 
ATOM     22  C   UNL     1       8.393  11.854  17.458  0.00  0.00    +0.000 A 
ATOM     23  C   UNL     1       9.473  12.217  18.267  0.00  0.00    +0.000 A 
ATOM     24  C   UNL     1      10.050  11.246  19.103  0.00  0.00    +0.000 A 
ATOM     25  C   UNL     1       9.554   9.939  19.138  0.00  0.00    +0.000 A 
BRANCH  23  26
ATOM     26  N   UNL     1      10.006  13.523  18.208  0.00  0.00    +0.000 N 
ATOM     27  C   UNL     1      10.980  13.894  17.211  0.00  0.00    +0.000 C 
ATOM     28  C   UNL     1      11.383  15.299  17.599  0.00  0.00    +0.000 C 
ATOM     29  C   UNL     1      10.133  15.869  18.245  0.00  0.00    +0.000 C 
ATOM     30  C   UNL     1       9.447  14.655  18.816  0.00  0.00    +0.000 C 
ATOM     31  O   UNL     1       8.554  14.715  19.647  0.00  0.00    +0.000 OA
ENDBRANCH  23  26
ENDBRANCH   2  20
TORSDOF 5
ENDMDL
MODEL 7
REMARK VINA RESULT:      -8.7      0.927      1.249
REMARK  Name = 
REMARK  5 active torsions:
REMARK  status: ('A' for Active; 'I' for Inactive)
REMARK    1  A    between atoms: C_2  and  C_19
REMARK    2  A    between atoms: N_3  and  C_4
REMARK    3  A    between atoms: C_8  and  S_9
REMARK    4  A    between atoms: S_9  and  N_12
REMARK    5  A    between atoms: C_22  and  N_23
REMARK                            x       y       z     vdW  Elec       q    Type
REMARK                         _______ _______ _______ _____ _____    ______ ____
ROOT
ATOM      1  O   UNL     1       8.377   6.999  18.832  0.00  0.00    +0.000 OA
ATOM      2  C   UNL     1       7.847   7.859  18.139  0.00  0.00    +0.000 C 
ATOM      3  N   UNL     1       6.883   7.666  17.162  0.00  0.00    +0.000 N 
ATOM      4  H   UNL     1       6.694   8.432  16.527  0.00  0.00    +0.000 HD
ENDROOT
BRANCH   3   5
ATOM      5  C   UNL     1       6.379   6.393  16.806  0.00  0.00    +0.000 A 
ATOM      6  C   UNL     1       7.020   5.579  15.863  0.00  0.00    +0.000 A 
ATOM      7  C   UNL     1       6.437   4.400  15.406  0.00  0.00    +0.000 A 
ATOM      8  C   UNL     1       5.225   3.982  15.938  0.00  0.00    +0.000 A 
ATOM      9  C   UNL     1       4.628   4.733  16.954  0.00  0.00    +0.000 A 
ATOM     10  C   UNL     1       5.193   5.941  17.392  0.00  0.00    +0.000 A 
BRANCH   9  11
ATOM     11  S   UNL     1       3.188   4.071  17.759  0.00  0.00    +0.000 S 
ATOM     12  O   UNL     1       2.112   5.013  17.527  0.00  0.00    +0.000 OA
ATOM     13  O   UNL     1       3.064   2.688  17.366  0.00  0.00    +0.000 OA
BRANCH  11  14
ATOM     14  N   UNL     1       3.578   4.114  19.416  0.00  0.00    +0.000 NA
ATOM     15  C   UNL     1       3.496   2.832  20.185  0.00  0.00    +0.000 C 
ATOM     16  C   UNL     1       2.061   2.519  20.627  0.00  0.00    +0.000 C 
ATOM     17  O   UNL     1       1.495   3.600  21.380  0.00  0.00    +0.000 OA
ATOM     18  C   UNL     1       1.489   4.816  20.618  0.00  0.00    +0.000 C 
ATOM     19  C   UNL     1       2.907   5.210  20.190  0.00  0.00    +0.000 C 
ENDBRANCH  11  14
ENDBRANCH   9  11
ENDBRANCH   3   5
BRANCH   2  20
ATOM     20  C   UNL     1       8.344   9.240  18.313  0.00  0.00    +0.000 A 
ATOM     21  C   UNL     1       7.865  10.206  17.424  0.00  0.00    +0.000 A 
ATOM     22  C   UNL     1       8.329  11.516  17.497  0.00  0.00    +0.000 A 
ATOM     23  C   UNL     1       9.310  11.867  18.427  0.00  0.00    +0.000 A 
ATOM     24  C   UNL     1       9.796  10.883  19.305  0.00  0.00    +0.000 A 
ATOM     25  C   UNL     1       9.307   9.574  19.261  0.00  0.00    +0.000 A 
BRANCH  23  26
ATOM     26  N   UNL     1       9.840  13.176  18.451  0.00  0.00    +0.000 N 
ATOM     27  C   UNL     1       9.450  14.127  19.462  0.00  0.00    +0.000 C 
ATOM     28  C   UNL     1      10.121  15.412  19.033  0.00  0.00    +0.000 C 
ATOM     29  C   UNL     1      11.382  14.945  18.328  0.00  0.00    +0.000 C 
ATOM     30  C   UNL     1      11.000  13.592  17.784  0.00  0.00    +0.000 C 
ATOM     31  O   UNL     1      11.642  13.007  16.926  0.00  0.00    +0.000 OA
ENDBRANCH  23  26
ENDBRANCH   2  20
TORSDOF 5
ENDMDL
MODEL 8
REMARK VINA RESULT:      -8.5      5.487      8.495
REMARK  Name = 
REMARK  5 active torsions:
REMARK  status: ('A' for Active; 'I' for Inactive)
REMARK    1  A    between atoms: C_2  and  C_19
REMARK    2  A    between atoms: N_3  and  C_4
REMARK    3  A    between atoms: C_8  and  S_9
REMARK    4  A    between atoms: S_9  and  N_12
REMARK    5  A    between atoms: C_22  and  N_23
REMARK                            x       y       z     vdW  Elec       q    Type
REMARK                         _______ _______ _______ _____ _____    ______ ____
ROOT
ATOM      1  O   UNL     1       1.884   8.192  19.062  0.00  0.00    +0.000 OA
ATOM      2  C   UNL     1       1.485   8.056  20.212  0.00  0.00    +0.000 C 
ATOM      3  N   UNL     1       1.436   6.880  20.944  0.00  0.00    +0.000 N 
ATOM      4  H   UNL     1       0.889   6.877  21.796  0.00  0.00    +0.000 HD
ENDROOT
BRANCH   3   5
ATOM      5  C   UNL     1       1.839   5.624  20.431  0.00  0.00    +0.000 A 
ATOM      6  C   UNL     1       1.069   4.469  20.610  0.00  0.00    +0.000 A 
ATOM      7  C   UNL     1       1.544   3.215  20.238  0.00  0.00    +0.000 A 
ATOM      8  C   UNL     1       2.780   3.106  19.616  0.00  0.00    +0.000 A 
ATOM      9  C   UNL     1       3.511   4.263  19.338  0.00  0.00    +0.000 A 
ATOM     10  C   UNL     1       3.053   5.527  19.744  0.00  0.00    +0.000 A 
BRANCH   9  11
ATOM     11  S   UNL     1       4.988   4.116  18.361  0.00  0.00    +0.000 S 
ATOM     12  O   UNL     1       6.105   4.177  19.282  0.00  0.00    +0.000 OA
ATOM     13  O   UNL     1       4.817   2.990  17.474  0.00  0.00    +0.000 OA
BRANCH  11  14
ATOM     14  N   UNL     1       5.007   5.532  17.414  0.00  0.00    +0.000 NA
ATOM     15  C   UNL     1       5.132   5.377  15.931  0.00  0.00    +0.000 C 
ATOM     16  C   UNL     1       6.590   5.180  15.495  0.00  0.00    +0.000 C 
ATOM     17  O   UNL     1       7.429   6.242  15.968  0.00  0.00    +0.000 OA
ATOM     18  C   UNL     1       7.383   6.342  17.398  0.00  0.00    +0.000 C 
ATOM     19  C   UNL     1       5.955   6.593  17.892  0.00  0.00    +0.000 C 
ENDBRANCH  11  14
ENDBRANCH   9  11
ENDBRANCH   3   5
BRANCH   2  20
ATOM     20  C   UNL     1       0.925   9.260  20.859  0.00  0.00    +0.000 A 
ATOM     21  C   UNL     1       0.471   9.125  22.174  0.00  0.00    +0.000 A 
ATOM     22  C   UNL     1      -0.114  10.205  22.827  0.00  0.00    +0.000 A 
ATOM     23  C   UNL     1      -0.296  11.420  22.161  0.00  0.00    +0.000 A 
ATOM     24  C   UNL     1       0.151  11.539  20.833  0.00  0.00    +0.000 A 
ATOM     25  C   UNL     1       0.773  10.468  20.184  0.00  0.00    +0.000 A 
BRANCH  23  26
ATOM     26  N   UNL     1      -0.960  12.493  22.794  0.00  0.00    +0.000 N 
ATOM     27  C   UNL     1      -0.477  13.848  22.683  0.00  0.00    +0.000 C 
ATOM     28  C   UNL     1      -1.373  14.632  23.615  0.00  0.00    +0.000 C 
ATOM     29  C   UNL     1      -2.692  13.880  23.568  0.00  0.00    +0.000 C 
ATOM     30  C   UNL     1      -2.278  12.462  23.270  0.00  0.00    +0.000 C 
ATOM     31  O   UNL     1      -3.014  11.500  23.422  0.00  0.00    +0.000 OA
ENDBRANCH  23  26
ENDBRANCH   2  20
TORSDOF 5
ENDMDL
MODEL 9
REMARK VINA RESULT:      -8.3      1.030      1.473
REMARK  Name = 
REMARK  5 active torsions:
REMARK  status: ('A' for Active; 'I' for Inactive)
REMARK    1  A    between atoms: C_2  and  C_19
REMARK    2  A    between atoms: N_3  and  C_4
REMARK    3  A    between atoms: C_8  and  S_9
REMARK    4  A    between atoms: S_9  and  N_12
REMARK    5  A    between atoms: C_22  and  N_23
REMARK                            x       y       z     vdW  Elec       q    Type
REMARK                         _______ _______ _______ _____ _____    ______ ____
ROOT
ATOM      1  O   UNL     1       8.730   7.724  19.108  0.00  0.00    +0.000 OA
ATOM      2  C   UNL     1       8.232   8.454  18.259  0.00  0.00    +0.000 C 
ATOM      3  N   UNL     1       7.348   8.086  17.257  0.00  0.00    +0.000 N 
ATOM      4  H   UNL     1       7.189   8.744  16.503  0.00  0.00    +0.000 HD
ENDROOT
BRANCH   3   5
ATOM      5  C   UNL     1       6.900   6.758  17.062  0.00  0.00    +0.000 A 
ATOM      6  C   UNL     1       7.322   5.987  15.972  0.00  0.00    +0.000 A 
ATOM      7  C   UNL     1       6.760   4.742  15.703  0.00  0.00    +0.000 A 
ATOM      8  C   UNL     1       5.806   4.218  16.565  0.00  0.00    +0.000 A 
ATOM      9  C   UNL     1       5.454   4.934  17.712  0.00  0.00    +0.000 A 
ATOM     10  C   UNL     1       5.990   6.206  17.968  0.00  0.00    +0.000 A 
BRANCH   9  11
ATOM     11  S   UNL     1       4.388   4.153  18.901  0.00  0.00    +0.000 S 
ATOM     12  O   UNL     1       5.086   2.974  19.374  0.00  0.00    +0.000 OA
ATOM     13  O   UNL     1       3.939   5.170  19.821  0.00  0.00    +0.000 OA
BRANCH  11  14
ATOM     14  N   UNL     1       3.045   3.641  17.988  0.00  0.00    +0.000 NA
ATOM     15  C   UNL     1       1.766   4.401  18.143  0.00  0.00    +0.000 C 
ATOM     16  C   UNL     1       0.977   3.952  19.379  0.00  0.00    +0.000 C 
ATOM     17  O   UNL     1       0.730   2.540  19.361  0.00  0.00    +0.000 OA
ATOM     18  C   UNL     1       1.957   1.799  19.301  0.00  0.00    +0.000 C 
ATOM     19  C   UNL     1       2.768   2.167  18.054  0.00  0.00    +0.000 C 
ENDBRANCH  11  14
ENDBRANCH   9  11
ENDBRANCH   3   5
BRANCH   2  20
ATOM     20  C   UNL     1       8.684   9.860  18.258  0.00  0.00    +0.000 A 
ATOM     21  C   UNL     1       9.738  10.193  19.114  0.00  0.00    +0.000 A 
ATOM     22  C   UNL     1      10.180  11.509  19.202  0.00  0.00    +0.000 A 
ATOM     23  C   UNL     1       9.547  12.518  18.471  0.00  0.00    +0.000 A 
ATOM     24  C   UNL     1       8.478  12.174  17.625  0.00  0.00    +0.000 A 
ATOM     25  C   UNL     1       8.053  10.847  17.505  0.00  0.00    +0.000 A 
BRANCH  23  26
ATOM     26  N   UNL     1       9.942  13.865  18.618  0.00  0.00    +0.000 N 
ATOM     27  C   UNL     1       9.594  14.628  19.791  0.00  0.00    +0.000 C 
ATOM     28  C   UNL     1      10.070  16.027  19.472  0.00  0.00    +0.000 C 
ATOM     29  C   UNL     1      11.268  15.804  18.566  0.00  0.00    +0.000 C 
ATOM     30  C   UNL     1      10.956  14.496  17.885  0.00  0.00    +0.000 C 
ATOM     31  O   UNL     1      11.535  14.104  16.885  0.00  0.00    +0.000 OA
ENDBRANCH  23  26
ENDBRANCH   2  20
TORSDOF 5
ENDMDL
