MODEL 1
REMARK VINA RESULT:      -8.9      0.000      0.000
REMARK  Name = 
REMARK  5 active torsions:
REMARK  status: ('A' for Active; 'I' for Inactive)
REMARK    1  A    between atoms: C_2  and  C_18
REMARK    2  A    between atoms: N_3  and  C_4
REMARK    3  A    between atoms: C_4  and  C_5
REMARK    4  A    between atoms: C_9  and  C_10
REMARK    5  A    between atoms: C_10  and  N_11
REMARK                            x       y       z     vdW  Elec       q    Type
REMARK                         _______ _______ _______ _____ _____    ______ ____
ROOT
ATOM      1  O   UNL     1       0.963   8.641  22.067  0.00  0.00    +0.000 OA
ATOM      2  C   UNL     1       1.154   8.579  20.866  0.00  0.00    +0.000 C 
ATOM      3  N   UNL     1       1.597   7.481  20.161  0.00  0.00    +0.000 N 
ATOM      4  H   UNL     1       1.587   7.553  19.145  0.00  0.00    +0.000 HD
ENDROOT
BRANCH   2   5
ATOM      5  C   UNL     1       1.077   9.811  19.987  0.00  0.00    +0.000 A 
ATOM      6  N   UNL     1       0.922  10.959  20.608  0.00  0.00    +0.000 NA
ATOM      7  N   UNL     1       0.246  11.950  19.912  0.00  0.00    +0.000 N 
ATOM      8  C   UNL     1      -0.779  11.442  19.063  0.00  0.00    +0.000 A 
ATOM      9  C   UNL     1      -2.084  11.909  19.133  0.00  0.00    +0.000 A 
ATOM     10  C   UNL     1      -3.073  11.289  18.361  0.00  0.00    +0.000 A 
ATOM     11  C   UNL     1      -2.746  10.264  17.460  0.00  0.00    +0.000 A 
ATOM     12  C   UNL     1      -1.433   9.811  17.355  0.00  0.00    +0.000 A 
ATOM     13  C   UNL     1      -0.487  10.379  18.198  0.00  0.00    +0.000 A 
ATOM     14  C   UNL     1       0.778   9.715  18.501  0.00  0.00    +0.000 A 
ATOM     15  O   UNL     1       1.487   9.136  17.697  0.00  0.00    +0.000 OA
ATOM     16  H   UNL     1       0.879  12.553  19.373  0.00  0.00    +0.000 HD
ENDBRANCH   2   5
BRANCH   3  17
ATOM     17  C   UNL     1       1.847   6.205  20.774  0.00  0.00    +0.000 C 
BRANCH  17  18
ATOM     18  C   UNL     1       2.063   5.112  19.755  0.00  0.00    +0.000 A 
ATOM     19  C   UNL     1       1.176   4.025  19.664  0.00  0.00    +0.000 A 
ATOM     20  C   UNL     1       1.321   3.069  18.657  0.00  0.00    +0.000 A 
ATOM     21  C   UNL     1       2.358   3.182  17.729  0.00  0.00    +0.000 A 
ATOM     22  C   UNL     1       3.266   4.245  17.810  0.00  0.00    +0.000 A 
ATOM     23  C   UNL     1       3.110   5.202  18.827  0.00  0.00    +0.000 A 
BRANCH  22  24
ATOM     24  C   UNL     1       4.358   4.401  16.775  0.00  0.00    +0.000 C 
BRANCH  24  25
ATOM     25  N   UNL     1       5.479   5.180  17.266  0.00  0.00    +0.000 N 
ATOM     26  C   UNL     1       6.435   4.664  18.214  0.00  0.00    +0.000 C 
ATOM     27  C   UNL     1       7.253   5.887  18.577  0.00  0.00    +0.000 C 
ATOM     28  C   UNL     1       7.249   6.712  17.296  0.00  0.00    +0.000 C 
ATOM     29  C   UNL     1       5.932   6.341  16.659  0.00  0.00    +0.000 C 
ATOM     30  O   UNL     1       5.400   6.938  15.734  0.00  0.00    +0.000 OA
ENDBRANCH  24  25
ENDBRANCH  22  24
ENDBRANCH  17  18
ENDBRANCH   3  17
TORSDOF 5
ENDMDL
MODEL 2
REMARK VINA RESULT:      -8.7      5.743      8.697
REMARK  Name = 
REMARK  5 active torsions:
REMARK  status: ('A' for Active; 'I' for Inactive)
REMARK    1  A    between atoms: C_2  and  C_18
REMARK    2  A    between atoms: N_3  and  C_4
REMARK    3  A    between atoms: C_4  and  C_5
REMARK    4  A    between atoms: C_9  and  C_10
REMARK    5  A    between atoms: C_10  and  N_11
REMARK                            x       y       z     vdW  Elec       q    Type
REMARK                         _______ _______ _______ _____ _____    ______ ____
ROOT
ATOM      1  O   UNL     1       8.669  11.638  17.713  0.00  0.00    +0.000 OA
ATOM      2  C   UNL     1       9.023  10.759  18.479  0.00  0.00    +0.000 C 
ATOM      3  N   UNL     1       8.628   9.440  18.455  0.00  0.00    +0.000 N 
ATOM      4  H   UNL     1       9.111   8.804  19.088  0.00  0.00    +0.000 HD
ENDROOT
BRANCH   2   5
ATOM      5  C   UNL     1       9.858  11.069  19.706  0.00  0.00    +0.000 A 
ATOM      6  N   UNL     1       9.234  11.018  20.861  0.00  0.00    +0.000 NA
ATOM      7  N   UNL     1       9.715  11.851  21.859  0.00  0.00    +0.000 N 
ATOM      8  C   UNL     1      10.224  13.087  21.365  0.00  0.00    +0.000 A 
ATOM      9  C   UNL     1       9.783  14.308  21.858  0.00  0.00    +0.000 A 
ATOM     10  C   UNL     1      10.226  15.488  21.250  0.00  0.00    +0.000 A 
ATOM     11  C   UNL     1      11.171  15.454  20.213  0.00  0.00    +0.000 A 
ATOM     12  C   UNL     1      11.646  14.236  19.734  0.00  0.00    +0.000 A 
ATOM     13  C   UNL     1      11.122  13.076  20.290  0.00  0.00    +0.000 A 
ATOM     14  C   UNL     1      11.192  11.789  19.604  0.00  0.00    +0.000 A 
ATOM     15  O   UNL     1      12.159  11.354  19.006  0.00  0.00    +0.000 OA
ATOM     16  H   UNL     1      10.423  11.393  22.447  0.00  0.00    +0.000 HD
ENDBRANCH   2   5
BRANCH   3  17
ATOM     17  C   UNL     1       7.753   8.902  17.448  0.00  0.00    +0.000 C 
BRANCH  17  18
ATOM     18  C   UNL     1       7.358   7.474  17.736  0.00  0.00    +0.000 A 
ATOM     19  C   UNL     1       8.101   6.687  18.633  0.00  0.00    +0.000 A 
ATOM     20  C   UNL     1       7.678   5.401  18.972  0.00  0.00    +0.000 A 
ATOM     21  C   UNL     1       6.508   4.879  18.416  0.00  0.00    +0.000 A 
ATOM     22  C   UNL     1       5.760   5.637  17.505  0.00  0.00    +0.000 A 
ATOM     23  C   UNL     1       6.195   6.930  17.171  0.00  0.00    +0.000 A 
BRANCH  22  24
ATOM     24  C   UNL     1       4.465   5.097  16.942  0.00  0.00    +0.000 C 
BRANCH  24  25
ATOM     25  N   UNL     1       3.460   4.884  17.967  0.00  0.00    +0.000 N 
ATOM     26  C   UNL     1       3.229   5.818  19.041  0.00  0.00    +0.000 C 
ATOM     27  C   UNL     1       2.275   5.068  19.948  0.00  0.00    +0.000 C 
ATOM     28  C   UNL     1       1.460   4.216  18.983  0.00  0.00    +0.000 C 
ATOM     29  C   UNL     1       2.429   3.966  17.852  0.00  0.00    +0.000 C 
ATOM     30  O   UNL     1       2.285   3.134  16.969  0.00  0.00    +0.000 OA
ENDBRANCH  24  25
ENDBRANCH  22  24
ENDBRANCH  17  18
ENDBRANCH   3  17
TORSDOF 5
ENDMDL
MODEL 3
REMARK VINA RESULT:      -8.5      2.226      8.307
REMARK  Name = 
REMARK  5 active torsions:
REMARK  status: ('A' for Active; 'I' for Inactive)
REMARK    1  A    between atoms: C_2  and  C_18
REMARK    2  A    between atoms: N_3  and  C_4
REMARK    3  A    between atoms: C_4  and  C_5
REMARK    4  A    between atoms: C_9  and  C_10
REMARK    5  A    between atoms: C_10  and  N_11
REMARK                            x       y       z     vdW  Elec       q    Type
REMARK                         _______ _______ _______ _____ _____    ______ ____
ROOT
ATOM      1  O   UNL     1       5.193   6.906  16.042  0.00  0.00    +0.000 OA
ATOM      2  C   UNL     1       4.586   6.382  16.959  0.00  0.00    +0.000 C 
ATOM      3  N   UNL     1       3.606   6.962  17.734  0.00  0.00    +0.000 N 
ATOM      4  H   UNL     1       3.109   6.350  18.380  0.00  0.00    +0.000 HD
ENDROOT
BRANCH   2   5
ATOM      5  C   UNL     1       4.974   5.013  17.483  0.00  0.00    +0.000 A 
ATOM      6  N   UNL     1       5.010   4.042  16.600  0.00  0.00    +0.000 NA
ATOM      7  N   UNL     1       4.735   2.767  17.073  0.00  0.00    +0.000 N 
ATOM      8  C   UNL     1       3.775   2.752  18.125  0.00  0.00    +0.000 A 
ATOM      9  C   UNL     1       2.637   1.959  18.065  0.00  0.00    +0.000 A 
ATOM     10  C   UNL     1       1.670   2.077  19.069  0.00  0.00    +0.000 A 
ATOM     11  C   UNL     1       1.875   2.920  20.172  0.00  0.00    +0.000 A 
ATOM     12  C   UNL     1       3.028   3.695  20.260  0.00  0.00    +0.000 A 
ATOM     13  C   UNL     1       3.931   3.630  19.206  0.00  0.00    +0.000 A 
ATOM     14  C   UNL     1       4.916   4.680  18.965  0.00  0.00    +0.000 A 
ATOM     15  O   UNL     1       5.581   5.240  19.817  0.00  0.00    +0.000 OA
ATOM     16  H   UNL     1       5.582   2.265  17.366  0.00  0.00    +0.000 HD
ENDBRANCH   2   5
BRANCH   3  17
ATOM     17  C   UNL     1       3.120   8.297  17.513  0.00  0.00    +0.000 C 
BRANCH  17  18
ATOM     18  C   UNL     1       2.043   8.685  18.497  0.00  0.00    +0.000 A 
ATOM     19  C   UNL     1       1.942   8.047  19.745  0.00  0.00    +0.000 A 
ATOM     20  C   UNL     1       1.009   8.474  20.692  0.00  0.00    +0.000 A 
ATOM     21  C   UNL     1       0.159   9.544  20.403  0.00  0.00    +0.000 A 
ATOM     22  C   UNL     1       0.228  10.185  19.159  0.00  0.00    +0.000 A 
ATOM     23  C   UNL     1       1.170   9.746  18.215  0.00  0.00    +0.000 A 
BRANCH  22  24
ATOM     24  C   UNL     1      -0.653  11.378  18.863  0.00  0.00    +0.000 C 
BRANCH  24  25
ATOM     25  N   UNL     1      -1.839  11.016  18.107  0.00  0.00    +0.000 N 
ATOM     26  C   UNL     1      -1.860   9.934  17.155  0.00  0.00    +0.000 C 
ATOM     27  C   UNL     1      -3.208  10.094  16.484  0.00  0.00    +0.000 C 
ATOM     28  C   UNL     1      -4.093  10.658  17.589  0.00  0.00    +0.000 C 
ATOM     29  C   UNL     1      -3.117  11.435  18.439  0.00  0.00    +0.000 C 
ATOM     30  O   UNL     1      -3.421  12.246  19.302  0.00  0.00    +0.000 OA
ENDBRANCH  24  25
ENDBRANCH  22  24
ENDBRANCH  17  18
ENDBRANCH   3  17
TORSDOF 5
ENDMDL
MODEL 4
REMARK VINA RESULT:      -8.3      5.708      8.637
REMARK  Name = 
REMARK  5 active torsions:
REMARK  status: ('A' for Active; 'I' for Inactive)
REMARK    1  A    between atoms: C_2  and  C_18
REMARK    2  A    between atoms: N_3  and  C_4
REMARK    3  A    between atoms: C_4  and  C_5
REMARK    4  A    between atoms: C_9  and  C_10
REMARK    5  A    between atoms: C_10  and  N_11
REMARK                            x       y       z     vdW  Elec       q    Type
REMARK                         _______ _______ _______ _____ _____    ______ ____
ROOT
ATOM      1  O   UNL     1       8.605  11.647  17.772  0.00  0.00    +0.000 OA
ATOM      2  C   UNL     1       9.006  10.776  18.523  0.00  0.00    +0.000 C 
ATOM      3  N   UNL     1       8.687   9.437  18.473  0.00  0.00    +0.000 N 
ATOM      4  H   UNL     1       9.203   8.818  19.097  0.00  0.00    +0.000 HD
ENDROOT
BRANCH   2   5
ATOM      5  C   UNL     1       9.818  11.110  19.759  0.00  0.00    +0.000 A 
ATOM      6  N   UNL     1       9.176  11.066  20.905  0.00  0.00    +0.000 NA
ATOM      7  N   UNL     1       9.633  11.917  21.900  0.00  0.00    +0.000 N 
ATOM      8  C   UNL     1      10.135  13.152  21.399  0.00  0.00    +0.000 A 
ATOM      9  C   UNL     1       9.672  14.374  21.869  0.00  0.00    +0.000 A 
ATOM     10  C   UNL     1      10.111  15.551  21.254  0.00  0.00    +0.000 A 
ATOM     11  C   UNL     1      11.072  15.516  20.232  0.00  0.00    +0.000 A 
ATOM     12  C   UNL     1      11.569  14.298  19.775  0.00  0.00    +0.000 A 
ATOM     13  C   UNL     1      11.050  13.139  20.338  0.00  0.00    +0.000 A 
ATOM     14  C   UNL     1      11.145  11.844  19.668  0.00  0.00    +0.000 A 
ATOM     15  O   UNL     1      12.126  11.413  19.091  0.00  0.00    +0.000 OA
ATOM     16  H   UNL     1      10.336  11.474  22.504  0.00  0.00    +0.000 HD
ENDBRANCH   2   5
BRANCH   3  17
ATOM     17  C   UNL     1       7.847   8.869  17.454  0.00  0.00    +0.000 C 
BRANCH  17  18
ATOM     18  C   UNL     1       7.358   7.488  17.818  0.00  0.00    +0.000 A 
ATOM     19  C   UNL     1       8.094   6.668  18.690  0.00  0.00    +0.000 A 
ATOM     20  C   UNL     1       7.592   5.433  19.103  0.00  0.00    +0.000 A 
ATOM     21  C   UNL     1       6.347   4.996  18.646  0.00  0.00    +0.000 A 
ATOM     22  C   UNL     1       5.602   5.786  17.761  0.00  0.00    +0.000 A 
ATOM     23  C   UNL     1       6.117   7.027  17.353  0.00  0.00    +0.000 A 
BRANCH  22  24
ATOM     24  C   UNL     1       4.230   5.341  17.306  0.00  0.00    +0.000 C 
BRANCH  24  25
ATOM     25  N   UNL     1       3.263   5.330  18.389  0.00  0.00    +0.000 N 
ATOM     26  C   UNL     1       3.045   4.181  19.230  0.00  0.00    +0.000 C 
ATOM     27  C   UNL     1       1.821   4.571  20.033  0.00  0.00    +0.000 C 
ATOM     28  C   UNL     1       1.957   6.082  20.179  0.00  0.00    +0.000 C 
ATOM     29  C   UNL     1       2.701   6.477  18.926  0.00  0.00    +0.000 C 
ATOM     30  O   UNL     1       2.822   7.618  18.506  0.00  0.00    +0.000 OA
ENDBRANCH  24  25
ENDBRANCH  22  24
ENDBRANCH  17  18
ENDBRANCH   3  17
TORSDOF 5
ENDMDL
MODEL 5
REMARK VINA RESULT:      -8.3      2.057      8.085
REMARK  Name = 
REMARK  5 active torsions:
REMARK  status: ('A' for Active; 'I' for Inactive)
REMARK    1  A    between atoms: C_2  and  C_18
REMARK    2  A    between atoms: N_3  and  C_4
REMARK    3  A    between atoms: C_4  and  C_5
REMARK    4  A    between atoms: C_9  and  C_10
REMARK    5  A    between atoms: C_10  and  N_11
REMARK                            x       y       z     vdW  Elec       q    Type
REMARK                         _______ _______ _______ _____ _____    ______ ____
ROOT
ATOM      1  O   UNL     1       2.590   5.110  20.679  0.00  0.00    +0.000 OA
ATOM      2  C   UNL     1       2.480   6.040  19.900  0.00  0.00    +0.000 C 
ATOM      3  N   UNL     1       1.937   7.277  20.169  0.00  0.00    +0.000 N 
ATOM      4  H   UNL     1       2.032   7.988  19.444  0.00  0.00    +0.000 HD
ENDROOT
BRANCH   2   5
ATOM      5  C   UNL     1       2.798   5.879  18.427  0.00  0.00    +0.000 A 
ATOM      6  N   UNL     1       2.686   4.665  17.937  0.00  0.00    +0.000 NA
ATOM      7  N   UNL     1       3.515   4.350  16.871  0.00  0.00    +0.000 N 
ATOM      8  C   UNL     1       4.787   4.988  16.940  0.00  0.00    +0.000 A 
ATOM      9  C   UNL     1       5.971   4.267  16.857  0.00  0.00    +0.000 A 
ATOM     10  C   UNL     1       7.187   4.930  17.054  0.00  0.00    +0.000 A 
ATOM     11  C   UNL     1       7.228   6.320  17.247  0.00  0.00    +0.000 A 
ATOM     12  C   UNL     1       6.048   7.058  17.298  0.00  0.00    +0.000 A 
ATOM     13  C   UNL     1       4.850   6.365  17.192  0.00  0.00    +0.000 A 
ATOM     14  C   UNL     1       3.586   6.928  17.660  0.00  0.00    +0.000 A 
ATOM     15  O   UNL     1       3.216   8.076  17.497  0.00  0.00    +0.000 OA
ATOM     16  H   UNL     1       3.077   4.543  15.962  0.00  0.00    +0.000 HD
ENDBRANCH   2   5
BRANCH   3  17
ATOM     17  C   UNL     1       1.461   7.658  21.471  0.00  0.00    +0.000 C 
BRANCH  17  18
ATOM     18  C   UNL     1       0.607   8.902  21.427  0.00  0.00    +0.000 A 
ATOM     19  C   UNL     1       0.098   9.470  22.608  0.00  0.00    +0.000 A 
ATOM     20  C   UNL     1      -0.608  10.674  22.574  0.00  0.00    +0.000 A 
ATOM     21  C   UNL     1      -0.822  11.326  21.357  0.00  0.00    +0.000 A 
ATOM     22  C   UNL     1      -0.341  10.771  20.165  0.00  0.00    +0.000 A 
ATOM     23  C   UNL     1       0.369   9.559  20.211  0.00  0.00    +0.000 A 
BRANCH  22  24
ATOM     24  C   UNL     1      -0.523  11.499  18.853  0.00  0.00    +0.000 C 
BRANCH  24  25
ATOM     25  N   UNL     1      -1.657  11.002  18.095  0.00  0.00    +0.000 N 
ATOM     26  C   UNL     1      -1.567   9.869  17.208  0.00  0.00    +0.000 C 
ATOM     27  C   UNL     1      -2.907   9.882  16.500  0.00  0.00    +0.000 C 
ATOM     28  C   UNL     1      -3.861  10.435  17.551  0.00  0.00    +0.000 C 
ATOM     29  C   UNL     1      -2.972  11.334  18.375  0.00  0.00    +0.000 C 
ATOM     30  O   UNL     1      -3.361  12.166  19.182  0.00  0.00    +0.000 OA
ENDBRANCH  24  25
ENDBRANCH  22  24
ENDBRANCH  17  18
ENDBRANCH   3  17
TORSDOF 5
ENDMDL
MODEL 6
REMARK VINA RESULT:      -8.2      2.345      8.023
REMARK  Name = 
REMARK  5 active torsions:
REMARK  status: ('A' for Active; 'I' for Inactive)
REMARK    1  A    between atoms: C_2  and  C_18
REMARK    2  A    between atoms: N_3  and  C_4
REMARK    3  A    between atoms: C_4  and  C_5
REMARK    4  A    between atoms: C_9  and  C_10
REMARK    5  A    between atoms: C_10  and  N_11
REMARK                            x       y       z     vdW  Elec       q    Type
REMARK                         _______ _______ _______ _____ _____    ______ ____
ROOT
ATOM      1  O   UNL     1       1.242   4.051  20.504  0.00  0.00    +0.000 OA
ATOM      2  C   UNL     1       2.244   4.618  20.105  0.00  0.00    +0.000 C 
ATOM      3  N   UNL     1       2.521   5.964  20.207  0.00  0.00    +0.000 N 
ATOM      4  H   UNL     1       3.457   6.261  19.935  0.00  0.00    +0.000 HD
ENDROOT
BRANCH   2   5
ATOM      5  C   UNL     1       3.279   3.897  19.265  0.00  0.00    +0.000 A 
ATOM      6  N   UNL     1       4.292   3.371  19.916  0.00  0.00    +0.000 NA
ATOM      7  N   UNL     1       5.491   3.285  19.225  0.00  0.00    +0.000 N 
ATOM      8  C   UNL     1       5.697   4.362  18.315  0.00  0.00    +0.000 A 
ATOM      9  C   UNL     1       6.850   5.134  18.345  0.00  0.00    +0.000 A 
ATOM     10  C   UNL     1       6.943   6.253  17.512  0.00  0.00    +0.000 A 
ATOM     11  C   UNL     1       5.927   6.554  16.592  0.00  0.00    +0.000 A 
ATOM     12  C   UNL     1       4.780   5.767  16.529  0.00  0.00    +0.000 A 
ATOM     13  C   UNL     1       4.670   4.715  17.430  0.00  0.00    +0.000 A 
ATOM     14  C   UNL     1       3.381   4.114  17.764  0.00  0.00    +0.000 A 
ATOM     15  O   UNL     1       2.495   3.848  16.974  0.00  0.00    +0.000 OA
ATOM     16  H   UNL     1       5.598   2.389  18.733  0.00  0.00    +0.000 HD
ENDBRANCH   2   5
BRANCH   3  17
ATOM     17  C   UNL     1       1.651   6.895  20.872  0.00  0.00    +0.000 C 
BRANCH  17  18
ATOM     18  C   UNL     1       1.515   8.194  20.114  0.00  0.00    +0.000 A 
ATOM     19  C   UNL     1       1.967   8.306  18.788  0.00  0.00    +0.000 A 
ATOM     20  C   UNL     1       1.751   9.476  18.058  0.00  0.00    +0.000 A 
ATOM     21  C   UNL     1       1.085  10.554  18.644  0.00  0.00    +0.000 A 
ATOM     22  C   UNL     1       0.642  10.474  19.970  0.00  0.00    +0.000 A 
ATOM     23  C   UNL     1       0.864   9.292  20.696  0.00  0.00    +0.000 A 
BRANCH  22  24
ATOM     24  C   UNL     1      -0.127  11.618  20.592  0.00  0.00    +0.000 C 
BRANCH  24  25
ATOM     25  N   UNL     1       0.276  12.909  20.062  0.00  0.00    +0.000 N 
ATOM     26  C   UNL     1      -0.591  13.726  19.251  0.00  0.00    +0.000 C 
ATOM     27  C   UNL     1       0.329  14.829  18.769  0.00  0.00    +0.000 C 
ATOM     28  C   UNL     1       1.311  15.003  19.921  0.00  0.00    +0.000 C 
ATOM     29  C   UNL     1       1.368  13.622  20.528  0.00  0.00    +0.000 C 
ATOM     30  O   UNL     1       2.207  13.236  21.329  0.00  0.00    +0.000 OA
ENDBRANCH  24  25
ENDBRANCH  22  24
ENDBRANCH  17  18
ENDBRANCH   3  17
TORSDOF 5
ENDMDL
MODEL 7
REMARK VINA RESULT:      -8.2      2.177      8.135
REMARK  Name = 
REMARK  5 active torsions:
REMARK  status: ('A' for Active; 'I' for Inactive)
REMARK    1  A    between atoms: C_2  and  C_18
REMARK    2  A    between atoms: N_3  and  C_4
REMARK    3  A    between atoms: C_4  and  C_5
REMARK    4  A    between atoms: C_9  and  C_10
REMARK    5  A    between atoms: C_10  and  N_11
REMARK                            x       y       z     vdW  Elec       q    Type
REMARK                         _______ _______ _______ _____ _____    ______ ____
ROOT
ATOM      1  O   UNL     1       4.934   6.982  16.188  0.00  0.00    +0.000 OA
ATOM      2  C   UNL     1       4.372   6.399  17.098  0.00  0.00    +0.000 C 
ATOM      3  N   UNL     1       3.382   6.905  17.911  0.00  0.00    +0.000 N 
ATOM      4  H   UNL     1       2.928   6.248  18.545  0.00  0.00    +0.000 HD
ENDROOT
BRANCH   2   5
ATOM      5  C   UNL     1       4.836   5.034  17.568  0.00  0.00    +0.000 A 
ATOM      6  N   UNL     1       4.850   4.082  16.663  0.00  0.00    +0.000 NA
ATOM      7  N   UNL     1       4.646   2.790  17.124  0.00  0.00    +0.000 N 
ATOM      8  C   UNL     1       3.753   2.721  18.233  0.00  0.00    +0.000 A 
ATOM      9  C   UNL     1       2.641   1.891  18.225  0.00  0.00    +0.000 A 
ATOM     10  C   UNL     1       1.734   1.957  19.289  0.00  0.00    +0.000 A 
ATOM     11  C   UNL     1       1.979   2.785  20.395  0.00  0.00    +0.000 A 
ATOM     12  C   UNL     1       3.110   3.597  20.429  0.00  0.00    +0.000 A 
ATOM     13  C   UNL     1       3.947   3.582  19.322  0.00  0.00    +0.000 A 
ATOM     14  C   UNL     1       4.881   4.670  19.043  0.00  0.00    +0.000 A 
ATOM     15  O   UNL     1       5.579   5.236  19.865  0.00  0.00    +0.000 OA
ATOM     16  H   UNL     1       5.525   2.311  17.355  0.00  0.00    +0.000 HD
ENDBRANCH   2   5
BRANCH   3  17
ATOM     17  C   UNL     1       2.827   8.221  17.744  0.00  0.00    +0.000 C 
BRANCH  17  18
ATOM     18  C   UNL     1       1.857   8.577  18.845  0.00  0.00    +0.000 A 
ATOM     19  C   UNL     1       1.840   7.859  20.053  0.00  0.00    +0.000 A 
ATOM     20  C   UNL     1       1.011   8.253  21.105  0.00  0.00    +0.000 A 
ATOM     21  C   UNL     1       0.182   9.368  20.963  0.00  0.00    +0.000 A 
ATOM     22  C   UNL     1       0.167  10.089  19.763  0.00  0.00    +0.000 A 
ATOM     23  C   UNL     1       1.005   9.683  18.711  0.00  0.00    +0.000 A 
BRANCH  22  24
ATOM     24  C   UNL     1      -0.689  11.327  19.624  0.00  0.00    +0.000 C 
BRANCH  24  25
ATOM     25  N   UNL     1       0.094  12.549  19.659  0.00  0.00    +0.000 N 
ATOM     26  C   UNL     1       0.269  13.398  18.508  0.00  0.00    +0.000 C 
ATOM     27  C   UNL     1       1.316  14.391  18.971  0.00  0.00    +0.000 C 
ATOM     28  C   UNL     1       1.038  14.534  20.462  0.00  0.00    +0.000 C 
ATOM     29  C   UNL     1       0.470  13.185  20.831  0.00  0.00    +0.000 C 
ATOM     30  O   UNL     1       0.326  12.766  21.970  0.00  0.00    +0.000 OA
ENDBRANCH  24  25
ENDBRANCH  22  24
ENDBRANCH  17  18
ENDBRANCH   3  17
TORSDOF 5
ENDMDL
MODEL 8
REMARK VINA RESULT:      -8.2      2.231      8.249
REMARK  Name = 
REMARK  5 active torsions:
REMARK  status: ('A' for Active; 'I' for Inactive)
REMARK    1  A    between atoms: C_2  and  C_18
REMARK    2  A    between atoms: N_3  and  C_4
REMARK    3  A    between atoms: C_4  and  C_5
REMARK    4  A    between atoms: C_9  and  C_10
REMARK    5  A    between atoms: C_10  and  N_11
REMARK                            x       y       z     vdW  Elec       q    Type
REMARK                         _______ _______ _______ _____ _____    ______ ____
ROOT
ATOM      1  O   UNL     1       4.705   6.810  16.168  0.00  0.00    +0.000 OA
ATOM      2  C   UNL     1       4.064   6.400  17.120  0.00  0.00    +0.000 C 
ATOM      3  N   UNL     1       3.196   7.130  17.901  0.00  0.00    +0.000 N 
ATOM      4  H   UNL     1       2.643   6.611  18.582  0.00  0.00    +0.000 HD
ENDROOT
BRANCH   2   5
ATOM      5  C   UNL     1       4.284   5.009  17.681  0.00  0.00    +0.000 A 
ATOM      6  N   UNL     1       4.058   4.009  16.861  0.00  0.00    +0.000 NA
ATOM      7  N   UNL     1       3.637   2.820  17.438  0.00  0.00    +0.000 N 
ATOM      8  C   UNL     1       2.819   3.011  18.589  0.00  0.00    +0.000 A 
ATOM      9  C   UNL     1       1.569   2.419  18.703  0.00  0.00    +0.000 A 
ATOM     10  C   UNL     1       0.760   2.740  19.798  0.00  0.00    +0.000 A 
ATOM     11  C   UNL     1       1.228   3.583  20.818  0.00  0.00    +0.000 A 
ATOM     12  C   UNL     1       2.495   4.156  20.731  0.00  0.00    +0.000 A 
ATOM     13  C   UNL     1       3.243   3.895  19.591  0.00  0.00    +0.000 A 
ATOM     14  C   UNL     1       4.350   4.754  19.178  0.00  0.00    +0.000 A 
ATOM     15  O   UNL     1       5.193   5.229  19.916  0.00  0.00    +0.000 OA
ATOM     16  H   UNL     1       4.420   2.196  17.667  0.00  0.00    +0.000 HD
ENDBRANCH   2   5
BRANCH   3  17
ATOM     17  C   UNL     1       2.884   8.510  17.646  0.00  0.00    +0.000 C 
BRANCH  17  18
ATOM     18  C   UNL     1       1.783   9.024  18.542  0.00  0.00    +0.000 A 
ATOM     19  C   UNL     1       1.527   8.424  19.787  0.00  0.00    +0.000 A 
ATOM     20  C   UNL     1       0.576   8.962  20.656  0.00  0.00    +0.000 A 
ATOM     21  C   UNL     1      -0.138  10.105  20.292  0.00  0.00    +0.000 A 
ATOM     22  C   UNL     1       0.085  10.711  19.049  0.00  0.00    +0.000 A 
ATOM     23  C   UNL     1       1.045  10.161  18.182  0.00  0.00    +0.000 A 
BRANCH  22  24
ATOM     24  C   UNL     1      -0.646  11.979  18.672  0.00  0.00    +0.000 C 
BRANCH  24  25
ATOM     25  N   UNL     1      -2.080  11.781  18.563  0.00  0.00    +0.000 N 
ATOM     26  C   UNL     1      -3.025  12.392  19.464  0.00  0.00    +0.000 C 
ATOM     27  C   UNL     1      -4.333  11.722  19.096  0.00  0.00    +0.000 C 
ATOM     28  C   UNL     1      -4.190  11.455  17.603  0.00  0.00    +0.000 C 
ATOM     29  C   UNL     1      -2.701  11.272  17.434  0.00  0.00    +0.000 C 
ATOM     30  O   UNL     1      -2.154  10.807  16.445  0.00  0.00    +0.000 OA
ENDBRANCH  24  25
ENDBRANCH  22  24
ENDBRANCH  17  18
ENDBRANCH   3  17
TORSDOF 5
ENDMDL
MODEL 9
REMARK VINA RESULT:      -8.1      2.457      7.863
REMARK  Name = 
REMARK  5 active torsions:
REMARK  status: ('A' for Active; 'I' for Inactive)
REMARK    1  A    between atoms: C_2  and  C_18
REMARK    2  A    between atoms: N_3  and  C_4
REMARK    3  A    between atoms: C_4  and  C_5
REMARK    4  A    between atoms: C_9  and  C_10
REMARK    5  A    between atoms: C_10  and  N_11
REMARK                            x       y       z     vdW  Elec       q    Type
REMARK                         _______ _______ _______ _____ _____    ______ ____
ROOT
ATOM      1  O   UNL     1       5.143   6.794  17.451  0.00  0.00    +0.000 OA
ATOM      2  C   UNL     1       4.099   6.193  17.628  0.00  0.00    +0.000 C 
ATOM      3  N   UNL     1       2.867   6.747  17.896  0.00  0.00    +0.000 N 
ATOM      4  H   UNL     1       2.068   6.113  17.895  0.00  0.00    +0.000 HD
ENDROOT
BRANCH   2   5
ATOM      5  C   UNL     1       4.066   4.681  17.739  0.00  0.00    +0.000 A 
ATOM      6  N   UNL     1       3.301   4.052  16.877  0.00  0.00    +0.000 NA
ATOM      7  N   UNL     1       2.758   2.847  17.298  0.00  0.00    +0.000 N 
ATOM      8  C   UNL     1       2.452   2.823  18.689  0.00  0.00    +0.000 A 
ATOM      9  C   UNL     1       1.190   2.479  19.154  0.00  0.00    +0.000 A 
ATOM     10  C   UNL     1       0.912   2.592  20.521  0.00  0.00    +0.000 A 
ATOM     11  C   UNL     1       1.913   2.965  21.431  0.00  0.00    +0.000 A 
ATOM     12  C   UNL     1       3.193   3.280  20.980  0.00  0.00    +0.000 A 
ATOM     13  C   UNL     1       3.418   3.249  19.610  0.00  0.00    +0.000 A 
ATOM     14  C   UNL     1       4.534   3.962  18.994  0.00  0.00    +0.000 A 
ATOM     15  O   UNL     1       5.672   4.010  19.424  0.00  0.00    +0.000 OA
ATOM     16  H   UNL     1       3.351   2.043  17.058  0.00  0.00    +0.000 HD
ENDBRANCH   2   5
BRANCH   3  17
ATOM     17  C   UNL     1       2.640   8.166  17.950  0.00  0.00    +0.000 C 
BRANCH  17  18
ATOM     18  C   UNL     1       1.769   8.564  19.117  0.00  0.00    +0.000 A 
ATOM     19  C   UNL     1       1.801   7.839  20.321  0.00  0.00    +0.000 A 
ATOM     20  C   UNL     1       1.070   8.268  21.430  0.00  0.00    +0.000 A 
ATOM     21  C   UNL     1       0.291   9.424  21.351  0.00  0.00    +0.000 A 
ATOM     22  C   UNL     1       0.228  10.153  20.157  0.00  0.00    +0.000 A 
ATOM     23  C   UNL     1       0.969   9.713  19.047  0.00  0.00    +0.000 A 
BRANCH  22  24
ATOM     24  C   UNL     1      -0.571  11.435  20.082  0.00  0.00    +0.000 C 
BRANCH  24  25
ATOM     25  N   UNL     1       0.270  12.601  19.882  0.00  0.00    +0.000 N 
ATOM     26  C   UNL     1       1.456  12.853  20.661  0.00  0.00    +0.000 C 
ATOM     27  C   UNL     1       1.846  14.257  20.248  0.00  0.00    +0.000 C 
ATOM     28  C   UNL     1       1.398  14.339  18.793  0.00  0.00    +0.000 C 
ATOM     29  C   UNL     1       0.218  13.399  18.750  0.00  0.00    +0.000 C 
ATOM     30  O   UNL     1      -0.598  13.330  17.843  0.00  0.00    +0.000 OA
ENDBRANCH  24  25
ENDBRANCH  22  24
ENDBRANCH  17  18
ENDBRANCH   3  17
TORSDOF 5
ENDMDL
