MODEL 1
REMARK VINA RESULT:      -8.2      0.000      0.000
REMARK  Name = 
REMARK  3 active torsions:
REMARK  status: ('A' for Active; 'I' for Inactive)
REMARK    1  A    between atoms: C_2  and  C_14
REMARK    2  A    between atoms: N_3  and  C_4
REMARK    3  A    between atoms: N_18  and  C_19
REMARK                            x       y       z     vdW  Elec       q    Type
REMARK                         _______ _______ _______ _____ _____    ______ ____
ROOT
ATOM      1  C   UNL     1       2.010   9.132  20.002  0.00  0.00    +0.000 C 
ATOM      2  C   UNL     1       1.355   8.457  21.203  0.00  0.00    +0.000 C 
ATOM      3  C   UNL     1      -0.070   8.959  21.156  0.00  0.00    +0.000 C 
ATOM      4  O   UNL     1      -1.000   8.435  21.748  0.00  0.00    +0.000 OA
ATOM      5  N   UNL     1      -0.101  10.050  20.288  0.00  0.00    +0.000 N 
ATOM      6  C   UNL     1       1.211  10.405  19.805  0.00  0.00    +0.000 C 
ENDROOT
BRANCH   5   7
ATOM      7  C   UNL     1      -1.238  10.836  20.005  0.00  0.00    +0.000 A 
ATOM      8  C   UNL     1      -1.663  11.733  20.997  0.00  0.00    +0.000 A 
ATOM      9  C   UNL     1      -2.737  12.585  20.764  0.00  0.00    +0.000 A 
ATOM     10  C   UNL     1      -3.416  12.526  19.551  0.00  0.00    +0.000 A 
ATOM     11  C   UNL     1      -3.041  11.610  18.557  0.00  0.00    +0.000 A 
ATOM     12  C   UNL     1      -3.768  11.538  17.358  0.00  0.00    +0.000 A 
ATOM     13  C   UNL     1      -3.438  10.612  16.369  0.00  0.00    +0.000 A 
ATOM     14  C   UNL     1      -2.378   9.739  16.571  0.00  0.00    +0.000 A 
ATOM     15  C   UNL     1      -1.640   9.805  17.754  0.00  0.00    +0.000 A 
ATOM     16  C   UNL     1      -1.937  10.745  18.770  0.00  0.00    +0.000 A 
ENDBRANCH   5   7
BRANCH   1  18
ATOM     17  O   UNL     1       1.564   8.660  17.690  0.00  0.00    +0.000 OA
ATOM     18  C   UNL     1       1.973   8.240  18.768  0.00  0.00    +0.000 C 
ATOM     19  N   UNL     1       2.444   6.963  18.948  0.00  0.00    +0.000 N 
ATOM     20  H   UNL     1       2.731   6.661  19.871  0.00  0.00    +0.000 HD
BRANCH  19  21
ATOM     21  C   UNL     1       2.512   5.961  17.891  0.00  0.00    +0.000 C 
ATOM     22  C   UNL     1       1.911   4.635  18.364  0.00  0.00    +0.000 C 
ATOM     23  C   UNL     1       2.331   3.539  17.407  0.00  0.00    +0.000 C 
ATOM     24  O   UNL     1       3.742   3.331  17.466  0.00  0.00    +0.000 OA
ATOM     25  C   UNL     1       4.474   4.476  17.288  0.00  0.00    +0.000 A 
ATOM     26  C   UNL     1       5.819   4.289  16.964  0.00  0.00    +0.000 A 
ATOM     27  C   UNL     1       6.645   5.389  16.742  0.00  0.00    +0.000 A 
ATOM     28  C   UNL     1       6.123   6.676  16.835  0.00  0.00    +0.000 A 
ATOM     29  C   UNL     1       4.783   6.864  17.178  0.00  0.00    +0.000 A 
ATOM     30  C   UNL     1       3.947   5.764  17.446  0.00  0.00    +0.000 A 
ENDBRANCH  19  21
ENDBRANCH   1  18
TORSDOF 3
ENDMDL
MODEL 2
REMARK VINA RESULT:      -7.8      3.103      5.131
REMARK  Name = 
REMARK  3 active torsions:
REMARK  status: ('A' for Active; 'I' for Inactive)
REMARK    1  A    between atoms: C_2  and  C_14
REMARK    2  A    between atoms: N_3  and  C_4
REMARK    3  A    between atoms: N_18  and  C_19
REMARK                            x       y       z     vdW  Elec       q    Type
REMARK                         _______ _______ _______ _____ _____    ______ ____
ROOT
ATOM      1  C   UNL     1       2.703   3.636  20.407  0.00  0.00    +0.000 C 
ATOM      2  C   UNL     1       1.728   3.267  19.291  0.00  0.00    +0.000 C 
ATOM      3  C   UNL     1       1.499   4.578  18.575  0.00  0.00    +0.000 C 
ATOM      4  O   UNL     1       1.030   4.670  17.452  0.00  0.00    +0.000 OA
ATOM      5  N   UNL     1       1.971   5.596  19.403  0.00  0.00    +0.000 N 
ATOM      6  C   UNL     1       2.421   5.100  20.681  0.00  0.00    +0.000 C 
ENDROOT
BRANCH   5   7
ATOM      7  C   UNL     1       1.898   6.977  19.122  0.00  0.00    +0.000 A 
ATOM      8  C   UNL     1       2.564   7.436  17.975  0.00  0.00    +0.000 A 
ATOM      9  C   UNL     1       2.483   8.772  17.600  0.00  0.00    +0.000 A 
ATOM     10  C   UNL     1       1.764   9.668  18.384  0.00  0.00    +0.000 A 
ATOM     11  C   UNL     1       1.123   9.247  19.559  0.00  0.00    +0.000 A 
ATOM     12  C   UNL     1       0.440  10.177  20.359  0.00  0.00    +0.000 A 
ATOM     13  C   UNL     1      -0.174   9.790  21.550  0.00  0.00    +0.000 A 
ATOM     14  C   UNL     1      -0.106   8.467  21.960  0.00  0.00    +0.000 A 
ATOM     15  C   UNL     1       0.562   7.529  21.172  0.00  0.00    +0.000 A 
ATOM     16  C   UNL     1       1.181   7.884  19.949  0.00  0.00    +0.000 A 
ENDBRANCH   5   7
BRANCH   1  18
ATOM     17  O   UNL     1       4.714   2.338  20.213  0.00  0.00    +0.000 OA
ATOM     18  C   UNL     1       4.149   3.404  19.987  0.00  0.00    +0.000 C 
ATOM     19  N   UNL     1       4.749   4.448  19.329  0.00  0.00    +0.000 N 
ATOM     20  H   UNL     1       4.245   5.319  19.207  0.00  0.00    +0.000 HD
BRANCH  19  21
ATOM     21  C   UNL     1       6.118   4.420  18.828  0.00  0.00    +0.000 C 
ATOM     22  C   UNL     1       6.942   5.554  19.443  0.00  0.00    +0.000 C 
ATOM     23  C   UNL     1       8.213   5.727  18.638  0.00  0.00    +0.000 C 
ATOM     24  O   UNL     1       7.915   6.179  17.316  0.00  0.00    +0.000 OA
ATOM     25  C   UNL     1       6.995   5.401  16.663  0.00  0.00    +0.000 A 
ATOM     26  C   UNL     1       6.945   5.560  15.277  0.00  0.00    +0.000 A 
ATOM     27  C   UNL     1       6.058   4.800  14.517  0.00  0.00    +0.000 A 
ATOM     28  C   UNL     1       5.228   3.873  15.144  0.00  0.00    +0.000 A 
ATOM     29  C   UNL     1       5.264   3.728  16.532  0.00  0.00    +0.000 A 
ATOM     30  C   UNL     1       6.125   4.519  17.316  0.00  0.00    +0.000 A 
ENDBRANCH  19  21
ENDBRANCH   1  18
TORSDOF 3
ENDMDL
MODEL 3
REMARK VINA RESULT:      -7.7      1.755      3.346
REMARK  Name = 
REMARK  3 active torsions:
REMARK  status: ('A' for Active; 'I' for Inactive)
REMARK    1  A    between atoms: C_2  and  C_14
REMARK    2  A    between atoms: N_3  and  C_4
REMARK    3  A    between atoms: N_18  and  C_19
REMARK                            x       y       z     vdW  Elec       q    Type
REMARK                         _______ _______ _______ _____ _____    ______ ____
ROOT
ATOM      1  C   UNL     1       1.258   9.206  17.970  0.00  0.00    +0.000 C 
ATOM      2  C   UNL     1       1.894  10.592  17.904  0.00  0.00    +0.000 C 
ATOM      3  C   UNL     1       1.394  11.269  19.160  0.00  0.00    +0.000 C 
ATOM      4  O   UNL     1       1.899  12.269  19.644  0.00  0.00    +0.000 OA
ATOM      5  N   UNL     1       0.332  10.509  19.651  0.00  0.00    +0.000 N 
ATOM      6  C   UNL     1      -0.007   9.411  18.778  0.00  0.00    +0.000 C 
ENDROOT
BRANCH   5   7
ATOM      7  C   UNL     1      -0.444  10.828  20.786  0.00  0.00    +0.000 A 
ATOM      8  C   UNL     1      -0.033  10.293  22.017  0.00  0.00    +0.000 A 
ATOM      9  C   UNL     1      -0.710  10.615  23.187  0.00  0.00    +0.000 A 
ATOM     10  C   UNL     1      -1.823  11.448  23.134  0.00  0.00    +0.000 A 
ATOM     11  C   UNL     1      -2.283  11.963  21.913  0.00  0.00    +0.000 A 
ATOM     12  C   UNL     1      -3.434  12.766  21.878  0.00  0.00    +0.000 A 
ATOM     13  C   UNL     1      -3.932  13.261  20.673  0.00  0.00    +0.000 A 
ATOM     14  C   UNL     1      -3.288  12.952  19.485  0.00  0.00    +0.000 A 
ATOM     15  C   UNL     1      -2.137  12.162  19.504  0.00  0.00    +0.000 A 
ATOM     16  C   UNL     1      -1.594  11.659  20.711  0.00  0.00    +0.000 A 
ENDBRANCH   5   7
BRANCH   1  18
ATOM     17  O   UNL     1       2.165   7.986  19.829  0.00  0.00    +0.000 OA
ATOM     18  C   UNL     1       2.191   8.192  18.620  0.00  0.00    +0.000 C 
ATOM     19  N   UNL     1       3.030   7.525  17.761  0.00  0.00    +0.000 N 
ATOM     20  H   UNL     1       3.035   7.767  16.777  0.00  0.00    +0.000 HD
BRANCH  19  21
ATOM     21  C   UNL     1       3.983   6.504  18.179  0.00  0.00    +0.000 C 
ATOM     22  C   UNL     1       5.281   6.614  17.375  0.00  0.00    +0.000 C 
ATOM     23  C   UNL     1       6.079   5.341  17.558  0.00  0.00    +0.000 C 
ATOM     24  O   UNL     1       5.396   4.229  16.979  0.00  0.00    +0.000 OA
ATOM     25  C   UNL     1       4.103   4.092  17.413  0.00  0.00    +0.000 A 
ATOM     26  C   UNL     1       3.518   2.845  17.185  0.00  0.00    +0.000 A 
ATOM     27  C   UNL     1       2.214   2.595  17.608  0.00  0.00    +0.000 A 
ATOM     28  C   UNL     1       1.498   3.591  18.267  0.00  0.00    +0.000 A 
ATOM     29  C   UNL     1       2.075   4.845  18.479  0.00  0.00    +0.000 A 
ATOM     30  C   UNL     1       3.376   5.124  18.020  0.00  0.00    +0.000 A 
ENDBRANCH  19  21
ENDBRANCH   1  18
TORSDOF 3
ENDMDL
MODEL 4
REMARK VINA RESULT:      -7.6      0.784      2.467
REMARK  Name = 
REMARK  3 active torsions:
REMARK  status: ('A' for Active; 'I' for Inactive)
REMARK    1  A    between atoms: C_2  and  C_14
REMARK    2  A    between atoms: N_3  and  C_4
REMARK    3  A    between atoms: N_18  and  C_19
REMARK                            x       y       z     vdW  Elec       q    Type
REMARK                         _______ _______ _______ _____ _____    ______ ____
ROOT
ATOM      1  C   UNL     1       2.109   8.785  20.075  0.00  0.00    +0.000 C 
ATOM      2  C   UNL     1       1.383   8.143  21.255  0.00  0.00    +0.000 C 
ATOM      3  C   UNL     1      -0.002   8.744  21.186  0.00  0.00    +0.000 C 
ATOM      4  O   UNL     1      -0.978   8.280  21.753  0.00  0.00    +0.000 OA
ATOM      5  N   UNL     1       0.061   9.845  20.332  0.00  0.00    +0.000 N 
ATOM      6  C   UNL     1       1.405  10.112  19.879  0.00  0.00    +0.000 C 
ENDROOT
BRANCH   5   7
ATOM      7  C   UNL     1      -1.012  10.712  20.036  0.00  0.00    +0.000 A 
ATOM      8  C   UNL     1      -1.631  10.567  18.785  0.00  0.00    +0.000 A 
ATOM      9  C   UNL     1      -2.735  11.342  18.449  0.00  0.00    +0.000 A 
ATOM     10  C   UNL     1      -3.211  12.292  19.347  0.00  0.00    +0.000 A 
ATOM     11  C   UNL     1      -2.587  12.489  20.588  0.00  0.00    +0.000 A 
ATOM     12  C   UNL     1      -3.057  13.484  21.460  0.00  0.00    +0.000 A 
ATOM     13  C   UNL     1      -2.432  13.725  22.683  0.00  0.00    +0.000 A 
ATOM     14  C   UNL     1      -1.322  12.977  23.047  0.00  0.00    +0.000 A 
ATOM     15  C   UNL     1      -0.848  11.979  22.195  0.00  0.00    +0.000 A 
ATOM     16  C   UNL     1      -1.470  11.696  20.954  0.00  0.00    +0.000 A 
ENDBRANCH   5   7
BRANCH   1  18
ATOM     17  O   UNL     1       1.590   8.346  17.772  0.00  0.00    +0.000 OA
ATOM     18  C   UNL     1       2.034   7.911  18.829  0.00  0.00    +0.000 C 
ATOM     19  N   UNL     1       2.514   6.633  18.974  0.00  0.00    +0.000 N 
ATOM     20  H   UNL     1       2.831   6.318  19.883  0.00  0.00    +0.000 HD
BRANCH  19  21
ATOM     21  C   UNL     1       2.551   5.648  17.900  0.00  0.00    +0.000 C 
ATOM     22  C   UNL     1       2.054   4.288  18.397  0.00  0.00    +0.000 C 
ATOM     23  C   UNL     1       2.453   3.225  17.395  0.00  0.00    +0.000 C 
ATOM     24  O   UNL     1       3.873   3.088  17.345  0.00  0.00    +0.000 OA
ATOM     25  C   UNL     1       4.533   4.270  17.130  0.00  0.00    +0.000 A 
ATOM     26  C   UNL     1       5.856   4.154  16.703  0.00  0.00    +0.000 A 
ATOM     27  C   UNL     1       6.608   5.297  16.435  0.00  0.00    +0.000 A 
ATOM     28  C   UNL     1       6.032   6.555  16.587  0.00  0.00    +0.000 A 
ATOM     29  C   UNL     1       4.714   6.672  17.032  0.00  0.00    +0.000 A 
ATOM     30  C   UNL     1       3.956   5.528  17.346  0.00  0.00    +0.000 A 
ENDBRANCH  19  21
ENDBRANCH   1  18
TORSDOF 3
ENDMDL
MODEL 5
REMARK VINA RESULT:      -7.6      2.124      3.933
REMARK  Name = 
REMARK  3 active torsions:
REMARK  status: ('A' for Active; 'I' for Inactive)
REMARK    1  A    between atoms: C_2  and  C_14
REMARK    2  A    between atoms: N_3  and  C_4
REMARK    3  A    between atoms: N_18  and  C_19
REMARK                            x       y       z     vdW  Elec       q    Type
REMARK                         _______ _______ _______ _____ _____    ______ ____
ROOT
ATOM      1  C   UNL     1       1.471   9.131  17.577  0.00  0.00    +0.000 C 
ATOM      2  C   UNL     1       1.873  10.604  17.571  0.00  0.00    +0.000 C 
ATOM      3  C   UNL     1       1.575  11.057  18.981  0.00  0.00    +0.000 C 
ATOM      4  O   UNL     1       2.028  12.073  19.483  0.00  0.00    +0.000 OA
ATOM      5  N   UNL     1       0.768  10.085  19.571  0.00  0.00    +0.000 N 
ATOM      6  C   UNL     1       0.401   9.040  18.647  0.00  0.00    +0.000 C 
ENDROOT
BRANCH   5   7
ATOM      7  C   UNL     1       0.227  10.153  20.873  0.00  0.00    +0.000 A 
ATOM      8  C   UNL     1       0.762   9.285  21.838  0.00  0.00    +0.000 A 
ATOM      9  C   UNL     1       0.324   9.340  23.156  0.00  0.00    +0.000 A 
ATOM     10  C   UNL     1      -0.675  10.238  23.516  0.00  0.00    +0.000 A 
ATOM     11  C   UNL     1      -1.259  11.089  22.564  0.00  0.00    +0.000 A 
ATOM     12  C   UNL     1      -2.296  11.957  22.940  0.00  0.00    +0.000 A 
ATOM     13  C   UNL     1      -2.917  12.786  22.007  0.00  0.00    +0.000 A 
ATOM     14  C   UNL     1      -2.512  12.751  20.680  0.00  0.00    +0.000 A 
ATOM     15  C   UNL     1      -1.477  11.900  20.293  0.00  0.00    +0.000 A 
ATOM     16  C   UNL     1      -0.812  11.059  21.219  0.00  0.00    +0.000 A 
ENDBRANCH   5   7
BRANCH   1  18
ATOM     17  O   UNL     1       3.807   8.660  17.873  0.00  0.00    +0.000 OA
ATOM     18  C   UNL     1       2.659   8.227  17.880  0.00  0.00    +0.000 C 
ATOM     19  N   UNL     1       2.349   6.923  18.177  0.00  0.00    +0.000 N 
ATOM     20  H   UNL     1       1.385   6.614  18.127  0.00  0.00    +0.000 HD
BRANCH  19  21
ATOM     21  C   UNL     1       3.337   5.905  18.514  0.00  0.00    +0.000 C 
ATOM     22  C   UNL     1       4.102   5.460  17.265  0.00  0.00    +0.000 C 
ATOM     23  C   UNL     1       4.831   4.169  17.573  0.00  0.00    +0.000 C 
ATOM     24  O   UNL     1       3.903   3.112  17.817  0.00  0.00    +0.000 OA
ATOM     25  C   UNL     1       2.965   3.412  18.771  0.00  0.00    +0.000 A 
ATOM     26  C   UNL     1       2.284   2.321  19.313  0.00  0.00    +0.000 A 
ATOM     27  C   UNL     1       1.326   2.517  20.306  0.00  0.00    +0.000 A 
ATOM     28  C   UNL     1       1.056   3.805  20.762  0.00  0.00    +0.000 A 
ATOM     29  C   UNL     1       1.723   4.898  20.206  0.00  0.00    +0.000 A 
ATOM     30  C   UNL     1       2.663   4.719  19.174  0.00  0.00    +0.000 A 
ENDBRANCH  19  21
ENDBRANCH   1  18
TORSDOF 3
ENDMDL
MODEL 6
REMARK VINA RESULT:      -7.6      4.909      8.432
REMARK  Name = 
REMARK  3 active torsions:
REMARK  status: ('A' for Active; 'I' for Inactive)
REMARK    1  A    between atoms: C_2  and  C_14
REMARK    2  A    between atoms: N_3  and  C_4
REMARK    3  A    between atoms: N_18  and  C_19
REMARK                            x       y       z     vdW  Elec       q    Type
REMARK                         _______ _______ _______ _____ _____    ______ ____
ROOT
ATOM      1  C   UNL     1       0.426  10.528  21.140  0.00  0.00    +0.000 C 
ATOM      2  C   UNL     1       1.116  11.656  20.377  0.00  0.00    +0.000 C 
ATOM      3  C   UNL     1       0.108  12.033  19.316  0.00  0.00    +0.000 C 
ATOM      4  O   UNL     1       0.132  13.082  18.693  0.00  0.00    +0.000 OA
ATOM      5  N   UNL     1      -0.837  11.009  19.254  0.00  0.00    +0.000 N 
ATOM      6  C   UNL     1      -0.508   9.904  20.121  0.00  0.00    +0.000 C 
ENDROOT
BRANCH   5   7
ATOM      7  C   UNL     1      -1.922  10.953  18.354  0.00  0.00    +0.000 A 
ATOM      8  C   UNL     1      -1.728  10.248  17.155  0.00  0.00    +0.000 A 
ATOM      9  C   UNL     1      -2.771  10.097  16.249  0.00  0.00    +0.000 A 
ATOM     10  C   UNL     1      -4.008  10.675  16.516  0.00  0.00    +0.000 A 
ATOM     11  C   UNL     1      -4.220  11.420  17.686  0.00  0.00    +0.000 A 
ATOM     12  C   UNL     1      -5.463  12.032  17.914  0.00  0.00    +0.000 A 
ATOM     13  C   UNL     1      -5.687  12.808  19.050  0.00  0.00    +0.000 A 
ATOM     14  C   UNL     1      -4.666  12.989  19.971  0.00  0.00    +0.000 A 
ATOM     15  C   UNL     1      -3.428  12.381  19.763  0.00  0.00    +0.000 A 
ATOM     16  C   UNL     1      -3.172  11.571  18.629  0.00  0.00    +0.000 A 
ENDBRANCH   5   7
BRANCH   1  18
ATOM     17  O   UNL     1      -0.273  10.471  23.436  0.00  0.00    +0.000 OA
ATOM     18  C   UNL     1      -0.326  11.051  22.357  0.00  0.00    +0.000 C 
ATOM     19  N   UNL     1      -1.033  12.211  22.161  0.00  0.00    +0.000 N 
ATOM     20  H   UNL     1      -1.072  12.623  21.236  0.00  0.00    +0.000 HD
BRANCH  19  21
ATOM     21  C   UNL     1      -1.802  12.885  23.200  0.00  0.00    +0.000 C 
ATOM     22  C   UNL     1      -3.067  12.092  23.537  0.00  0.00    +0.000 C 
ATOM     23  C   UNL     1      -4.008  12.983  24.320  0.00  0.00    +0.000 C 
ATOM     24  O   UNL     1      -4.471  14.064  23.510  0.00  0.00    +0.000 OA
ATOM     25  C   UNL     1      -3.462  14.778  22.918  0.00  0.00    +0.000 A 
ATOM     26  C   UNL     1      -3.817  16.039  22.436  0.00  0.00    +0.000 A 
ATOM     27  C   UNL     1      -2.859  16.854  21.835  0.00  0.00    +0.000 A 
ATOM     28  C   UNL     1      -1.544  16.410  21.725  0.00  0.00    +0.000 A 
ATOM     29  C   UNL     1      -1.192  15.141  22.190  0.00  0.00    +0.000 A 
ATOM     30  C   UNL     1      -2.158  14.291  22.761  0.00  0.00    +0.000 A 
ENDBRANCH  19  21
ENDBRANCH   1  18
TORSDOF 3
ENDMDL
MODEL 7
REMARK VINA RESULT:      -7.5      5.007      8.551
REMARK  Name = 
REMARK  3 active torsions:
REMARK  status: ('A' for Active; 'I' for Inactive)
REMARK    1  A    between atoms: C_2  and  C_14
REMARK    2  A    between atoms: N_3  and  C_4
REMARK    3  A    between atoms: N_18  and  C_19
REMARK                            x       y       z     vdW  Elec       q    Type
REMARK                         _______ _______ _______ _____ _____    ______ ____
ROOT
ATOM      1  C   UNL     1      -3.446  13.737  23.313  0.00  0.00    +0.000 C 
ATOM      2  C   UNL     1      -2.193  14.554  23.617  0.00  0.00    +0.000 C 
ATOM      3  C   UNL     1      -1.070  13.689  23.093  0.00  0.00    +0.000 C 
ATOM      4  O   UNL     1       0.057  14.096  22.863  0.00  0.00    +0.000 OA
ATOM      5  N   UNL     1      -1.591  12.412  22.881  0.00  0.00    +0.000 N 
ATOM      6  C   UNL     1      -2.963  12.300  23.311  0.00  0.00    +0.000 C 
ENDROOT
BRANCH   5   7
ATOM      7  C   UNL     1      -0.853  11.293  22.439  0.00  0.00    +0.000 A 
ATOM      8  C   UNL     1      -0.722  10.216  23.330  0.00  0.00    +0.000 A 
ATOM      9  C   UNL     1      -0.064   9.055  22.941  0.00  0.00    +0.000 A 
ATOM     10  C   UNL     1       0.497   8.971  21.671  0.00  0.00    +0.000 A 
ATOM     11  C   UNL     1       0.420  10.047  20.774  0.00  0.00    +0.000 A 
ATOM     12  C   UNL     1       1.032   9.957  19.514  0.00  0.00    +0.000 A 
ATOM     13  C   UNL     1       1.000  11.025  18.618  0.00  0.00    +0.000 A 
ATOM     14  C   UNL     1       0.360  12.203  18.976  0.00  0.00    +0.000 A 
ATOM     15  C   UNL     1      -0.260  12.305  20.222  0.00  0.00    +0.000 A 
ATOM     16  C   UNL     1      -0.263  11.233  21.147  0.00  0.00    +0.000 A 
ENDBRANCH   5   7
BRANCH   1  18
ATOM     17  O   UNL     1      -3.878  15.246  21.496  0.00  0.00    +0.000 OA
ATOM     18  C   UNL     1      -4.063  14.133  21.978  0.00  0.00    +0.000 C 
ATOM     19  N   UNL     1      -4.808  13.160  21.360  0.00  0.00    +0.000 N 
ATOM     20  H   UNL     1      -4.959  12.273  21.826  0.00  0.00    +0.000 HD
BRANCH  19  21
ATOM     21  C   UNL     1      -5.465  13.331  20.069  0.00  0.00    +0.000 C 
ATOM     22  C   UNL     1      -6.978  13.138  20.204  0.00  0.00    +0.000 C 
ATOM     23  C   UNL     1      -7.571  12.948  18.823  0.00  0.00    +0.000 C 
ATOM     24  O   UNL     1      -7.108  11.730  18.239  0.00  0.00    +0.000 OA
ATOM     25  C   UNL     1      -5.743  11.607  18.233  0.00  0.00    +0.000 A 
ATOM     26  C   UNL     1      -5.227  10.647  17.361  0.00  0.00    +0.000 A 
ATOM     27  C   UNL     1      -3.850  10.458  17.264  0.00  0.00    +0.000 A 
ATOM     28  C   UNL     1      -2.989  11.238  18.032  0.00  0.00    +0.000 A 
ATOM     29  C   UNL     1      -3.505  12.185  18.918  0.00  0.00    +0.000 A 
ATOM     30  C   UNL     1      -4.895  12.357  19.057  0.00  0.00    +0.000 A 
ENDBRANCH  19  21
ENDBRANCH   1  18
TORSDOF 3
ENDMDL
MODEL 8
REMARK VINA RESULT:      -7.5      2.663      8.446
REMARK  Name = 
REMARK  3 active torsions:
REMARK  status: ('A' for Active; 'I' for Inactive)
REMARK    1  A    between atoms: C_2  and  C_14
REMARK    2  A    between atoms: N_3  and  C_4
REMARK    3  A    between atoms: N_18  and  C_19
REMARK                            x       y       z     vdW  Elec       q    Type
REMARK                         _______ _______ _______ _____ _____    ______ ____
ROOT
ATOM      1  C   UNL     1       1.388   4.015  19.449  0.00  0.00    +0.000 C 
ATOM      2  C   UNL     1       2.030   2.716  19.929  0.00  0.00    +0.000 C 
ATOM      3  C   UNL     1       3.399   2.740  19.288  0.00  0.00    +0.000 C 
ATOM      4  O   UNL     1       4.335   2.048  19.651  0.00  0.00    +0.000 OA
ATOM      5  N   UNL     1       3.377   3.716  18.292  0.00  0.00    +0.000 N 
ATOM      6  C   UNL     1       2.069   4.303  18.126  0.00  0.00    +0.000 C 
ENDROOT
BRANCH   5   7
ATOM      7  C   UNL     1       4.447   4.021  17.424  0.00  0.00    +0.000 A 
ATOM      8  C   UNL     1       4.338   3.589  16.093  0.00  0.00    +0.000 A 
ATOM      9  C   UNL     1       5.324   3.907  15.165  0.00  0.00    +0.000 A 
ATOM     10  C   UNL     1       6.441   4.632  15.566  0.00  0.00    +0.000 A 
ATOM     11  C   UNL     1       6.598   5.041  16.898  0.00  0.00    +0.000 A 
ATOM     12  C   UNL     1       7.755   5.733  17.290  0.00  0.00    +0.000 A 
ATOM     13  C   UNL     1       7.951   6.119  18.615  0.00  0.00    +0.000 A 
ATOM     14  C   UNL     1       6.993   5.810  19.570  0.00  0.00    +0.000 A 
ATOM     15  C   UNL     1       5.834   5.130  19.195  0.00  0.00    +0.000 A 
ATOM     16  C   UNL     1       5.595   4.740  17.855  0.00  0.00    +0.000 A 
ENDBRANCH   5   7
BRANCH   1  18
ATOM     17  O   UNL     1       2.055   4.929  21.567  0.00  0.00    +0.000 OA
ATOM     18  C   UNL     1       1.591   5.144  20.452  0.00  0.00    +0.000 C 
ATOM     19  N   UNL     1       1.244   6.396  20.010  0.00  0.00    +0.000 N 
ATOM     20  H   UNL     1       0.829   6.506  19.092  0.00  0.00    +0.000 HD
BRANCH  19  21
ATOM     21  C   UNL     1       1.380   7.610  20.807  0.00  0.00    +0.000 C 
ATOM     22  C   UNL     1       0.260   7.703  21.845  0.00  0.00    +0.000 C 
ATOM     23  C   UNL     1       0.208   9.118  22.383  0.00  0.00    +0.000 C 
ATOM     24  O   UNL     1      -0.181  10.033  21.358  0.00  0.00    +0.000 OA
ATOM     25  C   UNL     1       0.582   9.943  20.223  0.00  0.00    +0.000 A 
ATOM     26  C   UNL     1       0.503  11.033  19.355  0.00  0.00    +0.000 A 
ATOM     27  C   UNL     1       1.257  11.050  18.182  0.00  0.00    +0.000 A 
ATOM     28  C   UNL     1       2.095   9.979  17.883  0.00  0.00    +0.000 A 
ATOM     29  C   UNL     1       2.159   8.880  18.742  0.00  0.00    +0.000 A 
ATOM     30  C   UNL     1       1.373   8.831  19.908  0.00  0.00    +0.000 A 
ENDBRANCH  19  21
ENDBRANCH   1  18
TORSDOF 3
ENDMDL
MODEL 9
REMARK VINA RESULT:      -7.5      1.834      2.274
REMARK  Name = 
REMARK  3 active torsions:
REMARK  status: ('A' for Active; 'I' for Inactive)
REMARK    1  A    between atoms: C_2  and  C_14
REMARK    2  A    between atoms: N_3  and  C_4
REMARK    3  A    between atoms: N_18  and  C_19
REMARK                            x       y       z     vdW  Elec       q    Type
REMARK                         _______ _______ _______ _____ _____    ______ ____
ROOT
ATOM      1  C   UNL     1       1.451   9.004  22.207  0.00  0.00    +0.000 C 
ATOM      2  C   UNL     1       0.399   9.465  23.212  0.00  0.00    +0.000 C 
ATOM      3  C   UNL     1      -0.403  10.488  22.440  0.00  0.00    +0.000 C 
ATOM      4  O   UNL     1      -1.513  10.875  22.766  0.00  0.00    +0.000 OA
ATOM      5  N   UNL     1       0.334  10.825  21.304  0.00  0.00    +0.000 N 
ATOM      6  C   UNL     1       1.629  10.189  21.280  0.00  0.00    +0.000 C 
ENDROOT
BRANCH   5   7
ATOM      7  C   UNL     1      -0.043  11.787  20.343  0.00  0.00    +0.000 A 
ATOM      8  C   UNL     1       0.345  13.116  20.576  0.00  0.00    +0.000 A 
ATOM      9  C   UNL     1       0.064  14.107  19.642  0.00  0.00    +0.000 A 
ATOM     10  C   UNL     1      -0.634  13.786  18.482  0.00  0.00    +0.000 A 
ATOM     11  C   UNL     1      -1.071  12.475  18.242  0.00  0.00    +0.000 A 
ATOM     12  C   UNL     1      -1.812  12.182  17.086  0.00  0.00    +0.000 A 
ATOM     13  C   UNL     1      -2.289  10.895  16.841  0.00  0.00    +0.000 A 
ATOM     14  C   UNL     1      -2.037   9.883  17.756  0.00  0.00    +0.000 A 
ATOM     15  C   UNL     1      -1.294  10.156  18.906  0.00  0.00    +0.000 A 
ATOM     16  C   UNL     1      -0.779  11.448  19.175  0.00  0.00    +0.000 A 
ENDBRANCH   5   7
BRANCH   1  18
ATOM     17  O   UNL     1      -0.188   7.481  21.335  0.00  0.00    +0.000 OA
ATOM     18  C   UNL     1       1.001   7.756  21.457  0.00  0.00    +0.000 C 
ATOM     19  N   UNL     1       2.009   6.993  20.921  0.00  0.00    +0.000 N 
ATOM     20  H   UNL     1       2.974   7.249  21.090  0.00  0.00    +0.000 HD
BRANCH  19  21
ATOM     21  C   UNL     1       1.789   5.774  20.152  0.00  0.00    +0.000 C 
ATOM     22  C   UNL     1       1.868   4.542  21.058  0.00  0.00    +0.000 C 
ATOM     23  C   UNL     1       2.013   3.308  20.193  0.00  0.00    +0.000 C 
ATOM     24  O   UNL     1       3.262   3.321  19.501  0.00  0.00    +0.000 OA
ATOM     25  C   UNL     1       3.487   4.473  18.794  0.00  0.00    +0.000 A 
ATOM     26  C   UNL     1       4.483   4.399  17.819  0.00  0.00    +0.000 A 
ATOM     27  C   UNL     1       4.774   5.510  17.030  0.00  0.00    +0.000 A 
ATOM     28  C   UNL     1       4.062   6.693  17.210  0.00  0.00    +0.000 A 
ATOM     29  C   UNL     1       3.078   6.773  18.197  0.00  0.00    +0.000 A 
ATOM     30  C   UNL     1       2.802   5.672  19.029  0.00  0.00    +0.000 A 
ENDBRANCH  19  21
ENDBRANCH   1  18
TORSDOF 3
ENDMDL
