MODEL 1
REMARK VINA RESULT:      -8.6      0.000      0.000
REMARK  Name = 
REMARK  5 active torsions:
REMARK  status: ('A' for Active; 'I' for Inactive)
REMARK    1  A    between atoms: C_2  and  C_23
REMARK    2  A    between atoms: N_3  and  C_4
REMARK    3  A    between atoms: C_4  and  C_5
REMARK    4  A    between atoms: N_7  and  C_8
REMARK    5  A    between atoms: C_15  and  C_16
REMARK                            x       y       z     vdW  Elec       q    Type
REMARK                         _______ _______ _______ _____ _____    ______ ____
ROOT
ATOM      1  C   UNL     1       7.587   5.864  18.235  0.00  0.00    +0.000 A 
ATOM      2  C   UNL     1       8.030   6.994  18.896  0.00  0.00    +0.000 A 
ATOM      3  N   UNL     1       7.946   8.051  18.026  0.00  0.00    +0.000 N 
ATOM      4  N   UNL     1       7.411   7.670  16.847  0.00  0.00    +0.000 NA
ATOM      5  C   UNL     1       7.219   6.344  16.934  0.00  0.00    +0.000 A 
ENDROOT
BRANCH   5   6
ATOM      6  C   UNL     1       6.714   5.610  15.762  0.00  0.00    +0.000 A 
ATOM      7  C   UNL     1       5.335   5.347  15.645  0.00  0.00    +0.000 A 
ATOM      8  C   UNL     1       4.829   4.628  14.559  0.00  0.00    +0.000 A 
ATOM      9  C   UNL     1       5.695   4.182  13.571  0.00  0.00    +0.000 A 
ATOM     10  F   UNL     1       5.217   3.487  12.532  0.00  0.00    +0.000 F 
ATOM     11  C   UNL     1       7.056   4.439  13.651  0.00  0.00    +0.000 A 
ATOM     12  C   UNL     1       7.565   5.139  14.752  0.00  0.00    +0.000 A 
ENDBRANCH   5   6
BRANCH   3  13
ATOM     13  C   UNL     1       8.396   9.383  18.235  0.00  0.00    +0.000 A 
ATOM     14  C   UNL     1       9.361   9.671  19.210  0.00  0.00    +0.000 A 
ATOM     15  C   UNL     1       9.847  10.972  19.354  0.00  0.00    +0.000 A 
ATOM     16  C   UNL     1       9.362  11.993  18.542  0.00  0.00    +0.000 A 
ATOM     17  C   UNL     1       8.383  11.721  17.586  0.00  0.00    +0.000 A 
ATOM     18  C   UNL     1       7.901  10.419  17.429  0.00  0.00    +0.000 A 
ENDBRANCH   3  13
BRANCH   1  19
ATOM     19  C   UNL     1       7.533   4.469  18.753  0.00  0.00    +0.000 C 
BRANCH  19  22
ATOM     20  O   UNL     1       5.141   5.588  19.813  0.00  0.00    +0.000 OA
ATOM     21  C   UNL     1       5.113   4.543  19.185  0.00  0.00    +0.000 C 
ATOM     22  N   UNL     1       6.207   3.918  18.630  0.00  0.00    +0.000 N 
ATOM     23  H   UNL     1       6.052   3.060  18.113  0.00  0.00    +0.000 HD
BRANCH  21  24
ATOM     24  C   UNL     1       3.783   3.823  18.957  0.00  0.00    +0.000 A 
ATOM     25  C   UNL     1       2.743   4.594  18.242  0.00  0.00    +0.000 A 
ATOM     26  C   UNL     1       1.569   3.994  18.048  0.00  0.00    +0.000 A 
ATOM     27  C   UNL     1       1.349   2.617  18.535  0.00  0.00    +0.000 A 
ATOM     28  O   UNL     1       0.271   2.059  18.376  0.00  0.00    +0.000 OA
ATOM     29  N   UNL     1       2.420   2.023  19.161  0.00  0.00    +0.000 N 
ATOM     30  N   UNL     1       3.642   2.607  19.394  0.00  0.00    +0.000 NA
ATOM     31  H   UNL     1       2.288   1.075  19.499  0.00  0.00    +0.000 HD
ENDBRANCH  21  24
ENDBRANCH  19  22
ENDBRANCH   1  19
TORSDOF 5
ENDMDL
MODEL 2
REMARK VINA RESULT:      -8.6      0.087      1.270
REMARK  Name = 
REMARK  5 active torsions:
REMARK  status: ('A' for Active; 'I' for Inactive)
REMARK    1  A    between atoms: C_2  and  C_23
REMARK    2  A    between atoms: N_3  and  C_4
REMARK    3  A    between atoms: C_4  and  C_5
REMARK    4  A    between atoms: N_7  and  C_8
REMARK    5  A    between atoms: C_15  and  C_16
REMARK                            x       y       z     vdW  Elec       q    Type
REMARK                         _______ _______ _______ _____ _____    ______ ____
ROOT
ATOM      1  C   UNL     1       7.576   5.867  18.238  0.00  0.00    +0.000 A 
ATOM      2  C   UNL     1       8.034   7.004  18.877  0.00  0.00    +0.000 A 
ATOM      3  N   UNL     1       7.956   8.046  17.989  0.00  0.00    +0.000 N 
ATOM      4  N   UNL     1       7.411   7.651  16.820  0.00  0.00    +0.000 NA
ATOM      5  C   UNL     1       7.205   6.329  16.931  0.00  0.00    +0.000 A 
ENDROOT
BRANCH   5   6
ATOM      6  C   UNL     1       6.687   5.580  15.774  0.00  0.00    +0.000 A 
ATOM      7  C   UNL     1       7.558   5.229  14.724  0.00  0.00    +0.000 A 
ATOM      8  C   UNL     1       7.090   4.543  13.599  0.00  0.00    +0.000 A 
ATOM      9  C   UNL     1       5.752   4.186  13.525  0.00  0.00    +0.000 A 
ATOM     10  F   UNL     1       5.297   3.535  12.447  0.00  0.00    +0.000 F 
ATOM     11  C   UNL     1       4.874   4.505  14.550  0.00  0.00    +0.000 A 
ATOM     12  C   UNL     1       5.338   5.213  15.664  0.00  0.00    +0.000 A 
ENDBRANCH   5   6
BRANCH   3  13
ATOM     13  C   UNL     1       8.421   9.377  18.172  0.00  0.00    +0.000 A 
ATOM     14  C   UNL     1       7.945  10.422  17.367  0.00  0.00    +0.000 A 
ATOM     15  C   UNL     1       8.355  11.735  17.606  0.00  0.00    +0.000 A 
ATOM     16  C   UNL     1       9.253  12.011  18.634  0.00  0.00    +0.000 A 
ATOM     17  C   UNL     1       9.750  10.975  19.424  0.00  0.00    +0.000 A 
ATOM     18  C   UNL     1       9.335   9.660  19.198  0.00  0.00    +0.000 A 
ENDBRANCH   3  13
BRANCH   1  19
ATOM     19  C   UNL     1       7.510   4.483  18.781  0.00  0.00    +0.000 C 
BRANCH  19  22
ATOM     20  O   UNL     1       5.127   5.575  19.888  0.00  0.00    +0.000 OA
ATOM     21  C   UNL     1       5.094   4.546  19.233  0.00  0.00    +0.000 C 
ATOM     22  N   UNL     1       6.183   3.935  18.654  0.00  0.00    +0.000 N 
ATOM     23  H   UNL     1       6.024   3.091  18.116  0.00  0.00    +0.000 HD
BRANCH  21  24
ATOM     24  C   UNL     1       3.762   3.832  18.998  0.00  0.00    +0.000 A 
ATOM     25  C   UNL     1       2.777   4.555  18.163  0.00  0.00    +0.000 A 
ATOM     26  C   UNL     1       1.603   3.962  17.959  0.00  0.00    +0.000 A 
ATOM     27  C   UNL     1       1.327   2.637  18.551  0.00  0.00    +0.000 A 
ATOM     28  O   UNL     1       0.246   2.086  18.383  0.00  0.00    +0.000 OA
ATOM     29  N   UNL     1       2.350   2.082  19.283  0.00  0.00    +0.000 N 
ATOM     30  N   UNL     1       3.571   2.662  19.529  0.00  0.00    +0.000 NA
ATOM     31  H   UNL     1       2.179   1.169  19.695  0.00  0.00    +0.000 HD
ENDBRANCH  21  24
ENDBRANCH  19  22
ENDBRANCH   1  19
TORSDOF 5
ENDMDL
MODEL 3
REMARK VINA RESULT:      -8.0      8.330      9.709
REMARK  Name = 
REMARK  5 active torsions:
REMARK  status: ('A' for Active; 'I' for Inactive)
REMARK    1  A    between atoms: C_2  and  C_23
REMARK    2  A    between atoms: N_3  and  C_4
REMARK    3  A    between atoms: C_4  and  C_5
REMARK    4  A    between atoms: N_7  and  C_8
REMARK    5  A    between atoms: C_15  and  C_16
REMARK                            x       y       z     vdW  Elec       q    Type
REMARK                         _______ _______ _______ _____ _____    ______ ____
ROOT
ATOM      1  C   UNL     1      -0.335  11.334  19.771  0.00  0.00    +0.000 A 
ATOM      2  C   UNL     1      -0.309  11.843  21.056  0.00  0.00    +0.000 A 
ATOM      3  N   UNL     1      -1.589  12.199  21.394  0.00  0.00    +0.000 N 
ATOM      4  N   UNL     1      -2.457  11.889  20.408  0.00  0.00    +0.000 NA
ATOM      5  C   UNL     1      -1.720  11.397  19.400  0.00  0.00    +0.000 A 
ENDROOT
BRANCH   5   6
ATOM      6  C   UNL     1      -2.378  11.037  18.133  0.00  0.00    +0.000 A 
ATOM      7  C   UNL     1      -1.761  10.113  17.267  0.00  0.00    +0.000 A 
ATOM      8  C   UNL     1      -2.347   9.772  16.044  0.00  0.00    +0.000 A 
ATOM      9  C   UNL     1      -3.562  10.338  15.687  0.00  0.00    +0.000 A 
ATOM     10  F   UNL     1      -4.124  10.021  14.514  0.00  0.00    +0.000 F 
ATOM     11  C   UNL     1      -4.199  11.239  16.527  0.00  0.00    +0.000 A 
ATOM     12  C   UNL     1      -3.601  11.598  17.740  0.00  0.00    +0.000 A 
ENDBRANCH   5   6
BRANCH   3  13
ATOM     13  C   UNL     1      -2.021  12.866  22.573  0.00  0.00    +0.000 A 
ATOM     14  C   UNL     1      -1.240  13.876  23.153  0.00  0.00    +0.000 A 
ATOM     15  C   UNL     1      -1.710  14.572  24.268  0.00  0.00    +0.000 A 
ATOM     16  C   UNL     1      -2.948  14.255  24.820  0.00  0.00    +0.000 A 
ATOM     17  C   UNL     1      -3.721  13.235  24.264  0.00  0.00    +0.000 A 
ATOM     18  C   UNL     1      -3.261  12.542  23.141  0.00  0.00    +0.000 A 
ENDBRANCH   3  13
BRANCH   1  19
ATOM     19  C   UNL     1       0.817  10.856  18.958  0.00  0.00    +0.000 C 
BRANCH  19  22
ATOM     20  O   UNL     1       2.249   8.996  17.349  0.00  0.00    +0.000 OA
ATOM     21  C   UNL     1       1.902   8.701  18.481  0.00  0.00    +0.000 C 
ATOM     22  N   UNL     1       1.209   9.522  19.341  0.00  0.00    +0.000 N 
ATOM     23  H   UNL     1       0.994   9.169  20.266  0.00  0.00    +0.000 HD
BRANCH  21  24
ATOM     24  C   UNL     1       2.239   7.322  19.049  0.00  0.00    +0.000 A 
ATOM     25  C   UNL     1       2.856   6.365  18.104  0.00  0.00    +0.000 A 
ATOM     26  C   UNL     1       3.143   5.151  18.571  0.00  0.00    +0.000 A 
ATOM     27  C   UNL     1       2.846   4.807  19.976  0.00  0.00    +0.000 A 
ATOM     28  O   UNL     1       3.091   3.689  20.414  0.00  0.00    +0.000 OA
ATOM     29  N   UNL     1       2.293   5.809  20.736  0.00  0.00    +0.000 N 
ATOM     30  N   UNL     1       1.971   7.070  20.295  0.00  0.00    +0.000 NA
ATOM     31  H   UNL     1       2.086   5.592  21.706  0.00  0.00    +0.000 HD
ENDBRANCH  21  24
ENDBRANCH  19  22
ENDBRANCH   1  19
TORSDOF 5
ENDMDL
MODEL 4
REMARK VINA RESULT:      -8.0      8.525     10.318
REMARK  Name = 
REMARK  5 active torsions:
REMARK  status: ('A' for Active; 'I' for Inactive)
REMARK    1  A    between atoms: C_2  and  C_23
REMARK    2  A    between atoms: N_3  and  C_4
REMARK    3  A    between atoms: C_4  and  C_5
REMARK    4  A    between atoms: N_7  and  C_8
REMARK    5  A    between atoms: C_15  and  C_16
REMARK                            x       y       z     vdW  Elec       q    Type
REMARK                         _______ _______ _______ _____ _____    ______ ____
ROOT
ATOM      1  C   UNL     1       0.853   9.322  21.666  0.00  0.00    +0.000 A 
ATOM      2  C   UNL     1       1.334   8.030  21.575  0.00  0.00    +0.000 A 
ATOM      3  N   UNL     1       1.674   7.798  20.267  0.00  0.00    +0.000 N 
ATOM      4  N   UNL     1       1.490   8.902  19.513  0.00  0.00    +0.000 NA
ATOM      5  C   UNL     1       0.960   9.828  20.327  0.00  0.00    +0.000 A 
ENDROOT
BRANCH   5   6
ATOM      6  C   UNL     1       0.568  11.135  19.775  0.00  0.00    +0.000 A 
ATOM      7  C   UNL     1       1.260  12.295  20.172  0.00  0.00    +0.000 A 
ATOM      8  C   UNL     1       0.893  13.554  19.687  0.00  0.00    +0.000 A 
ATOM      9  C   UNL     1      -0.157  13.660  18.787  0.00  0.00    +0.000 A 
ATOM     10  F   UNL     1      -0.518  14.863  18.325  0.00  0.00    +0.000 F 
ATOM     11  C   UNL     1      -0.848  12.533  18.367  0.00  0.00    +0.000 A 
ATOM     12  C   UNL     1      -0.495  11.276  18.871  0.00  0.00    +0.000 A 
ENDBRANCH   5   6
BRANCH   3  13
ATOM     13  C   UNL     1       2.106   6.573  19.688  0.00  0.00    +0.000 A 
ATOM     14  C   UNL     1       1.923   5.356  20.360  0.00  0.00    +0.000 A 
ATOM     15  C   UNL     1       2.286   4.156  19.748  0.00  0.00    +0.000 A 
ATOM     16  C   UNL     1       2.848   4.162  18.474  0.00  0.00    +0.000 A 
ATOM     17  C   UNL     1       3.056   5.369  17.808  0.00  0.00    +0.000 A 
ATOM     18  C   UNL     1       2.685   6.574  18.410  0.00  0.00    +0.000 A 
ENDBRANCH   3  13
BRANCH   1  19
ATOM     19  C   UNL     1       0.323  10.013  22.874  0.00  0.00    +0.000 C 
BRANCH  19  22
ATOM     20  O   UNL     1      -0.507  12.708  23.256  0.00  0.00    +0.000 OA
ATOM     21  C   UNL     1      -1.294  11.865  22.856  0.00  0.00    +0.000 C 
ATOM     22  N   UNL     1      -0.998  10.539  22.637  0.00  0.00    +0.000 N 
ATOM     23  H   UNL     1      -1.735   9.940  22.284  0.00  0.00    +0.000 HD
BRANCH  21  24
ATOM     24  C   UNL     1      -2.741  12.254  22.552  0.00  0.00    +0.000 A 
ATOM     25  C   UNL     1      -2.994  12.809  21.204  0.00  0.00    +0.000 A 
ATOM     26  C   UNL     1      -4.244  13.172  20.922  0.00  0.00    +0.000 A 
ATOM     27  C   UNL     1      -5.310  13.012  21.932  0.00  0.00    +0.000 A 
ATOM     28  O   UNL     1      -6.461  13.355  21.691  0.00  0.00    +0.000 OA
ATOM     29  N   UNL     1      -4.924  12.460  23.130  0.00  0.00    +0.000 N 
ATOM     30  N   UNL     1      -3.646  12.083  23.469  0.00  0.00    +0.000 NA
ATOM     31  H   UNL     1      -5.644  12.339  23.836  0.00  0.00    +0.000 HD
ENDBRANCH  21  24
ENDBRANCH  19  22
ENDBRANCH   1  19
TORSDOF 5
ENDMDL
MODEL 5
REMARK VINA RESULT:      -8.0      4.081      6.838
REMARK  Name = 
REMARK  5 active torsions:
REMARK  status: ('A' for Active; 'I' for Inactive)
REMARK    1  A    between atoms: C_2  and  C_23
REMARK    2  A    between atoms: N_3  and  C_4
REMARK    3  A    between atoms: C_4  and  C_5
REMARK    4  A    between atoms: N_7  and  C_8
REMARK    5  A    between atoms: C_15  and  C_16
REMARK                            x       y       z     vdW  Elec       q    Type
REMARK                         _______ _______ _______ _____ _____    ______ ____
ROOT
ATOM      1  C   UNL     1       4.869   5.880  17.072  0.00  0.00    +0.000 A 
ATOM      2  C   UNL     1       5.517   5.947  15.853  0.00  0.00    +0.000 A 
ATOM      3  N   UNL     1       5.243   4.792  15.166  0.00  0.00    +0.000 N 
ATOM      4  N   UNL     1       4.397   4.002  15.860  0.00  0.00    +0.000 NA
ATOM      5  C   UNL     1       4.184   4.619  17.032  0.00  0.00    +0.000 A 
ENDROOT
BRANCH   5   6
ATOM      6  C   UNL     1       3.355   3.960  18.055  0.00  0.00    +0.000 A 
ATOM      7  C   UNL     1       1.962   3.866  17.868  0.00  0.00    +0.000 A 
ATOM      8  C   UNL     1       1.144   3.271  18.833  0.00  0.00    +0.000 A 
ATOM      9  C   UNL     1       1.716   2.749  19.985  0.00  0.00    +0.000 A 
ATOM     10  F   UNL     1       0.937   2.186  20.916  0.00  0.00    +0.000 F 
ATOM     11  C   UNL     1       3.086   2.815  20.190  0.00  0.00    +0.000 A 
ATOM     12  C   UNL     1       3.901   3.432  19.233  0.00  0.00    +0.000 A 
ENDBRANCH   5   6
BRANCH   3  13
ATOM     13  C   UNL     1       5.783   4.377  13.918  0.00  0.00    +0.000 A 
ATOM     14  C   UNL     1       7.027   4.853  13.480  0.00  0.00    +0.000 A 
ATOM     15  C   UNL     1       7.579   4.381  12.288  0.00  0.00    +0.000 A 
ATOM     16  C   UNL     1       6.888   3.447  11.520  0.00  0.00    +0.000 A 
ATOM     17  C   UNL     1       5.639   2.986  11.936  0.00  0.00    +0.000 A 
ATOM     18  C   UNL     1       5.086   3.446  13.133  0.00  0.00    +0.000 A 
ENDBRANCH   3  13
BRANCH   1  19
ATOM     19  C   UNL     1       4.903   6.878  18.176  0.00  0.00    +0.000 C 
BRANCH  19  22
ATOM     20  O   UNL     1       2.639   6.755  19.897  0.00  0.00    +0.000 OA
ATOM     21  C   UNL     1       2.705   7.596  19.015  0.00  0.00    +0.000 C 
ATOM     22  N   UNL     1       3.751   7.744  18.132  0.00  0.00    +0.000 N 
ATOM     23  H   UNL     1       3.698   8.495  17.455  0.00  0.00    +0.000 HD
BRANCH  21  24
ATOM     24  C   UNL     1       1.567   8.600  18.829  0.00  0.00    +0.000 A 
ATOM     25  C   UNL     1       0.922   9.086  20.069  0.00  0.00    +0.000 A 
ATOM     26  C   UNL     1      -0.084   9.947  19.932  0.00  0.00    +0.000 A 
ATOM     27  C   UNL     1      -0.512  10.381  18.587  0.00  0.00    +0.000 A 
ATOM     28  O   UNL     1      -1.446  11.162  18.446  0.00  0.00    +0.000 OA
ATOM     29  N   UNL     1       0.200   9.860  17.533  0.00  0.00    +0.000 N 
ATOM     30  N   UNL     1       1.235   8.961  17.626  0.00  0.00    +0.000 NA
ATOM     31  H   UNL     1      -0.079  10.150  16.600  0.00  0.00    +0.000 HD
ENDBRANCH  21  24
ENDBRANCH  19  22
ENDBRANCH   1  19
TORSDOF 5
ENDMDL
MODEL 6
REMARK VINA RESULT:      -7.9      7.372      9.162
REMARK  Name = 
REMARK  5 active torsions:
REMARK  status: ('A' for Active; 'I' for Inactive)
REMARK    1  A    between atoms: C_2  and  C_23
REMARK    2  A    between atoms: N_3  and  C_4
REMARK    3  A    between atoms: C_4  and  C_5
REMARK    4  A    between atoms: N_7  and  C_8
REMARK    5  A    between atoms: C_15  and  C_16
REMARK                            x       y       z     vdW  Elec       q    Type
REMARK                         _______ _______ _______ _____ _____    ______ ____
ROOT
ATOM      1  C   UNL     1       1.668   8.011  20.163  0.00  0.00    +0.000 A 
ATOM      2  C   UNL     1       2.425   6.924  19.768  0.00  0.00    +0.000 A 
ATOM      3  N   UNL     1       2.857   7.155  18.488  0.00  0.00    +0.000 N 
ATOM      4  N   UNL     1       2.464   8.370  18.052  0.00  0.00    +0.000 NA
ATOM      5  C   UNL     1       1.712   8.894  19.033  0.00  0.00    +0.000 A 
ENDROOT
BRANCH   5   6
ATOM      6  C   UNL     1       1.063  10.199  18.826  0.00  0.00    +0.000 A 
ATOM      7  C   UNL     1      -0.323  10.256  18.579  0.00  0.00    +0.000 A 
ATOM      8  C   UNL     1      -0.964  11.477  18.350  0.00  0.00    +0.000 A 
ATOM      9  C   UNL     1      -0.228  12.652  18.385  0.00  0.00    +0.000 A 
ATOM     10  F   UNL     1      -0.835  13.823  18.158  0.00  0.00    +0.000 F 
ATOM     11  C   UNL     1       1.135  12.628  18.640  0.00  0.00    +0.000 A 
ATOM     12  C   UNL     1       1.780  11.403  18.845  0.00  0.00    +0.000 A 
ENDBRANCH   5   6
BRANCH   3  13
ATOM     13  C   UNL     1       3.570   6.264  17.640  0.00  0.00    +0.000 A 
ATOM     14  C   UNL     1       4.552   6.741  16.759  0.00  0.00    +0.000 A 
ATOM     15  C   UNL     1       5.295   5.847  15.986  0.00  0.00    +0.000 A 
ATOM     16  C   UNL     1       5.052   4.479  16.072  0.00  0.00    +0.000 A 
ATOM     17  C   UNL     1       4.061   3.997  16.927  0.00  0.00    +0.000 A 
ATOM     18  C   UNL     1       3.321   4.885  17.712  0.00  0.00    +0.000 A 
ENDBRANCH   3  13
BRANCH   1  19
ATOM     19  C   UNL     1       0.953   8.200  21.455  0.00  0.00    +0.000 C 
BRANCH  19  22
ATOM     20  O   UNL     1       0.254   9.636  23.811  0.00  0.00    +0.000 OA
ATOM     21  C   UNL     1       0.007  10.094  22.707  0.00  0.00    +0.000 C 
ATOM     22  N   UNL     1       0.302   9.486  21.508  0.00  0.00    +0.000 N 
ATOM     23  H   UNL     1       0.064   9.977  20.655  0.00  0.00    +0.000 HD
BRANCH  21  24
ATOM     24  C   UNL     1      -0.681  11.454  22.580  0.00  0.00    +0.000 A 
ATOM     25  C   UNL     1      -2.033  11.553  23.172  0.00  0.00    +0.000 A 
ATOM     26  C   UNL     1      -2.660  12.723  23.058  0.00  0.00    +0.000 A 
ATOM     27  C   UNL     1      -2.005  13.853  22.368  0.00  0.00    +0.000 A 
ATOM     28  O   UNL     1      -2.576  14.930  22.243  0.00  0.00    +0.000 OA
ATOM     29  N   UNL     1      -0.738  13.613  21.891  0.00  0.00    +0.000 N 
ATOM     30  N   UNL     1      -0.059  12.421  21.975  0.00  0.00    +0.000 NA
ATOM     31  H   UNL     1      -0.271  14.379  21.417  0.00  0.00    +0.000 HD
ENDBRANCH  21  24
ENDBRANCH  19  22
ENDBRANCH   1  19
TORSDOF 5
ENDMDL
MODEL 7
REMARK VINA RESULT:      -7.9      7.394      9.195
REMARK  Name = 
REMARK  5 active torsions:
REMARK  status: ('A' for Active; 'I' for Inactive)
REMARK    1  A    between atoms: C_2  and  C_23
REMARK    2  A    between atoms: N_3  and  C_4
REMARK    3  A    between atoms: C_4  and  C_5
REMARK    4  A    between atoms: N_7  and  C_8
REMARK    5  A    between atoms: C_15  and  C_16
REMARK                            x       y       z     vdW  Elec       q    Type
REMARK                         _______ _______ _______ _____ _____    ______ ____
ROOT
ATOM      1  C   UNL     1       1.536   7.968  20.183  0.00  0.00    +0.000 A 
ATOM      2  C   UNL     1       2.346   6.908  19.822  0.00  0.00    +0.000 A 
ATOM      3  N   UNL     1       2.845   7.166  18.572  0.00  0.00    +0.000 N 
ATOM      4  N   UNL     1       2.444   8.374  18.126  0.00  0.00    +0.000 NA
ATOM      5  C   UNL     1       1.621   8.866  19.066  0.00  0.00    +0.000 A 
ENDROOT
BRANCH   5   6
ATOM      6  C   UNL     1       0.947  10.154  18.834  0.00  0.00    +0.000 A 
ATOM      7  C   UNL     1       1.693  11.348  18.882  0.00  0.00    +0.000 A 
ATOM      8  C   UNL     1       1.077  12.590  18.694  0.00  0.00    +0.000 A 
ATOM      9  C   UNL     1      -0.285  12.644  18.437  0.00  0.00    +0.000 A 
ATOM     10  F   UNL     1      -0.881  13.830  18.264  0.00  0.00    +0.000 F 
ATOM     11  C   UNL     1      -1.042  11.484  18.369  0.00  0.00    +0.000 A 
ATOM     12  C   UNL     1      -0.429  10.244  18.581  0.00  0.00    +0.000 A 
ENDBRANCH   5   6
BRANCH   3  13
ATOM     13  C   UNL     1       3.632   6.305  17.758  0.00  0.00    +0.000 A 
ATOM     14  C   UNL     1       3.432   4.917  17.777  0.00  0.00    +0.000 A 
ATOM     15  C   UNL     1       4.161   4.092  16.919  0.00  0.00    +0.000 A 
ATOM     16  C   UNL     1       5.104   4.641  16.055  0.00  0.00    +0.000 A 
ATOM     17  C   UNL     1       5.328   6.017  16.048  0.00  0.00    +0.000 A 
ATOM     18  C   UNL     1       4.594   6.851  16.895  0.00  0.00    +0.000 A 
ENDBRANCH   3  13
BRANCH   1  19
ATOM     19  C   UNL     1       0.742   8.123  21.432  0.00  0.00    +0.000 C 
BRANCH  19  22
ATOM     20  O   UNL     1       0.346   9.678  23.782  0.00  0.00    +0.000 OA
ATOM     21  C   UNL     1      -0.021  10.091  22.695  0.00  0.00    +0.000 C 
ATOM     22  N   UNL     1       0.122   9.423  21.500  0.00  0.00    +0.000 N 
ATOM     23  H   UNL     1      -0.207   9.880  20.657  0.00  0.00    +0.000 HD
BRANCH  21  24
ATOM     24  C   UNL     1      -0.698  11.457  22.585  0.00  0.00    +0.000 A 
ATOM     25  C   UNL     1      -2.068  11.548  23.134  0.00  0.00    +0.000 A 
ATOM     26  C   UNL     1      -2.685  12.724  23.034  0.00  0.00    +0.000 A 
ATOM     27  C   UNL     1      -2.003  13.869  22.398  0.00  0.00    +0.000 A 
ATOM     28  O   UNL     1      -2.564  14.953  22.286  0.00  0.00    +0.000 OA
ATOM     29  N   UNL     1      -0.722  13.635  21.956  0.00  0.00    +0.000 N 
ATOM     30  N   UNL     1      -0.052  12.438  22.028  0.00  0.00    +0.000 NA
ATOM     31  H   UNL     1      -0.236  14.412  21.519  0.00  0.00    +0.000 HD
ENDBRANCH  21  24
ENDBRANCH  19  22
ENDBRANCH   1  19
TORSDOF 5
ENDMDL
MODEL 8
REMARK VINA RESULT:      -7.9      8.665     10.418
REMARK  Name = 
REMARK  5 active torsions:
REMARK  status: ('A' for Active; 'I' for Inactive)
REMARK    1  A    between atoms: C_2  and  C_23
REMARK    2  A    between atoms: N_3  and  C_4
REMARK    3  A    between atoms: C_4  and  C_5
REMARK    4  A    between atoms: N_7  and  C_8
REMARK    5  A    between atoms: C_15  and  C_16
REMARK                            x       y       z     vdW  Elec       q    Type
REMARK                         _______ _______ _______ _____ _____    ______ ____
ROOT
ATOM      1  C   UNL     1       0.670   9.462  21.694  0.00  0.00    +0.000 A 
ATOM      2  C   UNL     1       1.169   8.178  21.581  0.00  0.00    +0.000 A 
ATOM      3  N   UNL     1       1.610   8.009  20.294  0.00  0.00    +0.000 N 
ATOM      4  N   UNL     1       1.473   9.146  19.579  0.00  0.00    +0.000 NA
ATOM      5  C   UNL     1       0.874  10.030  20.392  0.00  0.00    +0.000 A 
ENDROOT
BRANCH   5   6
ATOM      6  C   UNL     1       0.511  11.359  19.872  0.00  0.00    +0.000 A 
ATOM      7  C   UNL     1      -0.456  11.468  18.854  0.00  0.00    +0.000 A 
ATOM      8  C   UNL     1      -0.802  12.713  18.320  0.00  0.00    +0.000 A 
ATOM      9  C   UNL     1      -0.196  13.859  18.812  0.00  0.00    +0.000 A 
ATOM     10  F   UNL     1      -0.517  15.053  18.299  0.00  0.00    +0.000 F 
ATOM     11  C   UNL     1       0.749  13.784  19.824  0.00  0.00    +0.000 A 
ATOM     12  C   UNL     1       1.112  12.535  20.342  0.00  0.00    +0.000 A 
ENDBRANCH   5   6
BRANCH   3  13
ATOM     13  C   UNL     1       2.097   6.816  19.693  0.00  0.00    +0.000 A 
ATOM     14  C   UNL     1       2.692   6.842  18.424  0.00  0.00    +0.000 A 
ATOM     15  C   UNL     1       3.231   5.676  17.878  0.00  0.00    +0.000 A 
ATOM     16  C   UNL     1       3.166   4.478  18.585  0.00  0.00    +0.000 A 
ATOM     17  C   UNL     1       2.555   4.438  19.838  0.00  0.00    +0.000 A 
ATOM     18  C   UNL     1       2.023   5.604  20.395  0.00  0.00    +0.000 A 
ENDBRANCH   3  13
BRANCH   1  19
ATOM     19  C   UNL     1       0.043  10.092  22.888  0.00  0.00    +0.000 C 
BRANCH  19  22
ATOM     20  O   UNL     1      -0.852  12.752  23.360  0.00  0.00    +0.000 OA
ATOM     21  C   UNL     1      -1.592  11.929  22.848  0.00  0.00    +0.000 C 
ATOM     22  N   UNL     1      -1.262  10.620  22.575  0.00  0.00    +0.000 N 
ATOM     23  H   UNL     1      -1.960  10.037  22.129  0.00  0.00    +0.000 HD
BRANCH  21  24
ATOM     24  C   UNL     1      -3.015  12.323  22.450  0.00  0.00    +0.000 A 
ATOM     25  C   UNL     1      -3.203  12.735  21.041  0.00  0.00    +0.000 A 
ATOM     26  C   UNL     1      -4.430  13.100  20.674  0.00  0.00    +0.000 A 
ATOM     27  C   UNL     1      -5.534  13.082  21.655  0.00  0.00    +0.000 A 
ATOM     28  O   UNL     1      -6.665  13.429  21.335  0.00  0.00    +0.000 OA
ATOM     29  N   UNL     1      -5.208  12.653  22.920  0.00  0.00    +0.000 N 
ATOM     30  N   UNL     1      -3.956  12.279  23.345  0.00  0.00    +0.000 NA
ATOM     31  H   UNL     1      -5.956  12.631  23.606  0.00  0.00    +0.000 HD
ENDBRANCH  21  24
ENDBRANCH  19  22
ENDBRANCH   1  19
TORSDOF 5
ENDMDL
MODEL 9
REMARK VINA RESULT:      -7.8      4.307      6.582
REMARK  Name = 
REMARK  5 active torsions:
REMARK  status: ('A' for Active; 'I' for Inactive)
REMARK    1  A    between atoms: C_2  and  C_23
REMARK    2  A    between atoms: N_3  and  C_4
REMARK    3  A    between atoms: C_4  and  C_5
REMARK    4  A    between atoms: N_7  and  C_8
REMARK    5  A    between atoms: C_15  and  C_16
REMARK                            x       y       z     vdW  Elec       q    Type
REMARK                         _______ _______ _______ _____ _____    ______ ____
ROOT
ATOM      1  C   UNL     1       4.080   7.225  17.733  0.00  0.00    +0.000 A 
ATOM      2  C   UNL     1       3.393   8.411  17.915  0.00  0.00    +0.000 A 
ATOM      3  N   UNL     1       2.203   8.119  18.530  0.00  0.00    +0.000 N 
ATOM      4  N   UNL     1       2.111   6.802  18.811  0.00  0.00    +0.000 NA
ATOM      5  C   UNL     1       3.217   6.232  18.306  0.00  0.00    +0.000 A 
ENDROOT
BRANCH   5   6
ATOM      6  C   UNL     1       3.375   4.771  18.383  0.00  0.00    +0.000 A 
ATOM      7  C   UNL     1       2.657   3.946  17.495  0.00  0.00    +0.000 A 
ATOM      8  C   UNL     1       2.764   2.553  17.560  0.00  0.00    +0.000 A 
ATOM      9  C   UNL     1       3.604   1.976  18.502  0.00  0.00    +0.000 A 
ATOM     10  F   UNL     1       3.705   0.644  18.575  0.00  0.00    +0.000 F 
ATOM     11  C   UNL     1       4.334   2.764  19.380  0.00  0.00    +0.000 A 
ATOM     12  C   UNL     1       4.208   4.157  19.328  0.00  0.00    +0.000 A 
ENDBRANCH   5   6
BRANCH   3  13
ATOM     13  C   UNL     1       1.132   9.009  18.813  0.00  0.00    +0.000 A 
ATOM     14  C   UNL     1       0.311   9.495  17.785  0.00  0.00    +0.000 A 
ATOM     15  C   UNL     1      -0.781  10.310  18.085  0.00  0.00    +0.000 A 
ATOM     16  C   UNL     1      -1.051  10.659  19.405  0.00  0.00    +0.000 A 
ATOM     17  C   UNL     1      -0.226  10.201  20.432  0.00  0.00    +0.000 A 
ATOM     18  C   UNL     1       0.863   9.375  20.140  0.00  0.00    +0.000 A 
ENDBRANCH   3  13
BRANCH   1  19
ATOM     19  C   UNL     1       5.398   7.030  17.070  0.00  0.00    +0.000 C 
BRANCH  19  22
ATOM     20  O   UNL     1       7.555   5.756  15.721  0.00  0.00    +0.000 OA
ATOM     21  C   UNL     1       6.403   5.571  15.364  0.00  0.00    +0.000 C 
ATOM     22  N   UNL     1       5.290   6.135  15.945  0.00  0.00    +0.000 N 
ATOM     23  H   UNL     1       4.382   5.888  15.570  0.00  0.00    +0.000 HD
BRANCH  21  24
ATOM     24  C   UNL     1       6.107   4.645  14.185  0.00  0.00    +0.000 A 
ATOM     25  C   UNL     1       7.202   4.472  13.205  0.00  0.00    +0.000 A 
ATOM     26  C   UNL     1       6.962   3.683  12.159  0.00  0.00    +0.000 A 
ATOM     27  C   UNL     1       5.649   3.022  12.014  0.00  0.00    +0.000 A 
ATOM     28  O   UNL     1       5.410   2.306  11.049  0.00  0.00    +0.000 OA
ATOM     29  N   UNL     1       4.741   3.262  13.018  0.00  0.00    +0.000 N 
ATOM     30  N   UNL     1       4.942   4.076  14.106  0.00  0.00    +0.000 NA
ATOM     31  H   UNL     1       3.834   2.813  12.936  0.00  0.00    +0.000 HD
ENDBRANCH  21  24
ENDBRANCH  19  22
ENDBRANCH   1  19
TORSDOF 5
ENDMDL
