MODEL 1
REMARK VINA RESULT:      -8.5      0.000      0.000
REMARK  Name = 
REMARK  8 active torsions:
REMARK  status: ('A' for Active; 'I' for Inactive)
REMARK    1  A    between atoms: C_1  and  N_2
REMARK    2  A    between atoms: N_2  and  C_18
REMARK    3  A    between atoms: C_3  and  C_5
REMARK    4  A    between atoms: C_9  and  O_10
REMARK    5  A    between atoms: O_10  and  C_11
REMARK    6  A    between atoms: C_19  and  N_20
REMARK    7  A    between atoms: N_21  and  C_22
REMARK    8  A    between atoms: C_22  and  C_23
REMARK                            x       y       z     vdW  Elec       q    Type
REMARK                         _______ _______ _______ _____ _____    ______ ____
ROOT
ATOM      1  C   UNL     1      -1.049  11.509  21.320  0.00  0.00    +0.000 A 
ATOM      2  C   UNL     1      -1.997  12.304  20.761  0.00  0.00    +0.000 A 
ATOM      3  N   UNL     1      -3.044  12.783  21.543  0.00  0.00    +0.000 N 
ATOM      4  C   UNL     1      -3.134  12.524  22.910  0.00  0.00    +0.000 A 
ATOM      5  O   UNL     1      -4.035  12.951  23.642  0.00  0.00    +0.000 OA
ATOM      6  N   UNL     1      -2.165  11.741  23.449  0.00  0.00    +0.000 N 
ATOM      7  C   UNL     1      -1.069  11.267  22.793  0.00  0.00    +0.000 A 
ATOM      8  O   UNL     1      -0.126  10.771  23.403  0.00  0.00    +0.000 OA
ATOM      9  H   UNL     1      -2.194  11.605  24.449  0.00  0.00    +0.000 HD
ENDROOT
BRANCH   1  11
ATOM     10  C   UNL     1       1.194  11.843  20.460  0.00  0.00    +0.000 C 
ATOM     11  N   UNL     1       0.017  10.974  20.585  0.00  0.00    +0.000 N 
ATOM     12  C   UNL     1      -0.036   9.612  20.250  0.00  0.00    +0.000 C 
ATOM     13  O   UNL     1      -0.993   8.888  20.529  0.00  0.00    +0.000 OA
BRANCH  12  14
ATOM     14  C   UNL     1       1.073   8.993  19.475  0.00  0.00    +0.000 A 
ATOM     15  C   UNL     1       1.466   9.594  18.272  0.00  0.00    +0.000 A 
ATOM     16  C   UNL     1       2.398   8.964  17.450  0.00  0.00    +0.000 A 
ATOM     17  C   UNL     1       2.947   7.742  17.835  0.00  0.00    +0.000 A 
ATOM     18  C   UNL     1       2.679   7.224  19.106  0.00  0.00    +0.000 A 
ATOM     19  C   UNL     1       1.745   7.854  19.927  0.00  0.00    +0.000 A 
BRANCH  18  20
ATOM     20  O   UNL     1       3.243   6.073  19.615  0.00  0.00    +0.000 OA
BRANCH  20  21
ATOM     21  C   UNL     1       2.490   4.920  19.646  0.00  0.00    +0.000 A 
ATOM     22  C   UNL     1       2.036   4.329  20.829  0.00  0.00    +0.000 A 
ATOM     23  C   UNL     1       1.372   3.106  20.785  0.00  0.00    +0.000 A 
ATOM     24  C   UNL     1       1.092   2.511  19.558  0.00  0.00    +0.000 A 
ATOM     25  C   UNL     1       1.459   3.148  18.372  0.00  0.00    +0.000 A 
ATOM     26  C   UNL     1       2.161   4.353  18.415  0.00  0.00    +0.000 A 
ENDBRANCH  20  21
ENDBRANCH  18  20
ENDBRANCH  12  14
ENDBRANCH   1  11
BRANCH   2  27
ATOM     27  N   UNL     1      -1.910  12.594  19.403  0.00  0.00    +0.000 N 
ATOM     28  H   UNL     1      -2.600  13.293  19.130  0.00  0.00    +0.000 HD
ATOM     29  H   UNL     1      -0.988  12.804  19.047  0.00  0.00    +0.000 HD
ENDBRANCH   2  27
BRANCH   3  30
ATOM     30  C   UNL     1      -4.178  13.504  20.964  0.00  0.00    +0.000 C 
BRANCH  30  31
ATOM     31  C   UNL     1      -5.406  12.683  20.627  0.00  0.00    +0.000 A 
ATOM     32  C   UNL     1      -6.538  12.610  21.449  0.00  0.00    +0.000 A 
ATOM     33  C   UNL     1      -7.593  11.751  21.132  0.00  0.00    +0.000 A 
ATOM     34  C   UNL     1      -7.539  10.968  19.980  0.00  0.00    +0.000 A 
ATOM     35  C   UNL     1      -6.443  11.064  19.128  0.00  0.00    +0.000 A 
ATOM     36  C   UNL     1      -5.388  11.919  19.447  0.00  0.00    +0.000 A 
ENDBRANCH  30  31
ENDBRANCH   3  30
TORSDOF 7
ENDMDL
MODEL 2
REMARK VINA RESULT:      -7.9      1.031      1.309
REMARK  Name = 
REMARK  8 active torsions:
REMARK  status: ('A' for Active; 'I' for Inactive)
REMARK    1  A    between atoms: C_1  and  N_2
REMARK    2  A    between atoms: N_2  and  C_18
REMARK    3  A    between atoms: C_3  and  C_5
REMARK    4  A    between atoms: C_9  and  O_10
REMARK    5  A    between atoms: O_10  and  C_11
REMARK    6  A    between atoms: C_19  and  N_20
REMARK    7  A    between atoms: N_21  and  C_22
REMARK    8  A    between atoms: C_22  and  C_23
REMARK                            x       y       z     vdW  Elec       q    Type
REMARK                         _______ _______ _______ _____ _____    ______ ____
ROOT
ATOM      1  C   UNL     1      -1.490  12.024  21.079  0.00  0.00    +0.000 A 
ATOM      2  C   UNL     1      -2.592  12.542  20.480  0.00  0.00    +0.000 A 
ATOM      3  N   UNL     1      -3.618  13.068  21.260  0.00  0.00    +0.000 N 
ATOM      4  C   UNL     1      -3.539  13.136  22.650  0.00  0.00    +0.000 A 
ATOM      5  O   UNL     1      -4.418  13.617  23.376  0.00  0.00    +0.000 OA
ATOM      6  N   UNL     1      -2.419  12.628  23.225  0.00  0.00    +0.000 N 
ATOM      7  C   UNL     1      -1.333  12.143  22.558  0.00  0.00    +0.000 A 
ATOM      8  O   UNL     1      -0.274  11.924  23.140  0.00  0.00    +0.000 OA
ATOM      9  H   UNL     1      -2.332  12.733  24.225  0.00  0.00    +0.000 HD
ENDROOT
BRANCH   1  11
ATOM     10  C   UNL     1       0.597  12.403  19.900  0.00  0.00    +0.000 C 
ATOM     11  N   UNL     1      -0.433  11.458  20.354  0.00  0.00    +0.000 N 
ATOM     12  C   UNL     1      -0.327  10.059  20.333  0.00  0.00    +0.000 C 
ATOM     13  O   UNL     1      -1.145   9.315  20.877  0.00  0.00    +0.000 OA
BRANCH  12  14
ATOM     14  C   UNL     1       0.780   9.408  19.582  0.00  0.00    +0.000 A 
ATOM     15  C   UNL     1       1.204   9.985  18.379  0.00  0.00    +0.000 A 
ATOM     16  C   UNL     1       2.135   9.326  17.579  0.00  0.00    +0.000 A 
ATOM     17  C   UNL     1       2.652   8.098  17.987  0.00  0.00    +0.000 A 
ATOM     18  C   UNL     1       2.354   7.601  19.259  0.00  0.00    +0.000 A 
ATOM     19  C   UNL     1       1.422   8.260  20.058  0.00  0.00    +0.000 A 
BRANCH  18  20
ATOM     20  O   UNL     1       2.886   6.445  19.791  0.00  0.00    +0.000 OA
BRANCH  20  21
ATOM     21  C   UNL     1       3.018   5.339  18.981  0.00  0.00    +0.000 A 
ATOM     22  C   UNL     1       1.930   4.632  18.459  0.00  0.00    +0.000 A 
ATOM     23  C   UNL     1       2.143   3.461  17.736  0.00  0.00    +0.000 A 
ATOM     24  C   UNL     1       3.442   3.038  17.466  0.00  0.00    +0.000 A 
ATOM     25  C   UNL     1       4.530   3.796  17.903  0.00  0.00    +0.000 A 
ATOM     26  C   UNL     1       4.318   4.947  18.663  0.00  0.00    +0.000 A 
ENDBRANCH  20  21
ENDBRANCH  18  20
ENDBRANCH  12  14
ENDBRANCH   1  11
BRANCH   2  27
ATOM     27  N   UNL     1      -2.679  12.506  19.091  0.00  0.00    +0.000 N 
ATOM     28  H   UNL     1      -2.248  13.328  18.673  0.00  0.00    +0.000 HD
ATOM     29  H   UNL     1      -2.384  11.647  18.646  0.00  0.00    +0.000 HD
ENDBRANCH   2  27
BRANCH   3  30
ATOM     30  C   UNL     1      -4.895  13.488  20.682  0.00  0.00    +0.000 C 
BRANCH  30  31
ATOM     31  C   UNL     1      -6.003  12.455  20.656  0.00  0.00    +0.000 A 
ATOM     32  C   UNL     1      -6.981  12.344  21.652  0.00  0.00    +0.000 A 
ATOM     33  C   UNL     1      -7.910  11.301  21.622  0.00  0.00    +0.000 A 
ATOM     34  C   UNL     1      -7.888  10.370  20.586  0.00  0.00    +0.000 A 
ATOM     35  C   UNL     1      -6.953  10.494  19.563  0.00  0.00    +0.000 A 
ATOM     36  C   UNL     1      -6.022  11.533  19.595  0.00  0.00    +0.000 A 
ENDBRANCH  30  31
ENDBRANCH   3  30
TORSDOF 7
ENDMDL
MODEL 3
REMARK VINA RESULT:      -7.8      1.781      2.351
REMARK  Name = 
REMARK  8 active torsions:
REMARK  status: ('A' for Active; 'I' for Inactive)
REMARK    1  A    between atoms: C_1  and  N_2
REMARK    2  A    between atoms: N_2  and  C_18
REMARK    3  A    between atoms: C_3  and  C_5
REMARK    4  A    between atoms: C_9  and  O_10
REMARK    5  A    between atoms: O_10  and  C_11
REMARK    6  A    between atoms: C_19  and  N_20
REMARK    7  A    between atoms: N_21  and  C_22
REMARK    8  A    between atoms: C_22  and  C_23
REMARK                            x       y       z     vdW  Elec       q    Type
REMARK                         _______ _______ _______ _____ _____    ______ ____
ROOT
ATOM      1  C   UNL     1      -0.771  12.862  20.467  0.00  0.00    +0.000 A 
ATOM      2  C   UNL     1      -1.676  12.721  21.468  0.00  0.00    +0.000 A 
ATOM      3  N   UNL     1      -2.610  13.727  21.701  0.00  0.00    +0.000 N 
ATOM      4  C   UNL     1      -2.693  14.867  20.903  0.00  0.00    +0.000 A 
ATOM      5  O   UNL     1      -3.524  15.771  21.063  0.00  0.00    +0.000 OA
ATOM      6  N   UNL     1      -1.789  14.977  19.896  0.00  0.00    +0.000 N 
ATOM      7  C   UNL     1      -0.872  14.032  19.545  0.00  0.00    +0.000 A 
ATOM      8  O   UNL     1      -0.256  14.105  18.485  0.00  0.00    +0.000 OA
ATOM      9  H   UNL     1      -1.888  15.770  19.280  0.00  0.00    +0.000 HD
ENDROOT
BRANCH   1  11
ATOM     10  C   UNL     1       1.525  12.152  20.798  0.00  0.00    +0.000 C 
ATOM     11  N   UNL     1       0.210  11.899  20.195  0.00  0.00    +0.000 N 
ATOM     12  C   UNL     1      -0.200  10.698  19.596  0.00  0.00    +0.000 C 
ATOM     13  O   UNL     1      -1.364  10.479  19.256  0.00  0.00    +0.000 OA
BRANCH  12  14
ATOM     14  C   UNL     1       0.801   9.640  19.291  0.00  0.00    +0.000 A 
ATOM     15  C   UNL     1       1.470   9.685  18.061  0.00  0.00    +0.000 A 
ATOM     16  C   UNL     1       2.303   8.634  17.683  0.00  0.00    +0.000 A 
ATOM     17  C   UNL     1       2.479   7.547  18.537  0.00  0.00    +0.000 A 
ATOM     18  C   UNL     1       1.942   7.577  19.828  0.00  0.00    +0.000 A 
ATOM     19  C   UNL     1       1.108   8.628  20.205  0.00  0.00    +0.000 A 
BRANCH  18  20
ATOM     20  O   UNL     1       2.136   6.596  20.777  0.00  0.00    +0.000 OA
BRANCH  20  21
ATOM     21  C   UNL     1       2.163   5.279  20.377  0.00  0.00    +0.000 A 
ATOM     22  C   UNL     1       3.326   4.625  19.956  0.00  0.00    +0.000 A 
ATOM     23  C   UNL     1       3.254   3.325  19.464  0.00  0.00    +0.000 A 
ATOM     24  C   UNL     1       2.037   2.648  19.465  0.00  0.00    +0.000 A 
ATOM     25  C   UNL     1       0.894   3.265  19.974  0.00  0.00    +0.000 A 
ATOM     26  C   UNL     1       0.955   4.582  20.429  0.00  0.00    +0.000 A 
ENDBRANCH  20  21
ENDBRANCH  18  20
ENDBRANCH  12  14
ENDBRANCH   1  11
BRANCH   2  27
ATOM     27  N   UNL     1      -1.625  11.578  22.261  0.00  0.00    +0.000 N 
ATOM     28  H   UNL     1      -0.780  11.562  22.830  0.00  0.00    +0.000 HD
ATOM     29  H   UNL     1      -2.455  11.366  22.796  0.00  0.00    +0.000 HD
ENDBRANCH   2  27
BRANCH   3  30
ATOM     30  C   UNL     1      -3.500  13.707  22.863  0.00  0.00    +0.000 C 
BRANCH  30  31
ATOM     31  C   UNL     1      -4.914  13.216  22.629  0.00  0.00    +0.000 A 
ATOM     32  C   UNL     1      -5.910  13.232  23.613  0.00  0.00    +0.000 A 
ATOM     33  C   UNL     1      -7.164  12.666  23.364  0.00  0.00    +0.000 A 
ATOM     34  C   UNL     1      -7.443  12.096  22.123  0.00  0.00    +0.000 A 
ATOM     35  C   UNL     1      -6.480  12.115  21.120  0.00  0.00    +0.000 A 
ATOM     36  C   UNL     1      -5.227  12.676  21.370  0.00  0.00    +0.000 A 
ENDBRANCH  30  31
ENDBRANCH   3  30
TORSDOF 7
ENDMDL
MODEL 4
REMARK VINA RESULT:      -7.8      1.133      1.430
REMARK  Name = 
REMARK  8 active torsions:
REMARK  status: ('A' for Active; 'I' for Inactive)
REMARK    1  A    between atoms: C_1  and  N_2
REMARK    2  A    between atoms: N_2  and  C_18
REMARK    3  A    between atoms: C_3  and  C_5
REMARK    4  A    between atoms: C_9  and  O_10
REMARK    5  A    between atoms: O_10  and  C_11
REMARK    6  A    between atoms: C_19  and  N_20
REMARK    7  A    between atoms: N_21  and  C_22
REMARK    8  A    between atoms: C_22  and  C_23
REMARK                            x       y       z     vdW  Elec       q    Type
REMARK                         _______ _______ _______ _____ _____    ______ ____
ROOT
ATOM      1  C   UNL     1      -0.901  10.614  21.343  0.00  0.00    +0.000 A 
ATOM      2  C   UNL     1      -1.671  11.413  20.561  0.00  0.00    +0.000 A 
ATOM      3  N   UNL     1      -2.418  12.434  21.142  0.00  0.00    +0.000 N 
ATOM      4  C   UNL     1      -2.367  12.712  22.507  0.00  0.00    +0.000 A 
ATOM      5  O   UNL     1      -2.996  13.625  23.056  0.00  0.00    +0.000 OA
ATOM      6  N   UNL     1      -1.575  11.911  23.265  0.00  0.00    +0.000 N 
ATOM      7  C   UNL     1      -0.762  10.923  22.797  0.00  0.00    +0.000 A 
ATOM      8  O   UNL     1       0.092  10.409  23.513  0.00  0.00    +0.000 OA
ATOM      9  H   UNL     1      -1.488  12.151  24.243  0.00  0.00    +0.000 HD
ENDROOT
BRANCH   1  11
ATOM     10  C   UNL     1      -0.679   8.212  21.088  0.00  0.00    +0.000 C 
ATOM     11  N   UNL     1      -0.144   9.555  20.826  0.00  0.00    +0.000 N 
ATOM     12  C   UNL     1       0.888   9.865  19.927  0.00  0.00    +0.000 C 
ATOM     13  O   UNL     1       1.186  11.020  19.618  0.00  0.00    +0.000 OA
BRANCH  12  14
ATOM     14  C   UNL     1       1.718   8.777  19.344  0.00  0.00    +0.000 A 
ATOM     15  C   UNL     1       2.179   8.917  18.029  0.00  0.00    +0.000 A 
ATOM     16  C   UNL     1       2.834   7.858  17.402  0.00  0.00    +0.000 A 
ATOM     17  C   UNL     1       3.040   6.665  18.094  0.00  0.00    +0.000 A 
ATOM     18  C   UNL     1       2.727   6.581  19.454  0.00  0.00    +0.000 A 
ATOM     19  C   UNL     1       2.071   7.640  20.079  0.00  0.00    +0.000 A 
BRANCH  18  20
ATOM     20  O   UNL     1       2.976   5.481  20.246  0.00  0.00    +0.000 OA
BRANCH  20  21
ATOM     21  C   UNL     1       2.565   4.241  19.812  0.00  0.00    +0.000 A 
ATOM     22  C   UNL     1       3.441   3.266  19.323  0.00  0.00    +0.000 A 
ATOM     23  C   UNL     1       2.938   2.077  18.802  0.00  0.00    +0.000 A 
ATOM     24  C   UNL     1       1.570   1.826  18.840  0.00  0.00    +0.000 A 
ATOM     25  C   UNL     1       0.703   2.756  19.416  0.00  0.00    +0.000 A 
ATOM     26  C   UNL     1       1.200   3.966  19.901  0.00  0.00    +0.000 A 
ENDBRANCH  20  21
ENDBRANCH  18  20
ENDBRANCH  12  14
ENDBRANCH   1  11
BRANCH   2  27
ATOM     27  N   UNL     1      -1.716  11.166  19.192  0.00  0.00    +0.000 N 
ATOM     28  H   UNL     1      -2.675  11.037  18.872  0.00  0.00    +0.000 HD
ATOM     29  H   UNL     1      -1.196  11.802  18.604  0.00  0.00    +0.000 HD
ENDBRANCH   2  27
BRANCH   3  30
ATOM     30  C   UNL     1      -3.389  13.217  20.377  0.00  0.00    +0.000 C 
BRANCH  30  31
ATOM     31  C   UNL     1      -4.757  12.598  20.177  0.00  0.00    +0.000 A 
ATOM     32  C   UNL     1      -5.737  12.550  21.176  0.00  0.00    +0.000 A 
ATOM     33  C   UNL     1      -6.939  11.870  20.960  0.00  0.00    +0.000 A 
ATOM     34  C   UNL     1      -7.184  11.248  19.737  0.00  0.00    +0.000 A 
ATOM     35  C   UNL     1      -6.240  11.327  18.718  0.00  0.00    +0.000 A 
ATOM     36  C   UNL     1      -5.038  12.003  18.935  0.00  0.00    +0.000 A 
ENDBRANCH  30  31
ENDBRANCH   3  30
TORSDOF 7
ENDMDL
MODEL 5
REMARK VINA RESULT:      -7.8      2.192      2.942
REMARK  Name = 
REMARK  8 active torsions:
REMARK  status: ('A' for Active; 'I' for Inactive)
REMARK    1  A    between atoms: C_1  and  N_2
REMARK    2  A    between atoms: N_2  and  C_18
REMARK    3  A    between atoms: C_3  and  C_5
REMARK    4  A    between atoms: C_9  and  O_10
REMARK    5  A    between atoms: O_10  and  C_11
REMARK    6  A    between atoms: C_19  and  N_20
REMARK    7  A    between atoms: N_21  and  C_22
REMARK    8  A    between atoms: C_22  and  C_23
REMARK                            x       y       z     vdW  Elec       q    Type
REMARK                         _______ _______ _______ _____ _____    ______ ____
ROOT
ATOM      1  C   UNL     1      -0.942  12.284  20.158  0.00  0.00    +0.000 A 
ATOM      2  C   UNL     1      -1.483  12.474  21.388  0.00  0.00    +0.000 A 
ATOM      3  N   UNL     1      -1.922  13.741  21.761  0.00  0.00    +0.000 N 
ATOM      4  C   UNL     1      -1.878  14.831  20.893  0.00  0.00    +0.000 A 
ATOM      5  O   UNL     1      -2.280  15.966  21.179  0.00  0.00    +0.000 OA
ATOM      6  N   UNL     1      -1.349  14.612  19.662  0.00  0.00    +0.000 N 
ATOM      7  C   UNL     1      -0.943  13.406  19.174  0.00  0.00    +0.000 A 
ATOM      8  O   UNL     1      -0.700  13.251  17.980  0.00  0.00    +0.000 OA
ATOM      9  H   UNL     1      -1.375  15.384  19.011  0.00  0.00    +0.000 HD
ENDROOT
BRANCH   1  11
ATOM     10  C   UNL     1      -1.389  10.254  18.908  0.00  0.00    +0.000 C 
ATOM     11  N   UNL     1      -0.460  11.040  19.729  0.00  0.00    +0.000 N 
ATOM     12  C   UNL     1       0.905  10.769  19.910  0.00  0.00    +0.000 C 
ATOM     13  O   UNL     1       1.677  11.549  20.470  0.00  0.00    +0.000 OA
BRANCH  12  14
ATOM     14  C   UNL     1       1.469   9.465  19.468  0.00  0.00    +0.000 A 
ATOM     15  C   UNL     1       1.926   9.346  18.149  0.00  0.00    +0.000 A 
ATOM     16  C   UNL     1       2.324   8.103  17.659  0.00  0.00    +0.000 A 
ATOM     17  C   UNL     1       2.278   6.985  18.489  0.00  0.00    +0.000 A 
ATOM     18  C   UNL     1       1.979   7.132  19.846  0.00  0.00    +0.000 A 
ATOM     19  C   UNL     1       1.579   8.374  20.336  0.00  0.00    +0.000 A 
BRANCH  18  20
ATOM     20  O   UNL     1       1.997   6.105  20.766  0.00  0.00    +0.000 OA
BRANCH  20  21
ATOM     21  C   UNL     1       2.100   4.808  20.314  0.00  0.00    +0.000 A 
ATOM     22  C   UNL     1       3.319   4.194  20.007  0.00  0.00    +0.000 A 
ATOM     23  C   UNL     1       3.334   2.917  19.453  0.00  0.00    +0.000 A 
ATOM     24  C   UNL     1       2.141   2.221  19.278  0.00  0.00    +0.000 A 
ATOM     25  C   UNL     1       0.932   2.795  19.674  0.00  0.00    +0.000 A 
ATOM     26  C   UNL     1       0.911   4.091  20.191  0.00  0.00    +0.000 A 
ENDBRANCH  20  21
ENDBRANCH  18  20
ENDBRANCH  12  14
ENDBRANCH   1  11
BRANCH   2  27
ATOM     27  N   UNL     1      -1.558  11.392  22.260  0.00  0.00    +0.000 N 
ATOM     28  H   UNL     1      -2.471  11.342  22.709  0.00  0.00    +0.000 HD
ATOM     29  H   UNL     1      -1.260  10.499  21.893  0.00  0.00    +0.000 HD
ENDBRANCH   2  27
BRANCH   3  30
ATOM     30  C   UNL     1      -2.360  14.041  23.125  0.00  0.00    +0.000 C 
BRANCH  30  31
ATOM     31  C   UNL     1      -3.766  13.616  23.497  0.00  0.00    +0.000 A 
ATOM     32  C   UNL     1      -4.056  12.737  24.547  0.00  0.00    +0.000 A 
ATOM     33  C   UNL     1      -5.365  12.303  24.769  0.00  0.00    +0.000 A 
ATOM     34  C   UNL     1      -6.403  12.757  23.959  0.00  0.00    +0.000 A 
ATOM     35  C   UNL     1      -6.139  13.668  22.941  0.00  0.00    +0.000 A 
ATOM     36  C   UNL     1      -4.831  14.099  22.716  0.00  0.00    +0.000 A 
ENDBRANCH  30  31
ENDBRANCH   3  30
TORSDOF 7
ENDMDL
MODEL 6
REMARK VINA RESULT:      -7.8      2.259      2.983
REMARK  Name = 
REMARK  8 active torsions:
REMARK  status: ('A' for Active; 'I' for Inactive)
REMARK    1  A    between atoms: C_1  and  N_2
REMARK    2  A    between atoms: N_2  and  C_18
REMARK    3  A    between atoms: C_3  and  C_5
REMARK    4  A    between atoms: C_9  and  O_10
REMARK    5  A    between atoms: O_10  and  C_11
REMARK    6  A    between atoms: C_19  and  N_20
REMARK    7  A    between atoms: N_21  and  C_22
REMARK    8  A    between atoms: C_22  and  C_23
REMARK                            x       y       z     vdW  Elec       q    Type
REMARK                         _______ _______ _______ _____ _____    ______ ____
ROOT
ATOM      1  C   UNL     1      -0.349  13.159  20.399  0.00  0.00    +0.000 A 
ATOM      2  C   UNL     1      -1.002  13.235  21.587  0.00  0.00    +0.000 A 
ATOM      3  N   UNL     1      -1.858  14.303  21.837  0.00  0.00    +0.000 N 
ATOM      4  C   UNL     1      -2.121  15.287  20.884  0.00  0.00    +0.000 A 
ATOM      5  O   UNL     1      -2.893  16.239  21.059  0.00  0.00    +0.000 OA
ATOM      6  N   UNL     1      -1.471  15.179  19.697  0.00  0.00    +0.000 N 
ATOM      7  C   UNL     1      -0.658  14.150  19.327  0.00  0.00    +0.000 A 
ATOM      8  O   UNL     1      -0.300  14.009  18.161  0.00  0.00    +0.000 OA
ATOM      9  H   UNL     1      -1.708  15.855  18.985  0.00  0.00    +0.000 HD
ENDROOT
BRANCH   1  11
ATOM     10  C   UNL     1       1.946  12.374  20.450  0.00  0.00    +0.000 C 
ATOM     11  N   UNL     1       0.543  12.123  20.094  0.00  0.00    +0.000 N 
ATOM     12  C   UNL     1       0.004  10.884  19.713  0.00  0.00    +0.000 C 
ATOM     13  O   UNL     1      -1.206  10.688  19.587  0.00  0.00    +0.000 OA
BRANCH  12  14
ATOM     14  C   UNL     1       0.908   9.750  19.383  0.00  0.00    +0.000 A 
ATOM     15  C   UNL     1       1.551   9.745  18.139  0.00  0.00    +0.000 A 
ATOM     16  C   UNL     1       2.287   8.631  17.739  0.00  0.00    +0.000 A 
ATOM     17  C   UNL     1       2.392   7.530  18.587  0.00  0.00    +0.000 A 
ATOM     18  C   UNL     1       1.889   7.598  19.890  0.00  0.00    +0.000 A 
ATOM     19  C   UNL     1       1.152   8.712  20.288  0.00  0.00    +0.000 A 
BRANCH  18  20
ATOM     20  O   UNL     1       2.023   6.601  20.832  0.00  0.00    +0.000 OA
BRANCH  20  21
ATOM     21  C   UNL     1       2.114   5.294  20.409  0.00  0.00    +0.000 A 
ATOM     22  C   UNL     1       3.314   4.694  20.013  0.00  0.00    +0.000 A 
ATOM     23  C   UNL     1       3.309   3.401  19.496  0.00  0.00    +0.000 A 
ATOM     24  C   UNL     1       2.120   2.678  19.447  0.00  0.00    +0.000 A 
ATOM     25  C   UNL     1       0.938   3.240  19.931  0.00  0.00    +0.000 A 
ATOM     26  C   UNL     1       0.934   4.550  20.412  0.00  0.00    +0.000 A 
ENDBRANCH  20  21
ENDBRANCH  18  20
ENDBRANCH  12  14
ENDBRANCH   1  11
BRANCH   2  27
ATOM     27  N   UNL     1      -0.771  12.249  22.542  0.00  0.00    +0.000 N 
ATOM     28  H   UNL     1      -1.611  12.060  23.087  0.00  0.00    +0.000 HD
ATOM     29  H   UNL     1      -0.326  11.403  22.214  0.00  0.00    +0.000 HD
ENDBRANCH   2  27
BRANCH   3  30
ATOM     30  C   UNL     1      -2.459  14.527  23.153  0.00  0.00    +0.000 C 
BRANCH  30  31
ATOM     31  C   UNL     1      -3.791  13.855  23.415  0.00  0.00    +0.000 A 
ATOM     32  C   UNL     1      -4.985  14.233  22.788  0.00  0.00    +0.000 A 
ATOM     33  C   UNL     1      -6.197  13.643  23.154  0.00  0.00    +0.000 A 
ATOM     34  C   UNL     1      -6.229  12.655  24.136  0.00  0.00    +0.000 A 
ATOM     35  C   UNL     1      -5.046  12.234  24.735  0.00  0.00    +0.000 A 
ATOM     36  C   UNL     1      -3.835  12.826  24.372  0.00  0.00    +0.000 A 
ENDBRANCH  30  31
ENDBRANCH   3  30
TORSDOF 7
ENDMDL
MODEL 7
REMARK VINA RESULT:      -7.7      2.673      4.406
REMARK  Name = 
REMARK  8 active torsions:
REMARK  status: ('A' for Active; 'I' for Inactive)
REMARK    1  A    between atoms: C_1  and  N_2
REMARK    2  A    between atoms: N_2  and  C_18
REMARK    3  A    between atoms: C_3  and  C_5
REMARK    4  A    between atoms: C_9  and  O_10
REMARK    5  A    between atoms: O_10  and  C_11
REMARK    6  A    between atoms: C_19  and  N_20
REMARK    7  A    between atoms: N_21  and  C_22
REMARK    8  A    between atoms: C_22  and  C_23
REMARK                            x       y       z     vdW  Elec       q    Type
REMARK                         _______ _______ _______ _____ _____    ______ ____
ROOT
ATOM      1  C   UNL     1       0.537  10.762  18.933  0.00  0.00    +0.000 A 
ATOM      2  C   UNL     1      -0.773  11.056  19.135  0.00  0.00    +0.000 A 
ATOM      3  N   UNL     1      -1.166  12.382  19.285  0.00  0.00    +0.000 N 
ATOM      4  C   UNL     1      -0.268  13.444  19.182  0.00  0.00    +0.000 A 
ATOM      5  O   UNL     1      -0.583  14.636  19.286  0.00  0.00    +0.000 OA
ATOM      6  N   UNL     1       1.033  13.125  18.961  0.00  0.00    +0.000 N 
ATOM      7  C   UNL     1       1.519  11.870  18.744  0.00  0.00    +0.000 A 
ATOM      8  O   UNL     1       2.657  11.692  18.320  0.00  0.00    +0.000 OA
ATOM      9  H   UNL     1       1.674  13.893  18.824  0.00  0.00    +0.000 HD
ENDROOT
BRANCH   1  11
ATOM     10  C   UNL     1       1.245   9.003  17.418  0.00  0.00    +0.000 C 
ATOM     11  N   UNL     1       1.003   9.447  18.797  0.00  0.00    +0.000 N 
ATOM     12  C   UNL     1       1.414   8.774  19.959  0.00  0.00    +0.000 C 
ATOM     13  O   UNL     1       1.335   9.268  21.085  0.00  0.00    +0.000 OA
BRANCH  12  14
ATOM     14  C   UNL     1       1.921   7.379  19.870  0.00  0.00    +0.000 A 
ATOM     15  C   UNL     1       1.445   6.432  20.786  0.00  0.00    +0.000 A 
ATOM     16  C   UNL     1       2.004   5.156  20.825  0.00  0.00    +0.000 A 
ATOM     17  C   UNL     1       3.028   4.822  19.941  0.00  0.00    +0.000 A 
ATOM     18  C   UNL     1       3.392   5.709  18.923  0.00  0.00    +0.000 A 
ATOM     19  C   UNL     1       2.833   6.985  18.885  0.00  0.00    +0.000 A 
BRANCH  18  20
ATOM     20  O   UNL     1       4.326   5.436  17.946  0.00  0.00    +0.000 OA
BRANCH  20  21
ATOM     21  C   UNL     1       5.619   5.877  18.119  0.00  0.00    +0.000 A 
ATOM     22  C   UNL     1       6.496   5.337  19.067  0.00  0.00    +0.000 A 
ATOM     23  C   UNL     1       7.752   5.907  19.256  0.00  0.00    +0.000 A 
ATOM     24  C   UNL     1       8.163   6.964  18.449  0.00  0.00    +0.000 A 
ATOM     25  C   UNL     1       7.326   7.440  17.438  0.00  0.00    +0.000 A 
ATOM     26  C   UNL     1       6.052   6.898  17.274  0.00  0.00    +0.000 A 
ENDBRANCH  20  21
ENDBRANCH  18  20
ENDBRANCH  12  14
ENDBRANCH   1  11
BRANCH   2  27
ATOM     27  N   UNL     1      -1.688  10.011  19.217  0.00  0.00    +0.000 N 
ATOM     28  H   UNL     1      -1.880   9.763  20.186  0.00  0.00    +0.000 HD
ATOM     29  H   UNL     1      -2.533  10.111  18.671  0.00  0.00    +0.000 HD
ENDBRANCH   2  27
BRANCH   3  30
ATOM     30  C   UNL     1      -2.530  12.749  19.667  0.00  0.00    +0.000 C 
BRANCH  30  31
ATOM     31  C   UNL     1      -2.862  12.690  21.145  0.00  0.00    +0.000 A 
ATOM     32  C   UNL     1      -1.973  12.220  22.119  0.00  0.00    +0.000 A 
ATOM     33  C   UNL     1      -2.379  12.092  23.450  0.00  0.00    +0.000 A 
ATOM     34  C   UNL     1      -3.671  12.452  23.827  0.00  0.00    +0.000 A 
ATOM     35  C   UNL     1      -4.552  12.966  22.880  0.00  0.00    +0.000 A 
ATOM     36  C   UNL     1      -4.147  13.090  21.550  0.00  0.00    +0.000 A 
ENDBRANCH  30  31
ENDBRANCH   3  30
TORSDOF 7
ENDMDL
MODEL 8
REMARK VINA RESULT:      -7.6      1.120      1.680
REMARK  Name = 
REMARK  8 active torsions:
REMARK  status: ('A' for Active; 'I' for Inactive)
REMARK    1  A    between atoms: C_1  and  N_2
REMARK    2  A    between atoms: N_2  and  C_18
REMARK    3  A    between atoms: C_3  and  C_5
REMARK    4  A    between atoms: C_9  and  O_10
REMARK    5  A    between atoms: O_10  and  C_11
REMARK    6  A    between atoms: C_19  and  N_20
REMARK    7  A    between atoms: N_21  and  C_22
REMARK    8  A    between atoms: C_22  and  C_23
REMARK                            x       y       z     vdW  Elec       q    Type
REMARK                         _______ _______ _______ _____ _____    ______ ____
ROOT
ATOM      1  C   UNL     1      -1.119  11.813  21.339  0.00  0.00    +0.000 A 
ATOM      2  C   UNL     1      -1.922  12.743  20.761  0.00  0.00    +0.000 A 
ATOM      3  N   UNL     1      -3.006  13.254  21.468  0.00  0.00    +0.000 N 
ATOM      4  C   UNL     1      -3.277  12.888  22.786  0.00  0.00    +0.000 A 
ATOM      5  O   UNL     1      -4.216  13.337  23.456  0.00  0.00    +0.000 OA
ATOM      6  N   UNL     1      -2.449  11.971  23.349  0.00  0.00    +0.000 N 
ATOM      7  C   UNL     1      -1.330  11.449  22.771  0.00  0.00    +0.000 A 
ATOM      8  O   UNL     1      -0.512  10.812  23.428  0.00  0.00    +0.000 OA
ATOM      9  H   UNL     1      -2.606  11.752  24.322  0.00  0.00    +0.000 HD
ENDROOT
BRANCH   1  11
ATOM     10  C   UNL     1       1.248  11.956  20.827  0.00  0.00    +0.000 C 
ATOM     11  N   UNL     1      -0.026  11.242  20.674  0.00  0.00    +0.000 N 
ATOM     12  C   UNL     1      -0.185   9.953  20.141  0.00  0.00    +0.000 C 
ATOM     13  O   UNL     1      -1.248   9.332  20.188  0.00  0.00    +0.000 OA
BRANCH  12  14
ATOM     14  C   UNL     1       0.946   9.299  19.430  0.00  0.00    +0.000 A 
ATOM     15  C   UNL     1       1.434   9.891  18.257  0.00  0.00    +0.000 A 
ATOM     16  C   UNL     1       2.391   9.231  17.489  0.00  0.00    +0.000 A 
ATOM     17  C   UNL     1       2.871   7.989  17.899  0.00  0.00    +0.000 A 
ATOM     18  C   UNL     1       2.508   7.474  19.147  0.00  0.00    +0.000 A 
ATOM     19  C   UNL     1       1.549   8.134  19.914  0.00  0.00    +0.000 A 
BRANCH  18  20
ATOM     20  O   UNL     1       2.998   6.301  19.681  0.00  0.00    +0.000 OA
BRANCH  20  21
ATOM     21  C   UNL     1       3.362   5.283  18.829  0.00  0.00    +0.000 A 
ATOM     22  C   UNL     1       4.688   5.012  18.475  0.00  0.00    +0.000 A 
ATOM     23  C   UNL     1       4.968   4.034  17.524  0.00  0.00    +0.000 A 
ATOM     24  C   UNL     1       3.935   3.273  16.985  0.00  0.00    +0.000 A 
ATOM     25  C   UNL     1       2.621   3.476  17.410  0.00  0.00    +0.000 A 
ATOM     26  C   UNL     1       2.333   4.484  18.331  0.00  0.00    +0.000 A 
ENDBRANCH  20  21
ENDBRANCH  18  20
ENDBRANCH  12  14
ENDBRANCH   1  11
BRANCH   2  27
ATOM     27  N   UNL     1      -1.654  13.139  19.454  0.00  0.00    +0.000 N 
ATOM     28  H   UNL     1      -2.053  12.487  18.781  0.00  0.00    +0.000 HD
ATOM     29  H   UNL     1      -1.859  14.102  19.226  0.00  0.00    +0.000 HD
ENDBRANCH   2  27
BRANCH   3  30
ATOM     30  C   UNL     1      -3.998  14.129  20.843  0.00  0.00    +0.000 C 
BRANCH  30  31
ATOM     31  C   UNL     1      -5.201  13.456  20.215  0.00  0.00    +0.000 A 
ATOM     32  C   UNL     1      -5.105  12.450  19.245  0.00  0.00    +0.000 A 
ATOM     33  C   UNL     1      -6.254  11.945  18.630  0.00  0.00    +0.000 A 
ATOM     34  C   UNL     1      -7.512  12.424  18.989  0.00  0.00    +0.000 A 
ATOM     35  C   UNL     1      -7.627  13.389  19.985  0.00  0.00    +0.000 A 
ATOM     36  C   UNL     1      -6.480  13.896  20.597  0.00  0.00    +0.000 A 
ENDBRANCH  30  31
ENDBRANCH   3  30
TORSDOF 7
ENDMDL
MODEL 9
REMARK VINA RESULT:      -7.6      1.873      8.780
REMARK  Name = 
REMARK  8 active torsions:
REMARK  status: ('A' for Active; 'I' for Inactive)
REMARK    1  A    between atoms: C_1  and  N_2
REMARK    2  A    between atoms: N_2  and  C_18
REMARK    3  A    between atoms: C_3  and  C_5
REMARK    4  A    between atoms: C_9  and  O_10
REMARK    5  A    between atoms: O_10  and  C_11
REMARK    6  A    between atoms: C_19  and  N_20
REMARK    7  A    between atoms: N_21  and  C_22
REMARK    8  A    between atoms: C_22  and  C_23
REMARK                            x       y       z     vdW  Elec       q    Type
REMARK                         _______ _______ _______ _____ _____    ______ ____
ROOT
ATOM      1  C   UNL     1       1.055   9.205  19.234  0.00  0.00    +0.000 A 
ATOM      2  C   UNL     1       1.508   8.109  19.894  0.00  0.00    +0.000 A 
ATOM      3  N   UNL     1       2.560   7.370  19.361  0.00  0.00    +0.000 N 
ATOM      4  C   UNL     1       3.216   7.743  18.189  0.00  0.00    +0.000 A 
ATOM      5  O   UNL     1       4.169   7.126  17.697  0.00  0.00    +0.000 OA
ATOM      6  N   UNL     1       2.756   8.853  17.557  0.00  0.00    +0.000 N 
ATOM      7  C   UNL     1       1.775   9.680  18.016  0.00  0.00    +0.000 A 
ATOM      8  O   UNL     1       1.583  10.782  17.511  0.00  0.00    +0.000 OA
ATOM      9  H   UNL     1       3.270   9.159  16.743  0.00  0.00    +0.000 HD
ENDROOT
BRANCH   1  11
ATOM     10  C   UNL     1      -1.307   9.729  19.052  0.00  0.00    +0.000 C 
ATOM     11  N   UNL     1      -0.015   9.979  19.704  0.00  0.00    +0.000 N 
ATOM     12  C   UNL     1       0.181  10.724  20.877  0.00  0.00    +0.000 C 
ATOM     13  O   UNL     1       1.257  10.766  21.475  0.00  0.00    +0.000 OA
BRANCH  12  14
ATOM     14  C   UNL     1      -0.924  11.558  21.421  0.00  0.00    +0.000 A 
ATOM     15  C   UNL     1      -0.984  11.772  22.804  0.00  0.00    +0.000 A 
ATOM     16  C   UNL     1      -2.083  12.424  23.362  0.00  0.00    +0.000 A 
ATOM     17  C   UNL     1      -3.113  12.873  22.538  0.00  0.00    +0.000 A 
ATOM     18  C   UNL     1      -2.978  12.806  21.148  0.00  0.00    +0.000 A 
ATOM     19  C   UNL     1      -1.880  12.153  20.591  0.00  0.00    +0.000 A 
BRANCH  18  20
ATOM     20  O   UNL     1      -3.897  13.305  20.249  0.00  0.00    +0.000 OA
BRANCH  20  21
ATOM     21  C   UNL     1      -4.889  12.474  19.781  0.00  0.00    +0.000 A 
ATOM     22  C   UNL     1      -6.033  12.148  20.518  0.00  0.00    +0.000 A 
ATOM     23  C   UNL     1      -6.940  11.217  20.021  0.00  0.00    +0.000 A 
ATOM     24  C   UNL     1      -6.748  10.668  18.756  0.00  0.00    +0.000 A 
ATOM     25  C   UNL     1      -5.659  11.065  17.978  0.00  0.00    +0.000 A 
ATOM     26  C   UNL     1      -4.727  11.967  18.492  0.00  0.00    +0.000 A 
ENDBRANCH  20  21
ENDBRANCH  18  20
ENDBRANCH  12  14
ENDBRANCH   1  11
BRANCH   2  27
ATOM     27  N   UNL     1       0.883   7.735  21.079  0.00  0.00    +0.000 N 
ATOM     28  H   UNL     1       0.141   8.387  21.327  0.00  0.00    +0.000 HD
ATOM     29  H   UNL     1       0.586   6.771  21.145  0.00  0.00    +0.000 HD
ENDBRANCH   2  27
BRANCH   3  30
ATOM     30  C   UNL     1       2.982   6.092  19.938  0.00  0.00    +0.000 C 
BRANCH  30  31
ATOM     31  C   UNL     1       2.150   4.877  19.580  0.00  0.00    +0.000 A 
ATOM     32  C   UNL     1       1.364   4.179  20.505  0.00  0.00    +0.000 A 
ATOM     33  C   UNL     1       0.705   3.004  20.134  0.00  0.00    +0.000 A 
ATOM     34  C   UNL     1       0.807   2.524  18.830  0.00  0.00    +0.000 A 
ATOM     35  C   UNL     1       1.545   3.232  17.887  0.00  0.00    +0.000 A 
ATOM     36  C   UNL     1       2.206   4.403  18.258  0.00  0.00    +0.000 A 
ENDBRANCH  30  31
ENDBRANCH   3  30
TORSDOF 7
ENDMDL
