MODEL 1
REMARK VINA RESULT:      -7.9      0.000      0.000
REMARK  Name = 
REMARK  8 active torsions:
REMARK  status: ('A' for Active; 'I' for Inactive)
REMARK    1  A    between atoms: C_1  and  C_2
REMARK    2  A    between atoms: C_2  and  C_3
REMARK    3  A    between atoms: C_2  and  C_4
REMARK    4  A    between atoms: C_4  and  C_5
REMARK    5  A    between atoms: C_9  and  N_10
REMARK    6  A    between atoms: C_13  and  C_14
REMARK    7  A    between atoms: C_14  and  C_15
REMARK    8  A    between atoms: C_18  and  C_19
REMARK                            x       y       z     vdW  Elec       q    Type
REMARK                         _______ _______ _______ _____ _____    ______ ____
ROOT
ATOM      1  N   UNL     1       0.801   8.242  21.277  0.00  0.00    +0.000 N 
ATOM      2  C   UNL     1      -0.475   8.530  20.578  0.00  0.00    +0.000 C 
ATOM      3  C   UNL     1      -0.297   9.964  20.184  0.00  0.00    +0.000 A 
ATOM      4  C   UNL     1      -0.545  10.620  18.977  0.00  0.00    +0.000 A 
ATOM      5  C   UNL     1       0.004  11.911  18.837  0.00  0.00    +0.000 A 
ATOM      6  C   UNL     1       0.792  12.494  19.852  0.00  0.00    +0.000 A 
ATOM      7  C   UNL     1       1.066  11.819  21.043  0.00  0.00    +0.000 A 
ATOM      8  C   UNL     1       0.523  10.552  21.159  0.00  0.00    +0.000 A 
ATOM      9  C   UNL     1       1.141   9.455  21.948  0.00  0.00    +0.000 C 
ATOM     10  O   UNL     1       1.948   9.622  22.841  0.00  0.00    +0.000 OA
ENDROOT
BRANCH   1  15
ATOM     11  C   UNL     1       2.289   5.652  19.145  0.00  0.00    +0.000 A 
ATOM     12  C   UNL     1       2.337   6.416  17.960  0.00  0.00    +0.000 A 
ATOM     13  C   UNL     1       2.281   7.808  17.967  0.00  0.00    +0.000 A 
ATOM     14  C   UNL     1       2.053   8.482  19.159  0.00  0.00    +0.000 A 
ATOM     15  C   UNL     1       1.780   7.749  20.318  0.00  0.00    +0.000 A 
ATOM     16  C   UNL     1       2.051   6.373  20.334  0.00  0.00    +0.000 A 
BRANCH  11  17
ATOM     17  C   UNL     1       2.422   4.041  19.122  0.00  0.00    +0.000 C 
ATOM     18  C   UNL     1       2.939   3.389  17.797  0.00  0.00    +0.000 C 
ATOM     19  O   UNL     1       4.274   3.247  18.340  0.00  0.00    +0.000 OA
ATOM     20  C   UNL     1       3.760   3.452  19.676  0.00  0.00    +0.000 C 
BRANCH  17  22
ATOM     21  C   UNL     1       0.641   2.233  18.804  0.00  0.00    +0.000 C 
ATOM     22  C   UNL     1       1.168   3.347  19.715  0.00  0.00    +0.000 C 
ATOM     23  C   UNL     1       1.436   2.798  21.117  0.00  0.00    +0.000 C 
ENDBRANCH  17  22
ENDBRANCH  11  17
ENDBRANCH   1  15
BRANCH   6  24
ATOM     24  C   UNL     1       1.455  13.722  19.590  0.00  0.00    +0.000 C 
ATOM     25  N   UNL     1       1.289  14.830  19.045  0.00  0.00    +0.000 NA
ATOM     26  N   UNL     1       2.604  14.341  19.731  0.00  0.00    +0.000 N 
ATOM     27  H   UNL     1       3.110  15.198  19.537  0.00  0.00    +0.000 HD
ENDBRANCH   6  24
BRANCH   4  28
ATOM     28  C   UNL     1      -1.112   9.929  17.753  0.00  0.00    +0.000 C 
BRANCH  28  29
ATOM     29  C   UNL     1      -2.627   9.828  17.677  0.00  0.00    +0.000 C 
ATOM     30  F   UNL     1      -3.017   9.535  16.409  0.00  0.00    +0.000 F 
ENDBRANCH  28  29
ENDBRANCH   4  28
TORSDOF 6
ENDMDL
MODEL 2
REMARK VINA RESULT:      -7.7      0.969      1.635
REMARK  Name = 
REMARK  8 active torsions:
REMARK  status: ('A' for Active; 'I' for Inactive)
REMARK    1  A    between atoms: C_1  and  C_2
REMARK    2  A    between atoms: C_2  and  C_3
REMARK    3  A    between atoms: C_2  and  C_4
REMARK    4  A    between atoms: C_4  and  C_5
REMARK    5  A    between atoms: C_9  and  N_10
REMARK    6  A    between atoms: C_13  and  C_14
REMARK    7  A    between atoms: C_14  and  C_15
REMARK    8  A    between atoms: C_18  and  C_19
REMARK                            x       y       z     vdW  Elec       q    Type
REMARK                         _______ _______ _______ _____ _____    ______ ____
ROOT
ATOM      1  N   UNL     1       0.796   8.169  21.346  0.00  0.00    +0.000 N 
ATOM      2  C   UNL     1      -0.466   8.475  20.630  0.00  0.00    +0.000 C 
ATOM      3  C   UNL     1      -0.241   9.890  20.196  0.00  0.00    +0.000 A 
ATOM      4  C   UNL     1      -0.461  10.518  18.968  0.00  0.00    +0.000 A 
ATOM      5  C   UNL     1       0.128  11.787  18.796  0.00  0.00    +0.000 A 
ATOM      6  C   UNL     1       0.928  12.375  19.799  0.00  0.00    +0.000 A 
ATOM      7  C   UNL     1       1.173  11.728  21.011  0.00  0.00    +0.000 A 
ATOM      8  C   UNL     1       0.590  10.481  21.160  0.00  0.00    +0.000 A 
ATOM      9  C   UNL     1       1.168   9.389  21.985  0.00  0.00    +0.000 C 
ATOM     10  O   UNL     1       1.975   9.558  22.878  0.00  0.00    +0.000 OA
ENDROOT
BRANCH   1  15
ATOM     11  C   UNL     1       2.248   5.460  19.339  0.00  0.00    +0.000 A 
ATOM     12  C   UNL     1       2.299   6.164  18.118  0.00  0.00    +0.000 A 
ATOM     13  C   UNL     1       2.257   7.555  18.056  0.00  0.00    +0.000 A 
ATOM     14  C   UNL     1       2.042   8.290  19.214  0.00  0.00    +0.000 A 
ATOM     15  C   UNL     1       1.766   7.618  20.409  0.00  0.00    +0.000 A 
ATOM     16  C   UNL     1       2.023   6.241  20.491  0.00  0.00    +0.000 A 
BRANCH  11  17
ATOM     17  C   UNL     1       2.364   3.849  19.396  0.00  0.00    +0.000 C 
ATOM     18  C   UNL     1       2.372   3.185  20.813  0.00  0.00    +0.000 C 
ATOM     19  O   UNL     1       0.971   2.836  20.702  0.00  0.00    +0.000 OA
ATOM     20  C   UNL     1       1.023   3.056  19.273  0.00  0.00    +0.000 C 
BRANCH  17  22
ATOM     21  C   UNL     1       4.875   3.658  18.946  0.00  0.00    +0.000 C 
ATOM     22  C   UNL     1       3.468   3.314  18.447  0.00  0.00    +0.000 C 
ATOM     23  C   UNL     1       3.342   1.806  18.227  0.00  0.00    +0.000 C 
ENDBRANCH  17  22
ENDBRANCH  11  17
ENDBRANCH   1  15
BRANCH   6  24
ATOM     24  C   UNL     1       1.629  13.575  19.507  0.00  0.00    +0.000 C 
ATOM     25  N   UNL     1       1.509  14.815  19.537  0.00  0.00    +0.000 NA
ATOM     26  N   UNL     1       2.753  14.033  19.007  0.00  0.00    +0.000 N 
ATOM     27  H   UNL     1       3.268  14.873  18.765  0.00  0.00    +0.000 HD
ENDBRANCH   6  24
BRANCH   4  28
ATOM     28  C   UNL     1      -1.040   9.810  17.761  0.00  0.00    +0.000 C 
BRANCH  28  29
ATOM     29  C   UNL     1      -2.470  10.172  17.389  0.00  0.00    +0.000 C 
ATOM     30  F   UNL     1      -3.312   9.155  17.709  0.00  0.00    +0.000 F 
ENDBRANCH  28  29
ENDBRANCH   4  28
TORSDOF 6
ENDMDL
MODEL 3
REMARK VINA RESULT:      -7.6      0.719      1.147
REMARK  Name = 
REMARK  8 active torsions:
REMARK  status: ('A' for Active; 'I' for Inactive)
REMARK    1  A    between atoms: C_1  and  C_2
REMARK    2  A    between atoms: C_2  and  C_3
REMARK    3  A    between atoms: C_2  and  C_4
REMARK    4  A    between atoms: C_4  and  C_5
REMARK    5  A    between atoms: C_9  and  N_10
REMARK    6  A    between atoms: C_13  and  C_14
REMARK    7  A    between atoms: C_14  and  C_15
REMARK    8  A    between atoms: C_18  and  C_19
REMARK                            x       y       z     vdW  Elec       q    Type
REMARK                         _______ _______ _______ _____ _____    ______ ____
ROOT
ATOM      1  N   UNL     1       0.744   8.205  21.315  0.00  0.00    +0.000 N 
ATOM      2  C   UNL     1      -0.511   8.503  20.583  0.00  0.00    +0.000 C 
ATOM      3  C   UNL     1      -0.303   9.929  20.178  0.00  0.00    +0.000 A 
ATOM      4  C   UNL     1      -0.513  10.575  18.958  0.00  0.00    +0.000 A 
ATOM      5  C   UNL     1       0.057  11.856  18.817  0.00  0.00    +0.000 A 
ATOM      6  C   UNL     1       0.830  12.440  19.844  0.00  0.00    +0.000 A 
ATOM      7  C   UNL     1       1.066  11.775  21.048  0.00  0.00    +0.000 A 
ATOM      8  C   UNL     1       0.502  10.517  21.165  0.00  0.00    +0.000 A 
ATOM      9  C   UNL     1       1.085   9.420  21.981  0.00  0.00    +0.000 C 
ATOM     10  O   UNL     1       1.874   9.586  22.891  0.00  0.00    +0.000 OA
ENDROOT
BRANCH   1  15
ATOM     11  C   UNL     1       2.228   5.578  19.224  0.00  0.00    +0.000 A 
ATOM     12  C   UNL     1       2.330   6.342  18.042  0.00  0.00    +0.000 A 
ATOM     13  C   UNL     1       2.310   7.735  18.049  0.00  0.00    +0.000 A 
ATOM     14  C   UNL     1       2.065   8.413  19.235  0.00  0.00    +0.000 A 
ATOM     15  C   UNL     1       1.738   7.686  20.384  0.00  0.00    +0.000 A 
ATOM     16  C   UNL     1       1.973   6.304  20.406  0.00  0.00    +0.000 A 
BRANCH  11  17
ATOM     17  C   UNL     1       2.320   3.964  19.203  0.00  0.00    +0.000 C 
ATOM     18  C   UNL     1       1.146   3.193  18.512  0.00  0.00    +0.000 C 
ATOM     19  O   UNL     1       1.923   3.011  17.304  0.00  0.00    +0.000 OA
ATOM     20  C   UNL     1       3.134   3.336  18.025  0.00  0.00    +0.000 C 
BRANCH  17  22
ATOM     21  C   UNL     1       1.542   2.711  21.291  0.00  0.00    +0.000 C 
ATOM     22  C   UNL     1       2.721   3.388  20.585  0.00  0.00    +0.000 C 
ATOM     23  C   UNL     1       3.897   2.417  20.474  0.00  0.00    +0.000 C 
ENDBRANCH  17  22
ENDBRANCH  11  17
ENDBRANCH   1  15
BRANCH   6  24
ATOM     24  C   UNL     1       1.515  13.656  19.585  0.00  0.00    +0.000 C 
ATOM     25  N   UNL     1       2.409  14.395  20.039  0.00  0.00    +0.000 NA
ATOM     26  N   UNL     1       1.552  14.680  18.764  0.00  0.00    +0.000 N 
ATOM     27  H   UNL     1       2.007  15.565  18.567  0.00  0.00    +0.000 HD
ENDBRANCH   6  24
BRANCH   4  28
ATOM     28  C   UNL     1      -1.061   9.878  17.729  0.00  0.00    +0.000 C 
BRANCH  28  29
ATOM     29  C   UNL     1      -2.262  10.532  17.062  0.00  0.00    +0.000 C 
ATOM     30  F   UNL     1      -2.200  10.368  15.715  0.00  0.00    +0.000 F 
ENDBRANCH  28  29
ENDBRANCH   4  28
TORSDOF 6
ENDMDL
MODEL 4
REMARK VINA RESULT:      -7.5      0.848      1.549
REMARK  Name = 
REMARK  8 active torsions:
REMARK  status: ('A' for Active; 'I' for Inactive)
REMARK    1  A    between atoms: C_1  and  C_2
REMARK    2  A    between atoms: C_2  and  C_3
REMARK    3  A    between atoms: C_2  and  C_4
REMARK    4  A    between atoms: C_4  and  C_5
REMARK    5  A    between atoms: C_9  and  N_10
REMARK    6  A    between atoms: C_13  and  C_14
REMARK    7  A    between atoms: C_14  and  C_15
REMARK    8  A    between atoms: C_18  and  C_19
REMARK                            x       y       z     vdW  Elec       q    Type
REMARK                         _______ _______ _______ _____ _____    ______ ____
ROOT
ATOM      1  N   UNL     1       0.850   8.202  21.280  0.00  0.00    +0.000 N 
ATOM      2  C   UNL     1      -0.464   8.455  20.640  0.00  0.00    +0.000 C 
ATOM      3  C   UNL     1      -0.373   9.913  20.311  0.00  0.00    +0.000 A 
ATOM      4  C   UNL     1      -0.698  10.612  19.147  0.00  0.00    +0.000 A 
ATOM      5  C   UNL     1      -0.221  11.935  19.053  0.00  0.00    +0.000 A 
ATOM      6  C   UNL     1       0.573  12.510  20.068  0.00  0.00    +0.000 A 
ATOM      7  C   UNL     1       0.924  11.795  21.214  0.00  0.00    +0.000 A 
ATOM      8  C   UNL     1       0.451  10.497  21.286  0.00  0.00    +0.000 A 
ATOM      9  C   UNL     1       1.152   9.398  21.998  0.00  0.00    +0.000 C 
ATOM     10  O   UNL     1       1.982   9.565  22.871  0.00  0.00    +0.000 OA
ENDROOT
BRANCH   1  15
ATOM     11  C   UNL     1       2.408   5.791  18.994  0.00  0.00    +0.000 A 
ATOM     12  C   UNL     1       2.359   6.598  17.838  0.00  0.00    +0.000 A 
ATOM     13  C   UNL     1       2.216   7.982  17.900  0.00  0.00    +0.000 A 
ATOM     14  C   UNL     1       1.996   8.597  19.125  0.00  0.00    +0.000 A 
ATOM     15  C   UNL     1       1.818   7.807  20.265  0.00  0.00    +0.000 A 
ATOM     16  C   UNL     1       2.175   6.452  20.218  0.00  0.00    +0.000 A 
BRANCH  11  17
ATOM     17  C   UNL     1       2.641   4.193  18.904  0.00  0.00    +0.000 C 
ATOM     18  C   UNL     1       1.459   3.275  19.359  0.00  0.00    +0.000 C 
ATOM     19  O   UNL     1       1.054   3.047  17.987  0.00  0.00    +0.000 OA
ATOM     20  C   UNL     1       2.336   3.529  17.522  0.00  0.00    +0.000 C 
BRANCH  17  22
ATOM     21  C   UNL     1       4.114   2.262  19.706  0.00  0.00    +0.000 C 
ATOM     22  C   UNL     1       4.018   3.775  19.482  0.00  0.00    +0.000 C 
ATOM     23  C   UNL     1       5.170   4.250  18.596  0.00  0.00    +0.000 C 
ENDBRANCH  17  22
ENDBRANCH  11  17
ENDBRANCH   1  15
BRANCH   6  24
ATOM     24  C   UNL     1       1.162  13.783  19.845  0.00  0.00    +0.000 C 
ATOM     25  N   UNL     1       1.201  14.716  19.020  0.00  0.00    +0.000 NA
ATOM     26  N   UNL     1       2.013  14.644  20.352  0.00  0.00    +0.000 N 
ATOM     27  H   UNL     1       2.467  15.540  20.208  0.00  0.00    +0.000 HD
ENDBRANCH   6  24
BRANCH   4  28
ATOM     28  C   UNL     1      -1.273   9.951  17.911  0.00  0.00    +0.000 C 
BRANCH  28  29
ATOM     29  C   UNL     1      -2.744  10.214  17.628  0.00  0.00    +0.000 C 
ATOM     30  F   UNL     1      -3.457   9.061  17.730  0.00  0.00    +0.000 F 
ENDBRANCH  28  29
ENDBRANCH   4  28
TORSDOF 6
ENDMDL
MODEL 5
REMARK VINA RESULT:      -7.5      4.373      8.133
REMARK  Name = 
REMARK  8 active torsions:
REMARK  status: ('A' for Active; 'I' for Inactive)
REMARK    1  A    between atoms: C_1  and  C_2
REMARK    2  A    between atoms: C_2  and  C_3
REMARK    3  A    between atoms: C_2  and  C_4
REMARK    4  A    between atoms: C_4  and  C_5
REMARK    5  A    between atoms: C_9  and  N_10
REMARK    6  A    between atoms: C_13  and  C_14
REMARK    7  A    between atoms: C_14  and  C_15
REMARK    8  A    between atoms: C_18  and  C_19
REMARK                            x       y       z     vdW  Elec       q    Type
REMARK                         _______ _______ _______ _____ _____    ______ ____
ROOT
ATOM      1  N   UNL     1       3.505   5.259  19.262  0.00  0.00    +0.000 N 
ATOM      2  C   UNL     1       4.912   5.707  19.402  0.00  0.00    +0.000 C 
ATOM      3  C   UNL     1       5.496   5.313  18.081  0.00  0.00    +0.000 A 
ATOM      4  C   UNL     1       6.318   6.015  17.197  0.00  0.00    +0.000 A 
ATOM      5  C   UNL     1       6.454   5.477  15.901  0.00  0.00    +0.000 A 
ATOM      6  C   UNL     1       5.765   4.309  15.508  0.00  0.00    +0.000 A 
ATOM      7  C   UNL     1       4.916   3.632  16.385  0.00  0.00    +0.000 A 
ATOM      8  C   UNL     1       4.793   4.178  17.650  0.00  0.00    +0.000 A 
ATOM      9  C   UNL     1       3.570   4.063  18.486  0.00  0.00    +0.000 C 
ATOM     10  O   UNL     1       2.713   3.213  18.337  0.00  0.00    +0.000 OA
ENDROOT
BRANCH   1  15
ATOM     11  C   UNL     1       1.674   8.432  19.471  0.00  0.00    +0.000 A 
ATOM     12  C   UNL     1       2.276   9.048  18.354  0.00  0.00    +0.000 A 
ATOM     13  C   UNL     1       2.922   8.319  17.358  0.00  0.00    +0.000 A 
ATOM     14  C   UNL     1       3.091   6.950  17.507  0.00  0.00    +0.000 A 
ATOM     15  C   UNL     1       2.703   6.339  18.704  0.00  0.00    +0.000 A 
ATOM     16  C   UNL     1       1.873   7.041  19.589  0.00  0.00    +0.000 A 
BRANCH  11  17
ATOM     17  C   UNL     1       0.871   9.289  20.583  0.00  0.00    +0.000 C 
ATOM     18  C   UNL     1      -0.227   8.537  21.405  0.00  0.00    +0.000 C 
ATOM     19  O   UNL     1       0.669   8.374  22.531  0.00  0.00    +0.000 OA
ATOM     20  C   UNL     1       1.543   9.392  21.991  0.00  0.00    +0.000 C 
BRANCH  17  22
ATOM     21  C   UNL     1      -0.957  10.584  19.350  0.00  0.00    +0.000 C 
ATOM     22  C   UNL     1       0.412  10.665  20.034  0.00  0.00    +0.000 C 
ATOM     23  C   UNL     1       0.392  11.732  21.129  0.00  0.00    +0.000 C 
ENDBRANCH  17  22
ENDBRANCH  11  17
ENDBRANCH   1  15
BRANCH   6  24
ATOM     24  C   UNL     1       5.809   3.909  14.147  0.00  0.00    +0.000 C 
ATOM     25  N   UNL     1       5.092   3.789  13.135  0.00  0.00    +0.000 NA
ATOM     26  N   UNL     1       6.603   3.406  13.231  0.00  0.00    +0.000 N 
ATOM     27  H   UNL     1       6.658   3.090  12.268  0.00  0.00    +0.000 HD
ENDBRANCH   6  24
BRANCH   4  28
ATOM     28  C   UNL     1       6.825   7.417  17.464  0.00  0.00    +0.000 C 
BRANCH  28  29
ATOM     29  C   UNL     1       8.119   7.528  18.255  0.00  0.00    +0.000 C 
ATOM     30  F   UNL     1       8.526   8.823  18.316  0.00  0.00    +0.000 F 
ENDBRANCH  28  29
ENDBRANCH   4  28
TORSDOF 6
ENDMDL
MODEL 6
REMARK VINA RESULT:      -7.4      1.303      1.530
REMARK  Name = 
REMARK  8 active torsions:
REMARK  status: ('A' for Active; 'I' for Inactive)
REMARK    1  A    between atoms: C_1  and  C_2
REMARK    2  A    between atoms: C_2  and  C_3
REMARK    3  A    between atoms: C_2  and  C_4
REMARK    4  A    between atoms: C_4  and  C_5
REMARK    5  A    between atoms: C_9  and  N_10
REMARK    6  A    between atoms: C_13  and  C_14
REMARK    7  A    between atoms: C_14  and  C_15
REMARK    8  A    between atoms: C_18  and  C_19
REMARK                            x       y       z     vdW  Elec       q    Type
REMARK                         _______ _______ _______ _____ _____    ______ ____
ROOT
ATOM      1  N   UNL     1      -0.002   9.138  20.999  0.00  0.00    +0.000 N 
ATOM      2  C   UNL     1      -1.183   9.098  20.103  0.00  0.00    +0.000 C 
ATOM      3  C   UNL     1      -1.238  10.508  19.600  0.00  0.00    +0.000 A 
ATOM      4  C   UNL     1      -1.419  11.014  18.311  0.00  0.00    +0.000 A 
ATOM      5  C   UNL     1      -1.128  12.381  18.125  0.00  0.00    +0.000 A 
ATOM      6  C   UNL     1      -0.645  13.185  19.179  0.00  0.00    +0.000 A 
ATOM      7  C   UNL     1      -0.432  12.665  20.457  0.00  0.00    +0.000 A 
ATOM      8  C   UNL     1      -0.719  11.321  20.618  0.00  0.00    +0.000 A 
ATOM      9  C   UNL     1      -0.025  10.437  21.590  0.00  0.00    +0.000 C 
ATOM     10  O   UNL     1       0.580  10.832  22.567  0.00  0.00    +0.000 OA
ENDROOT
BRANCH   1  15
ATOM     11  C   UNL     1       2.211   6.818  19.214  0.00  0.00    +0.000 A 
ATOM     12  C   UNL     1       2.360   7.592  18.044  0.00  0.00    +0.000 A 
ATOM     13  C   UNL     1       2.099   8.961  18.018  0.00  0.00    +0.000 A 
ATOM     14  C   UNL     1       1.564   9.581  19.138  0.00  0.00    +0.000 A 
ATOM     15  C   UNL     1       1.196   8.804  20.240  0.00  0.00    +0.000 A 
ATOM     16  C   UNL     1       1.659   7.483  20.328  0.00  0.00    +0.000 A 
BRANCH  11  17
ATOM     17  C   UNL     1       2.582   5.244  19.242  0.00  0.00    +0.000 C 
ATOM     18  C   UNL     1       2.909   4.566  17.870  0.00  0.00    +0.000 C 
ATOM     19  O   UNL     1       4.333   4.656  18.119  0.00  0.00    +0.000 OA
ATOM     20  C   UNL     1       4.079   4.894  19.523  0.00  0.00    +0.000 C 
BRANCH  17  22
ATOM     21  C   UNL     1       0.970   3.263  19.361  0.00  0.00    +0.000 C 
ATOM     22  C   UNL     1       1.599   4.433  20.125  0.00  0.00    +0.000 C 
ATOM     23  C   UNL     1       2.271   3.927  21.402  0.00  0.00    +0.000 C 
ENDBRANCH  17  22
ENDBRANCH  11  17
ENDBRANCH   1  15
BRANCH   6  24
ATOM     24  C   UNL     1      -0.212  14.507  18.895  0.00  0.00    +0.000 C 
ATOM     25  N   UNL     1       0.806  15.226  18.881  0.00  0.00    +0.000 NA
ATOM     26  N   UNL     1      -0.645  15.695  18.542  0.00  0.00    +0.000 N 
ATOM     27  H   UNL     1      -0.369  16.654  18.355  0.00  0.00    +0.000 HD
ENDBRANCH   6  24
BRANCH   4  28
ATOM     28  C   UNL     1      -1.633  10.139  17.093  0.00  0.00    +0.000 C 
BRANCH  28  29
ATOM     29  C   UNL     1      -2.902  10.393  16.295  0.00  0.00    +0.000 C 
ATOM     30  F   UNL     1      -2.608  11.035  15.134  0.00  0.00    +0.000 F 
ENDBRANCH  28  29
ENDBRANCH   4  28
TORSDOF 6
ENDMDL
MODEL 7
REMARK VINA RESULT:      -7.4      4.575      8.181
REMARK  Name = 
REMARK  8 active torsions:
REMARK  status: ('A' for Active; 'I' for Inactive)
REMARK    1  A    between atoms: C_1  and  C_2
REMARK    2  A    between atoms: C_2  and  C_3
REMARK    3  A    between atoms: C_2  and  C_4
REMARK    4  A    between atoms: C_4  and  C_5
REMARK    5  A    between atoms: C_9  and  N_10
REMARK    6  A    between atoms: C_13  and  C_14
REMARK    7  A    between atoms: C_14  and  C_15
REMARK    8  A    between atoms: C_18  and  C_19
REMARK                            x       y       z     vdW  Elec       q    Type
REMARK                         _______ _______ _______ _____ _____    ______ ____
ROOT
ATOM      1  N   UNL     1       3.635   5.333  19.110  0.00  0.00    +0.000 N 
ATOM      2  C   UNL     1       5.022   5.797  19.356  0.00  0.00    +0.000 C 
ATOM      3  C   UNL     1       5.708   5.414  18.081  0.00  0.00    +0.000 A 
ATOM      4  C   UNL     1       6.587   6.127  17.264  0.00  0.00    +0.000 A 
ATOM      5  C   UNL     1       6.826   5.595  15.981  0.00  0.00    +0.000 A 
ATOM      6  C   UNL     1       6.182   4.421  15.534  0.00  0.00    +0.000 A 
ATOM      7  C   UNL     1       5.277   3.732  16.343  0.00  0.00    +0.000 A 
ATOM      8  C   UNL     1       5.053   4.272  17.596  0.00  0.00    +0.000 A 
ATOM      9  C   UNL     1       3.772   4.141  18.338  0.00  0.00    +0.000 C 
ATOM     10  O   UNL     1       2.939   3.282  18.122  0.00  0.00    +0.000 OA
ENDROOT
BRANCH   1  15
ATOM     11  C   UNL     1       1.773   8.494  19.185  0.00  0.00    +0.000 A 
ATOM     12  C   UNL     1       2.445   9.112  18.109  0.00  0.00    +0.000 A 
ATOM     13  C   UNL     1       3.161   8.385  17.161  0.00  0.00    +0.000 A 
ATOM     14  C   UNL     1       3.329   7.017  17.326  0.00  0.00    +0.000 A 
ATOM     15  C   UNL     1       2.866   6.406  18.495  0.00  0.00    +0.000 A 
ATOM     16  C   UNL     1       1.973   7.105  19.321  0.00  0.00    +0.000 A 
BRANCH  11  17
ATOM     17  C   UNL     1       0.891   9.348  20.238  0.00  0.00    +0.000 C 
ATOM     18  C   UNL     1       1.184  10.883  20.331  0.00  0.00    +0.000 C 
ATOM     19  O   UNL     1       0.043  11.193  19.496  0.00  0.00    +0.000 OA
ATOM     20  C   UNL     1      -0.490   9.867  19.719  0.00  0.00    +0.000 C 
BRANCH  17  22
ATOM     21  C   UNL     1       1.646   9.337  22.681  0.00  0.00    +0.000 C 
ATOM     22  C   UNL     1       0.790   8.644  21.615  0.00  0.00    +0.000 C 
ATOM     23  C   UNL     1      -0.659   8.538  22.091  0.00  0.00    +0.000 C 
ENDBRANCH  17  22
ENDBRANCH  11  17
ENDBRANCH   1  15
BRANCH   6  24
ATOM     24  C   UNL     1       6.333   4.026  14.178  0.00  0.00    +0.000 C 
ATOM     25  N   UNL     1       6.922   4.335  13.125  0.00  0.00    +0.000 NA
ATOM     26  N   UNL     1       5.903   3.162  13.289  0.00  0.00    +0.000 N 
ATOM     27  H   UNL     1       5.972   2.871  12.319  0.00  0.00    +0.000 HD
ENDBRANCH   6  24
BRANCH   4  28
ATOM     28  C   UNL     1       7.057   7.534  17.572  0.00  0.00    +0.000 C 
BRANCH  28  29
ATOM     29  C   UNL     1       8.272   7.657  18.478  0.00  0.00    +0.000 C 
ATOM     30  F   UNL     1       8.718   8.940  18.498  0.00  0.00    +0.000 F 
ENDBRANCH  28  29
ENDBRANCH   4  28
TORSDOF 6
ENDMDL
MODEL 8
REMARK VINA RESULT:      -7.1      3.312      7.789
REMARK  Name = 
REMARK  8 active torsions:
REMARK  status: ('A' for Active; 'I' for Inactive)
REMARK    1  A    between atoms: C_1  and  C_2
REMARK    2  A    between atoms: C_2  and  C_3
REMARK    3  A    between atoms: C_2  and  C_4
REMARK    4  A    between atoms: C_4  and  C_5
REMARK    5  A    between atoms: C_9  and  N_10
REMARK    6  A    between atoms: C_13  and  C_14
REMARK    7  A    between atoms: C_14  and  C_15
REMARK    8  A    between atoms: C_18  and  C_19
REMARK                            x       y       z     vdW  Elec       q    Type
REMARK                         _______ _______ _______ _____ _____    ______ ____
ROOT
ATOM      1  N   UNL     1       1.894   7.408  18.071  0.00  0.00    +0.000 N 
ATOM      2  C   UNL     1       1.605   5.975  18.322  0.00  0.00    +0.000 C 
ATOM      3  C   UNL     1       2.975   5.418  18.550  0.00  0.00    +0.000 A 
ATOM      4  C   UNL     1       3.460   4.551  19.532  0.00  0.00    +0.000 A 
ATOM      5  C   UNL     1       4.861   4.449  19.647  0.00  0.00    +0.000 A 
ATOM      6  C   UNL     1       5.728   5.212  18.835  0.00  0.00    +0.000 A 
ATOM      7  C   UNL     1       5.237   6.104  17.879  0.00  0.00    +0.000 A 
ATOM      8  C   UNL     1       3.860   6.193  17.785  0.00  0.00    +0.000 A 
ATOM      9  C   UNL     1       3.135   7.421  17.368  0.00  0.00    +0.000 C 
ATOM     10  O   UNL     1       3.635   8.331  16.734  0.00  0.00    +0.000 OA
ENDROOT
BRANCH   1  15
ATOM     11  C   UNL     1       0.742  10.105  20.277  0.00  0.00    +0.000 A 
ATOM     12  C   UNL     1       0.413   9.291  21.381  0.00  0.00    +0.000 A 
ATOM     13  C   UNL     1       0.930   8.006  21.542  0.00  0.00    +0.000 A 
ATOM     14  C   UNL     1       1.704   7.446  20.535  0.00  0.00    +0.000 A 
ATOM     15  C   UNL     1       1.867   8.138  19.331  0.00  0.00    +0.000 A 
ATOM     16  C   UNL     1       1.525   9.497  19.275  0.00  0.00    +0.000 A 
BRANCH  11  17
ATOM     17  C   UNL     1       0.186  11.617  20.142  0.00  0.00    +0.000 C 
ATOM     18  C   UNL     1      -0.706  12.154  21.311  0.00  0.00    +0.000 C 
ATOM     19  O   UNL     1       0.411  12.876  21.885  0.00  0.00    +0.000 OA
ATOM     20  C   UNL     1       1.140  12.750  20.642  0.00  0.00    +0.000 C 
BRANCH  17  22
ATOM     21  C   UNL     1      -1.816  11.351  18.574  0.00  0.00    +0.000 C 
ATOM     22  C   UNL     1      -0.394  11.898  18.732  0.00  0.00    +0.000 C 
ATOM     23  C   UNL     1      -0.363  13.389  18.395  0.00  0.00    +0.000 C 
ENDBRANCH  17  22
ENDBRANCH  11  17
ENDBRANCH   1  15
BRANCH   6  24
ATOM     24  C   UNL     1       7.121   5.194  19.107  0.00  0.00    +0.000 C 
ATOM     25  N   UNL     1       8.204   4.774  18.657  0.00  0.00    +0.000 NA
ATOM     26  N   UNL     1       8.017   5.561  19.993  0.00  0.00    +0.000 N 
ATOM     27  H   UNL     1       9.004   5.543  20.227  0.00  0.00    +0.000 HD
ENDBRANCH   6  24
BRANCH   4  28
ATOM     28  C   UNL     1       2.591   3.954  20.620  0.00  0.00    +0.000 C 
BRANCH  28  29
ATOM     29  C   UNL     1       1.922   2.627  20.297  0.00  0.00    +0.000 C 
ATOM     30  F   UNL     1       0.766   2.835  19.614  0.00  0.00    +0.000 F 
ENDBRANCH  28  29
ENDBRANCH   4  28
TORSDOF 6
ENDMDL
MODEL 9
REMARK VINA RESULT:      -7.1      1.463      2.245
REMARK  Name = 
REMARK  8 active torsions:
REMARK  status: ('A' for Active; 'I' for Inactive)
REMARK    1  A    between atoms: C_1  and  C_2
REMARK    2  A    between atoms: C_2  and  C_3
REMARK    3  A    between atoms: C_2  and  C_4
REMARK    4  A    between atoms: C_4  and  C_5
REMARK    5  A    between atoms: C_9  and  N_10
REMARK    6  A    between atoms: C_13  and  C_14
REMARK    7  A    between atoms: C_14  and  C_15
REMARK    8  A    between atoms: C_18  and  C_19
REMARK                            x       y       z     vdW  Elec       q    Type
REMARK                         _______ _______ _______ _____ _____    ______ ____
ROOT
ATOM      1  N   UNL     1       0.237   9.005  20.869  0.00  0.00    +0.000 N 
ATOM      2  C   UNL     1      -0.989   8.969  20.035  0.00  0.00    +0.000 C 
ATOM      3  C   UNL     1      -1.129  10.402  19.627  0.00  0.00    +0.000 A 
ATOM      4  C   UNL     1      -1.401  10.979  18.385  0.00  0.00    +0.000 A 
ATOM      5  C   UNL     1      -1.177  12.366  18.272  0.00  0.00    +0.000 A 
ATOM      6  C   UNL     1      -0.671  13.125  19.350  0.00  0.00    +0.000 A 
ATOM      7  C   UNL     1      -0.368  12.536  20.579  0.00  0.00    +0.000 A 
ATOM      8  C   UNL     1      -0.590  11.174  20.668  0.00  0.00    +0.000 A 
ATOM      9  C   UNL     1       0.192  10.262  21.543  0.00  0.00    +0.000 C 
ATOM     10  O   UNL     1       0.833  10.623  22.511  0.00  0.00    +0.000 OA
ENDROOT
BRANCH   1  15
ATOM     11  C   UNL     1       2.404   6.919  18.768  0.00  0.00    +0.000 A 
ATOM     12  C   UNL     1       2.487   7.808  17.676  0.00  0.00    +0.000 A 
ATOM     13  C   UNL     1       2.202   9.166  17.796  0.00  0.00    +0.000 A 
ATOM     14  C   UNL     1       1.708   9.662  18.995  0.00  0.00    +0.000 A 
ATOM     15  C   UNL     1       1.404   8.773  20.030  0.00  0.00    +0.000 A 
ATOM     16  C   UNL     1       1.893   7.460  19.965  0.00  0.00    +0.000 A 
BRANCH  11  17
ATOM     17  C   UNL     1       2.802   5.358  18.624  0.00  0.00    +0.000 C 
ATOM     18  C   UNL     1       2.669   4.469  19.904  0.00  0.00    +0.000 C 
ATOM     19  O   UNL     1       1.401   3.936  19.451  0.00  0.00    +0.000 OA
ATOM     20  C   UNL     1       1.675   4.404  18.111  0.00  0.00    +0.000 C 
BRANCH  17  22
ATOM     21  C   UNL     1       5.352   5.505  18.742  0.00  0.00    +0.000 C 
ATOM     22  C   UNL     1       4.141   5.169  17.865  0.00  0.00    +0.000 C 
ATOM     23  C   UNL     1       4.276   3.754  17.301  0.00  0.00    +0.000 C 
ENDBRANCH  17  22
ENDBRANCH  11  17
ENDBRANCH   1  15
BRANCH   6  24
ATOM     24  C   UNL     1      -0.309  14.480  19.129  0.00  0.00    +0.000 C 
ATOM     25  N   UNL     1       0.670  15.250  19.145  0.00  0.00    +0.000 NA
ATOM     26  N   UNL     1      -0.806  15.660  18.838  0.00  0.00    +0.000 N 
ATOM     27  H   UNL     1      -0.581  16.639  18.698  0.00  0.00    +0.000 HD
ENDBRANCH   6  24
BRANCH   4  28
ATOM     28  C   UNL     1      -1.645  10.172  17.126  0.00  0.00    +0.000 C 
BRANCH  28  29
ATOM     29  C   UNL     1      -3.094   9.831  16.814  0.00  0.00    +0.000 C 
ATOM     30  F   UNL     1      -3.216   9.430  15.522  0.00  0.00    +0.000 F 
ENDBRANCH  28  29
ENDBRANCH   4  28
TORSDOF 6
ENDMDL
