MODEL 1
REMARK VINA RESULT:      -9.8      0.000      0.000
REMARK  Name = 
REMARK  3 active torsions:
REMARK  status: ('A' for Active; 'I' for Inactive)
REMARK    1  A    between atoms: C_6  and  C_7
REMARK    2  A    between atoms: C_10  and  C_11
REMARK    3  A    between atoms: N_17  and  C_18
REMARK                            x       y       z     vdW  Elec       q    Type
REMARK                         _______ _______ _______ _____ _____    ______ ____
ROOT
ATOM      1  C   UNL     1       2.398   7.642  18.661  0.00  0.00    +0.000 A 
ATOM      2  N   UNL     1       3.261   7.904  17.665  0.00  0.00    +0.000 NA
ATOM      3  O   UNL     1       3.787   6.650  17.343  0.00  0.00    +0.000 OA
ATOM      4  C   UNL     1       3.186   5.757  18.180  0.00  0.00    +0.000 A 
ATOM      5  N   UNL     1       2.365   6.319  19.031  0.00  0.00    +0.000 NA
ENDROOT
BRANCH   1  11
ATOM      6  C   UNL     1      -1.134  11.251  22.512  0.00  0.00    +0.000 A 
ATOM      7  C   UNL     1      -0.600  10.194  23.221  0.00  0.00    +0.000 A 
ATOM      8  N   UNL     1       0.190   9.265  22.643  0.00  0.00    +0.000 NA
ATOM      9  C   UNL     1       0.431   9.420  21.326  0.00  0.00    +0.000 A 
ATOM     10  C   UNL     1       1.239   8.503  20.668  0.00  0.00    +0.000 A 
ATOM     11  C   UNL     1       1.538   8.626  19.303  0.00  0.00    +0.000 A 
ATOM     12  C   UNL     1       0.988   9.693  18.591  0.00  0.00    +0.000 A 
ATOM     13  C   UNL     1       0.168  10.618  19.243  0.00  0.00    +0.000 A 
ATOM     14  C   UNL     1      -0.117  10.505  20.598  0.00  0.00    +0.000 A 
ATOM     15  N   UNL     1      -0.903  11.423  21.192  0.00  0.00    +0.000 NA
ENDBRANCH   1  11
BRANCH   4  16
ATOM     16  C   UNL     1       3.450   4.304  17.949  0.00  0.00    +0.000 C 
ATOM     17  C   UNL     1       4.334   3.727  19.095  0.00  0.00    +0.000 C 
ATOM     18  C   UNL     1       5.739   4.370  19.163  0.00  0.00    +0.000 C 
ATOM     19  C   UNL     1       6.296   4.526  17.802  0.00  0.00    +0.000 A 
ATOM     20  N   UNL     1       7.576   4.873  17.516  0.00  0.00    +0.000 NA
ATOM     21  N   UNL     1       7.677   4.971  16.195  0.00  0.00    +0.000 NA
ATOM     22  N   UNL     1       6.466   4.700  15.656  0.00  0.00    +0.000 N 
ATOM     23  C   UNL     1       5.567   4.408  16.641  0.00  0.00    +0.000 A 
ATOM     24  C   UNL     1       4.119   4.078  16.556  0.00  0.00    +0.000 C 
BRANCH  22  25
ATOM     25  C   UNL     1       6.295   4.705  14.222  0.00  0.00    +0.000 C 
ATOM     26  C   UNL     1       5.954   3.328  13.647  0.00  0.00    +0.000 C 
ATOM     27  C   UNL     1       6.345   3.400  12.173  0.00  0.00    +0.000 C 
ATOM     28  C   UNL     1       7.266   4.608  12.024  0.00  0.00    +0.000 C 
ATOM     29  C   UNL     1       7.546   5.103  13.437  0.00  0.00    +0.000 C 
ENDBRANCH  22  25
ENDBRANCH   4  16
TORSDOF 3
ENDMDL
MODEL 2
REMARK VINA RESULT:      -9.5      0.848      1.484
REMARK  Name = 
REMARK  3 active torsions:
REMARK  status: ('A' for Active; 'I' for Inactive)
REMARK    1  A    between atoms: C_6  and  C_7
REMARK    2  A    between atoms: C_10  and  C_11
REMARK    3  A    between atoms: N_17  and  C_18
REMARK                            x       y       z     vdW  Elec       q    Type
REMARK                         _______ _______ _______ _____ _____    ______ ____
ROOT
ATOM      1  C   UNL     1       2.238   7.514  19.161  0.00  0.00    +0.000 A 
ATOM      2  N   UNL     1       2.736   7.842  17.957  0.00  0.00    +0.000 NA
ATOM      3  O   UNL     1       3.172   6.621  17.436  0.00  0.00    +0.000 OA
ATOM      4  C   UNL     1       2.892   5.679  18.381  0.00  0.00    +0.000 A 
ATOM      5  N   UNL     1       2.362   6.181  19.468  0.00  0.00    +0.000 NA
ENDROOT
BRANCH   1  11
ATOM      6  C   UNL     1      -0.711  12.290  22.133  0.00  0.00    +0.000 A 
ATOM      7  C   UNL     1      -0.550  12.599  20.797  0.00  0.00    +0.000 A 
ATOM      8  N   UNL     1       0.054  11.758  19.931  0.00  0.00    +0.000 NA
ATOM      9  C   UNL     1       0.499  10.593  20.441  0.00  0.00    +0.000 A 
ATOM     10  C   UNL     1       1.127   9.678  19.606  0.00  0.00    +0.000 A 
ATOM     11  C   UNL     1       1.593   8.443  20.079  0.00  0.00    +0.000 A 
ATOM     12  C   UNL     1       1.434   8.141  21.432  0.00  0.00    +0.000 A 
ATOM     13  C   UNL     1       0.809   9.057  22.283  0.00  0.00    +0.000 A 
ATOM     14  C   UNL     1       0.334  10.275  21.812  0.00  0.00    +0.000 A 
ATOM     15  N   UNL     1      -0.273  11.127  22.661  0.00  0.00    +0.000 NA
ENDBRANCH   1  11
BRANCH   4  16
ATOM     16  C   UNL     1       3.114   4.245  18.019  0.00  0.00    +0.000 C 
ATOM     17  C   UNL     1       3.864   3.509  19.169  0.00  0.00    +0.000 C 
ATOM     18  C   UNL     1       5.283   4.068  19.427  0.00  0.00    +0.000 C 
ATOM     19  C   UNL     1       5.969   4.333  18.144  0.00  0.00    +0.000 A 
ATOM     20  N   UNL     1       7.283   4.641  18.008  0.00  0.00    +0.000 NA
ATOM     21  N   UNL     1       7.508   4.869  16.719  0.00  0.00    +0.000 NA
ATOM     22  N   UNL     1       6.342   4.718  16.051  0.00  0.00    +0.000 N 
ATOM     23  C   UNL     1       5.345   4.374  16.918  0.00  0.00    +0.000 A 
ATOM     24  C   UNL     1       3.898   4.130  16.673  0.00  0.00    +0.000 C 
BRANCH  22  25
ATOM     25  C   UNL     1       6.303   4.880  14.617  0.00  0.00    +0.000 C 
ATOM     26  C   UNL     1       5.900   3.603  13.873  0.00  0.00    +0.000 C 
ATOM     27  C   UNL     1       6.428   3.782  12.452  0.00  0.00    +0.000 C 
ATOM     28  C   UNL     1       7.458   4.907  12.508  0.00  0.00    +0.000 C 
ATOM     29  C   UNL     1       7.649   5.234  13.984  0.00  0.00    +0.000 C 
ENDBRANCH  22  25
ENDBRANCH   4  16
TORSDOF 3
ENDMDL
MODEL 3
REMARK VINA RESULT:      -9.1      1.131      1.491
REMARK  Name = 
REMARK  3 active torsions:
REMARK  status: ('A' for Active; 'I' for Inactive)
REMARK    1  A    between atoms: C_6  and  C_7
REMARK    2  A    between atoms: C_10  and  C_11
REMARK    3  A    between atoms: N_17  and  C_18
REMARK                            x       y       z     vdW  Elec       q    Type
REMARK                         _______ _______ _______ _____ _____    ______ ____
ROOT
ATOM      1  C   UNL     1       2.564   6.713  18.709  0.00  0.00    +0.000 A 
ATOM      2  N   UNL     1       2.038   5.884  17.792  0.00  0.00    +0.000 NA
ATOM      3  O   UNL     1       3.008   4.888  17.651  0.00  0.00    +0.000 OA
ATOM      4  C   UNL     1       4.023   5.218  18.500  0.00  0.00    +0.000 A 
ATOM      5  N   UNL     1       3.819   6.346  19.133  0.00  0.00    +0.000 NA
ENDROOT
BRANCH   1  11
ATOM      6  C   UNL     1      -0.412  11.147  22.147  0.00  0.00    +0.000 A 
ATOM      7  C   UNL     1      -0.232  10.008  22.907  0.00  0.00    +0.000 A 
ATOM      8  N   UNL     1       0.372   8.905  22.419  0.00  0.00    +0.000 NA
ATOM      9  C   UNL     1       0.792   8.969  21.140  0.00  0.00    +0.000 A 
ATOM     10  C   UNL     1       1.425   7.871  20.574  0.00  0.00    +0.000 A 
ATOM     11  C   UNL     1       1.899   7.889  19.253  0.00  0.00    +0.000 A 
ATOM     12  C   UNL     1       1.706   9.040  18.489  0.00  0.00    +0.000 A 
ATOM     13  C   UNL     1       1.064  10.148  19.047  0.00  0.00    +0.000 A 
ATOM     14  C   UNL     1       0.607  10.137  20.359  0.00  0.00    +0.000 A 
ATOM     15  N   UNL     1       0.003  11.229  20.864  0.00  0.00    +0.000 NA
ENDBRANCH   1  11
BRANCH   4  16
ATOM     16  C   UNL     1       5.135   4.233  18.669  0.00  0.00    +0.000 C 
ATOM     17  C   UNL     1       6.352   4.908  19.369  0.00  0.00    +0.000 C 
ATOM     18  C   UNL     1       6.974   6.056  18.539  0.00  0.00    +0.000 C 
ATOM     19  C   UNL     1       7.058   5.668  17.114  0.00  0.00    +0.000 A 
ATOM     20  N   UNL     1       7.724   6.357  16.154  0.00  0.00    +0.000 NA
ATOM     21  N   UNL     1       7.518   5.734  15.000  0.00  0.00    +0.000 NA
ATOM     22  N   UNL     1       6.717   4.668  15.230  0.00  0.00    +0.000 N 
ATOM     23  C   UNL     1       6.409   4.589  16.558  0.00  0.00    +0.000 A 
ATOM     24  C   UNL     1       5.547   3.624  17.291  0.00  0.00    +0.000 C 
BRANCH  22  25
ATOM     25  C   UNL     1       6.353   3.788  14.144  0.00  0.00    +0.000 C 
ATOM     26  C   UNL     1       7.226   3.969  12.899  0.00  0.00    +0.000 C 
ATOM     27  C   UNL     1       6.399   3.409  11.745  0.00  0.00    +0.000 C 
ATOM     28  C   UNL     1       4.958   3.319  12.243  0.00  0.00    +0.000 C 
ATOM     29  C   UNL     1       4.938   4.000  13.606  0.00  0.00    +0.000 C 
ENDBRANCH  22  25
ENDBRANCH   4  16
TORSDOF 3
ENDMDL
MODEL 4
REMARK VINA RESULT:      -9.0      0.927      1.005
REMARK  Name = 
REMARK  3 active torsions:
REMARK  status: ('A' for Active; 'I' for Inactive)
REMARK    1  A    between atoms: C_6  and  C_7
REMARK    2  A    between atoms: C_10  and  C_11
REMARK    3  A    between atoms: N_17  and  C_18
REMARK                            x       y       z     vdW  Elec       q    Type
REMARK                         _______ _______ _______ _____ _____    ______ ____
ROOT
ATOM      1  C   UNL     1       2.122   8.216  18.344  0.00  0.00    +0.000 A 
ATOM      2  N   UNL     1       3.031   8.435  17.379  0.00  0.00    +0.000 NA
ATOM      3  O   UNL     1       3.689   7.208  17.259  0.00  0.00    +0.000 OA
ATOM      4  C   UNL     1       3.109   6.372  18.166  0.00  0.00    +0.000 A 
ATOM      5  N   UNL     1       2.179   6.954  18.882  0.00  0.00    +0.000 NA
ENDROOT
BRANCH   1  11
ATOM      6  C   UNL     1      -1.559  12.383  21.413  0.00  0.00    +0.000 A 
ATOM      7  C   UNL     1      -0.576  11.914  22.261  0.00  0.00    +0.000 A 
ATOM      8  N   UNL     1       0.344  11.009  21.866  0.00  0.00    +0.000 NA
ATOM      9  C   UNL     1       0.252  10.580  20.592  0.00  0.00    +0.000 A 
ATOM     10  C   UNL     1       1.169   9.652  20.118  0.00  0.00    +0.000 A 
ATOM     11  C   UNL     1       1.132   9.184  18.795  0.00  0.00    +0.000 A 
ATOM     12  C   UNL     1       0.131   9.657  17.946  0.00  0.00    +0.000 A 
ATOM     13  C   UNL     1      -0.801  10.587  18.416  0.00  0.00    +0.000 A 
ATOM     14  C   UNL     1      -0.756  11.061  19.721  0.00  0.00    +0.000 A 
ATOM     15  N   UNL     1      -1.665  11.965  20.133  0.00  0.00    +0.000 NA
ENDBRANCH   1  11
BRANCH   4  16
ATOM     16  C   UNL     1       3.517   4.934  18.145  0.00  0.00    +0.000 C 
ATOM     17  C   UNL     1       4.476   4.629  19.335  0.00  0.00    +0.000 C 
ATOM     18  C   UNL     1       5.808   5.411  19.261  0.00  0.00    +0.000 C 
ATOM     19  C   UNL     1       6.323   5.414  17.875  0.00  0.00    +0.000 A 
ATOM     20  N   UNL     1       7.555   5.839  17.499  0.00  0.00    +0.000 NA
ATOM     21  N   UNL     1       7.622   5.746  16.176  0.00  0.00    +0.000 NA
ATOM     22  N   UNL     1       6.437   5.277  15.722  0.00  0.00    +0.000 N 
ATOM     23  C   UNL     1       5.590   5.050  16.768  0.00  0.00    +0.000 A 
ATOM     24  C   UNL     1       4.183   4.568  16.780  0.00  0.00    +0.000 C 
BRANCH  22  25
ATOM     25  C   UNL     1       6.242   5.048  14.310  0.00  0.00    +0.000 C 
ATOM     26  C   UNL     1       5.735   3.640  13.988  0.00  0.00    +0.000 C 
ATOM     27  C   UNL     1       6.104   3.404  12.526  0.00  0.00    +0.000 C 
ATOM     28  C   UNL     1       7.156   4.452  12.167  0.00  0.00    +0.000 C 
ATOM     29  C   UNL     1       7.516   5.153  13.471  0.00  0.00    +0.000 C 
ENDBRANCH  22  25
ENDBRANCH   4  16
TORSDOF 3
ENDMDL
MODEL 5
REMARK VINA RESULT:      -9.0      1.332      2.113
REMARK  Name = 
REMARK  3 active torsions:
REMARK  status: ('A' for Active; 'I' for Inactive)
REMARK    1  A    between atoms: C_6  and  C_7
REMARK    2  A    between atoms: C_10  and  C_11
REMARK    3  A    between atoms: N_17  and  C_18
REMARK                            x       y       z     vdW  Elec       q    Type
REMARK                         _______ _______ _______ _____ _____    ______ ____
ROOT
ATOM      1  C   UNL     1       2.600   6.708  18.895  0.00  0.00    +0.000 A 
ATOM      2  N   UNL     1       2.183   6.039  17.807  0.00  0.00    +0.000 NA
ATOM      3  O   UNL     1       3.170   5.069  17.616  0.00  0.00    +0.000 OA
ATOM      4  C   UNL     1       4.084   5.251  18.611  0.00  0.00    +0.000 A 
ATOM      5  N   UNL     1       3.803   6.267  19.389  0.00  0.00    +0.000 NA
ENDROOT
BRANCH   1  11
ATOM      6  C   UNL     1      -0.517  11.979  20.579  0.00  0.00    +0.000 A 
ATOM      7  C   UNL     1      -0.130  12.066  19.257  0.00  0.00    +0.000 A 
ATOM      8  N   UNL     1       0.556  11.082  18.640  0.00  0.00    +0.000 NA
ATOM      9  C   UNL     1       0.851  10.000  19.388  0.00  0.00    +0.000 A 
ATOM     10  C   UNL     1       1.552   8.946  18.817  0.00  0.00    +0.000 A 
ATOM     11  C   UNL     1       1.870   7.789  19.543  0.00  0.00    +0.000 A 
ATOM     12  C   UNL     1       1.482   7.710  20.881  0.00  0.00    +0.000 A 
ATOM     13  C   UNL     1       0.782   8.768  21.467  0.00  0.00    +0.000 A 
ATOM     14  C   UNL     1       0.454   9.909  20.745  0.00  0.00    +0.000 A 
ATOM     15  N   UNL     1      -0.232  10.902  21.343  0.00  0.00    +0.000 NA
ENDBRANCH   1  11
BRANCH   4  16
ATOM     16  C   UNL     1       5.179   4.242  18.741  0.00  0.00    +0.000 C 
ATOM     17  C   UNL     1       6.430   4.886  19.410  0.00  0.00    +0.000 C 
ATOM     18  C   UNL     1       7.052   6.025  18.568  0.00  0.00    +0.000 C 
ATOM     19  C   UNL     1       7.087   5.645  17.140  0.00  0.00    +0.000 A 
ATOM     20  N   UNL     1       7.739   6.326  16.165  0.00  0.00    +0.000 NA
ATOM     21  N   UNL     1       7.486   5.714  15.013  0.00  0.00    +0.000 NA
ATOM     22  N   UNL     1       6.669   4.664  15.261  0.00  0.00    +0.000 N 
ATOM     23  C   UNL     1       6.399   4.584  16.596  0.00  0.00    +0.000 A 
ATOM     24  C   UNL     1       5.538   3.632  17.349  0.00  0.00    +0.000 C 
BRANCH  22  25
ATOM     25  C   UNL     1       6.255   3.799  14.181  0.00  0.00    +0.000 C 
ATOM     26  C   UNL     1       7.124   3.936  12.928  0.00  0.00    +0.000 C 
ATOM     27  C   UNL     1       6.261   3.412  11.782  0.00  0.00    +0.000 C 
ATOM     28  C   UNL     1       4.823   3.391  12.293  0.00  0.00    +0.000 C 
ATOM     29  C   UNL     1       4.847   4.076  13.654  0.00  0.00    +0.000 C 
ENDBRANCH  22  25
ENDBRANCH   4  16
TORSDOF 3
ENDMDL
MODEL 6
REMARK VINA RESULT:      -8.9      1.347      1.985
REMARK  Name = 
REMARK  3 active torsions:
REMARK  status: ('A' for Active; 'I' for Inactive)
REMARK    1  A    between atoms: C_6  and  C_7
REMARK    2  A    between atoms: C_10  and  C_11
REMARK    3  A    between atoms: N_17  and  C_18
REMARK                            x       y       z     vdW  Elec       q    Type
REMARK                         _______ _______ _______ _____ _____    ______ ____
ROOT
ATOM      1  C   UNL     1       2.099   8.207  18.398  0.00  0.00    +0.000 A 
ATOM      2  N   UNL     1       2.916   8.414  17.351  0.00  0.00    +0.000 NA
ATOM      3  O   UNL     1       3.588   7.198  17.210  0.00  0.00    +0.000 OA
ATOM      4  C   UNL     1       3.108   6.378  18.188  0.00  0.00    +0.000 A 
ATOM      5  N   UNL     1       2.231   6.962  18.965  0.00  0.00    +0.000 NA
ENDROOT
BRANCH   1  11
ATOM      6  C   UNL     1      -2.667  12.265  19.468  0.00  0.00    +0.000 A 
ATOM      7  C   UNL     1      -2.757  11.766  18.184  0.00  0.00    +0.000 A 
ATOM      8  N   UNL     1      -1.864  10.884  17.690  0.00  0.00    +0.000 NA
ATOM      9  C   UNL     1      -0.869  10.512  18.520  0.00  0.00    +0.000 A 
ATOM     10  C   UNL     1       0.083   9.604  18.079  0.00  0.00    +0.000 A 
ATOM     11  C   UNL     1       1.130   9.168  18.905  0.00  0.00    +0.000 A 
ATOM     12  C   UNL     1       1.218   9.682  20.200  0.00  0.00    +0.000 A 
ATOM     13  C   UNL     1       0.269  10.602  20.651  0.00  0.00    +0.000 A 
ATOM     14  C   UNL     1      -0.776  11.023  19.838  0.00  0.00    +0.000 A 
ATOM     15  N   UNL     1      -1.678  11.903  20.314  0.00  0.00    +0.000 NA
ENDBRANCH   1  11
BRANCH   4  16
ATOM     16  C   UNL     1       3.546   4.949  18.173  0.00  0.00    +0.000 C 
ATOM     17  C   UNL     1       4.515   4.669  19.360  0.00  0.00    +0.000 C 
ATOM     18  C   UNL     1       5.831   5.478  19.276  0.00  0.00    +0.000 C 
ATOM     19  C   UNL     1       6.340   5.484  17.888  0.00  0.00    +0.000 A 
ATOM     20  N   UNL     1       7.561   5.933  17.504  0.00  0.00    +0.000 NA
ATOM     21  N   UNL     1       7.625   5.834  16.181  0.00  0.00    +0.000 NA
ATOM     22  N   UNL     1       6.448   5.338  15.735  0.00  0.00    +0.000 N 
ATOM     23  C   UNL     1       5.610   5.099  16.786  0.00  0.00    +0.000 A 
ATOM     24  C   UNL     1       4.213   4.589  16.807  0.00  0.00    +0.000 C 
BRANCH  22  25
ATOM     25  C   UNL     1       6.251   5.098  14.325  0.00  0.00    +0.000 C 
ATOM     26  C   UNL     1       5.751   3.684  14.015  0.00  0.00    +0.000 C 
ATOM     27  C   UNL     1       6.120   3.440  12.554  0.00  0.00    +0.000 C 
ATOM     28  C   UNL     1       7.164   4.490  12.185  0.00  0.00    +0.000 C 
ATOM     29  C   UNL     1       7.523   5.204  13.482  0.00  0.00    +0.000 C 
ENDBRANCH  22  25
ENDBRANCH   4  16
TORSDOF 3
ENDMDL
MODEL 7
REMARK VINA RESULT:      -8.7      5.285      7.733
REMARK  Name = 
REMARK  3 active torsions:
REMARK  status: ('A' for Active; 'I' for Inactive)
REMARK    1  A    between atoms: C_6  and  C_7
REMARK    2  A    between atoms: C_10  and  C_11
REMARK    3  A    between atoms: N_17  and  C_18
REMARK                            x       y       z     vdW  Elec       q    Type
REMARK                         _______ _______ _______ _____ _____    ______ ____
ROOT
ATOM      1  C   UNL     1       8.198   8.428  18.277  0.00  0.00    +0.000 A 
ATOM      2  N   UNL     1       8.620   7.474  19.124  0.00  0.00    +0.000 NA
ATOM      3  O   UNL     1       7.980   6.320  18.667  0.00  0.00    +0.000 OA
ATOM      4  C   UNL     1       7.235   6.695  17.589  0.00  0.00    +0.000 A 
ATOM      5  N   UNL     1       7.300   7.979  17.339  0.00  0.00    +0.000 NA
ENDROOT
BRANCH   1  11
ATOM      6  C   UNL     1      10.990  14.060  19.183  0.00  0.00    +0.000 A 
ATOM      7  C   UNL     1      11.597  13.105  19.973  0.00  0.00    +0.000 A 
ATOM      8  N   UNL     1      11.197  11.816  19.981  0.00  0.00    +0.000 NA
ATOM      9  C   UNL     1      10.163  11.507  19.174  0.00  0.00    +0.000 A 
ATOM     10  C   UNL     1       9.701  10.198  19.129  0.00  0.00    +0.000 A 
ATOM     11  C   UNL     1       8.640   9.816  18.294  0.00  0.00    +0.000 A 
ATOM     12  C   UNL     1       8.026  10.789  17.504  0.00  0.00    +0.000 A 
ATOM     13  C   UNL     1       8.479  12.110  17.547  0.00  0.00    +0.000 A 
ATOM     14  C   UNL     1       9.539  12.486  18.363  0.00  0.00    +0.000 A 
ATOM     15  N   UNL     1       9.954  13.768  18.368  0.00  0.00    +0.000 NA
ENDBRANCH   1  11
BRANCH   4  16
ATOM     16  C   UNL     1       6.560   5.618  16.802  0.00  0.00    +0.000 C 
ATOM     17  C   UNL     1       5.773   6.235  15.608  0.00  0.00    +0.000 C 
ATOM     18  C   UNL     1       4.622   7.168  16.053  0.00  0.00    +0.000 C 
ATOM     19  C   UNL     1       3.894   6.572  17.193  0.00  0.00    +0.000 A 
ATOM     20  N   UNL     1       2.721   7.030  17.698  0.00  0.00    +0.000 NA
ATOM     21  N   UNL     1       2.418   6.277  18.749  0.00  0.00    +0.000 NA
ATOM     22  N   UNL     1       3.398   5.359  18.911  0.00  0.00    +0.000 N 
ATOM     23  C   UNL     1       4.348   5.510  17.943  0.00  0.00    +0.000 A 
ATOM     24  C   UNL     1       5.619   4.771  17.717  0.00  0.00    +0.000 C 
BRANCH  22  25
ATOM     25  C   UNL     1       3.308   4.383  19.972  0.00  0.00    +0.000 C 
ATOM     26  C   UNL     1       2.902   2.991  19.480  0.00  0.00    +0.000 C 
ATOM     27  C   UNL     1       2.339   2.280  20.709  0.00  0.00    +0.000 C 
ATOM     28  C   UNL     1       2.037   3.364  21.740  0.00  0.00    +0.000 C 
ATOM     29  C   UNL     1       2.250   4.695  21.030  0.00  0.00    +0.000 C 
ENDBRANCH  22  25
ENDBRANCH   4  16
TORSDOF 3
ENDMDL
MODEL 8
REMARK VINA RESULT:      -8.6      5.427      7.707
REMARK  Name = 
REMARK  3 active torsions:
REMARK  status: ('A' for Active; 'I' for Inactive)
REMARK    1  A    between atoms: C_6  and  C_7
REMARK    2  A    between atoms: C_10  and  C_11
REMARK    3  A    between atoms: N_17  and  C_18
REMARK                            x       y       z     vdW  Elec       q    Type
REMARK                         _______ _______ _______ _____ _____    ______ ____
ROOT
ATOM      1  C   UNL     1       8.074   8.943  17.972  0.00  0.00    +0.000 A 
ATOM      2  N   UNL     1       7.015   8.660  17.194  0.00  0.00    +0.000 NA
ATOM      3  O   UNL     1       6.750   7.317  17.470  0.00  0.00    +0.000 OA
ATOM      4  C   UNL     1       7.678   6.924  18.389  0.00  0.00    +0.000 A 
ATOM      5  N   UNL     1       8.535   7.867  18.692  0.00  0.00    +0.000 NA
ENDROOT
BRANCH   1  11
ATOM      6  C   UNL     1      11.702  14.027  19.117  0.00  0.00    +0.000 A 
ATOM      7  C   UNL     1      12.289  12.902  19.661  0.00  0.00    +0.000 A 
ATOM      8  N   UNL     1      11.725  11.680  19.569  0.00  0.00    +0.000 NA
ATOM      9  C   UNL     1      10.548  11.612  18.916  0.00  0.00    +0.000 A 
ATOM     10  C   UNL     1       9.913  10.385  18.779  0.00  0.00    +0.000 A 
ATOM     11  C   UNL     1       8.695  10.254  18.094  0.00  0.00    +0.000 A 
ATOM     12  C   UNL     1       8.105  11.397  17.554  0.00  0.00    +0.000 A 
ATOM     13  C   UNL     1       8.732  12.638  17.692  0.00  0.00    +0.000 A 
ATOM     14  C   UNL     1       9.945  12.766  18.358  0.00  0.00    +0.000 A 
ATOM     15  N   UNL     1      10.524  13.978  18.459  0.00  0.00    +0.000 NA
ENDBRANCH   1  11
BRANCH   4  16
ATOM     16  C   UNL     1       7.532   5.560  18.984  0.00  0.00    +0.000 C 
ATOM     17  C   UNL     1       8.141   4.488  18.033  0.00  0.00    +0.000 C 
ATOM     18  C   UNL     1       7.412   4.396  16.671  0.00  0.00    +0.000 C 
ATOM     19  C   UNL     1       5.948   4.467  16.870  0.00  0.00    +0.000 A 
ATOM     20  N   UNL     1       5.017   4.224  15.914  0.00  0.00    +0.000 NA
ATOM     21  N   UNL     1       3.824   4.449  16.454  0.00  0.00    +0.000 NA
ATOM     22  N   UNL     1       4.005   4.843  17.735  0.00  0.00    +0.000 N 
ATOM     23  C   UNL     1       5.336   4.862  18.038  0.00  0.00    +0.000 A 
ATOM     24  C   UNL     1       6.033   5.250  19.293  0.00  0.00    +0.000 C 
BRANCH  22  25
ATOM     25  C   UNL     1       2.863   5.127  18.573  0.00  0.00    +0.000 C 
ATOM     26  C   UNL     1       2.843   6.564  19.103  0.00  0.00    +0.000 C 
ATOM     27  C   UNL     1       1.945   6.524  20.336  0.00  0.00    +0.000 C 
ATOM     28  C   UNL     1       1.819   5.056  20.737  0.00  0.00    +0.000 C 
ATOM     29  C   UNL     1       2.792   4.290  19.850  0.00  0.00    +0.000 C 
ENDBRANCH  22  25
ENDBRANCH   4  16
TORSDOF 3
ENDMDL
MODEL 9
REMARK VINA RESULT:      -8.4      1.264      1.827
REMARK  Name = 
REMARK  3 active torsions:
REMARK  status: ('A' for Active; 'I' for Inactive)
REMARK    1  A    between atoms: C_6  and  C_7
REMARK    2  A    between atoms: C_10  and  C_11
REMARK    3  A    between atoms: N_17  and  C_18
REMARK                            x       y       z     vdW  Elec       q    Type
REMARK                         _______ _______ _______ _____ _____    ______ ____
ROOT
ATOM      1  C   UNL     1       2.177   6.644  18.877  0.00  0.00    +0.000 A 
ATOM      2  N   UNL     1       1.452   6.074  17.899  0.00  0.00    +0.000 NA
ATOM      3  O   UNL     1       2.224   4.976  17.512  0.00  0.00    +0.000 OA
ATOM      4  C   UNL     1       3.339   4.995  18.297  0.00  0.00    +0.000 A 
ATOM      5  N   UNL     1       3.376   6.017  19.114  0.00  0.00    +0.000 NA
ENDROOT
BRANCH   1  11
ATOM      6  C   UNL     1       0.332  12.275  21.160  0.00  0.00    +0.000 A 
ATOM      7  C   UNL     1       0.490  12.355  19.791  0.00  0.00    +0.000 A 
ATOM      8  N   UNL     1       0.883  11.299  19.049  0.00  0.00    +0.000 NA
ATOM      9  C   UNL     1       1.118  10.152  19.718  0.00  0.00    +0.000 A 
ATOM     10  C   UNL     1       1.522   9.024  19.017  0.00  0.00    +0.000 A 
ATOM     11  C   UNL     1       1.763   7.800  19.659  0.00  0.00    +0.000 A 
ATOM     12  C   UNL     1       1.608   7.730  21.044  0.00  0.00    +0.000 A 
ATOM     13  C   UNL     1       1.209   8.862  21.760  0.00  0.00    +0.000 A 
ATOM     14  C   UNL     1       0.956  10.070  21.123  0.00  0.00    +0.000 A 
ATOM     15  N   UNL     1       0.562  11.135  21.847  0.00  0.00    +0.000 NA
ENDBRANCH   1  11
BRANCH   4  16
ATOM     16  C   UNL     1       4.274   3.833  18.201  0.00  0.00    +0.000 C 
ATOM     17  C   UNL     1       5.368   3.929  19.306  0.00  0.00    +0.000 C 
ATOM     18  C   UNL     1       6.277   5.171  19.157  0.00  0.00    +0.000 C 
ATOM     19  C   UNL     1       6.636   5.374  17.737  0.00  0.00    +0.000 A 
ATOM     20  N   UNL     1       7.569   6.249  17.283  0.00  0.00    +0.000 NA
ATOM     21  N   UNL     1       7.560   6.188  15.956  0.00  0.00    +0.000 NA
ATOM     22  N   UNL     1       6.620   5.291  15.578  0.00  0.00    +0.000 N 
ATOM     23  C   UNL     1       6.017   4.751  16.677  0.00  0.00    +0.000 A 
ATOM     24  C   UNL     1       4.917   3.756  16.780  0.00  0.00    +0.000 C 
BRANCH  22  25
ATOM     25  C   UNL     1       6.417   5.003  14.178  0.00  0.00    +0.000 C 
ATOM     26  C   UNL     1       6.044   3.543  13.907  0.00  0.00    +0.000 C 
ATOM     27  C   UNL     1       6.402   3.301  12.443  0.00  0.00    +0.000 C 
ATOM     28  C   UNL     1       7.336   4.436  12.029  0.00  0.00    +0.000 C 
ATOM     29  C   UNL     1       7.655   5.208  13.304  0.00  0.00    +0.000 C 
ENDBRANCH  22  25
ENDBRANCH   4  16
TORSDOF 3
ENDMDL
