MODEL 1
REMARK VINA RESULT:      -8.4      0.000      0.000
REMARK  Name = 
REMARK  5 active torsions:
REMARK  status: ('A' for Active; 'I' for Inactive)
REMARK    1  A    between atoms: C_2  and  C_18
REMARK    2  A    between atoms: N_3  and  C_4
REMARK    3  A    between atoms: C_4  and  C_5
REMARK    4  A    between atoms: C_9  and  O_10
REMARK    5  A    between atoms: O_10  and  C_11
REMARK                            x       y       z     vdW  Elec       q    Type
REMARK                         _______ _______ _______ _____ _____    ______ ____
ROOT
ATOM      1  O   UNL     1       2.497   8.809  17.336  0.00  0.00    +0.000 OA
ATOM      2  C   UNL     1       2.181   8.142  18.314  0.00  0.00    +0.000 C 
ATOM      3  N   UNL     1       1.452   8.624  19.386  0.00  0.00    +0.000 N 
ATOM      4  H   UNL     1       1.217   7.997  20.146  0.00  0.00    +0.000 HD
ENDROOT
BRANCH   2   5
ATOM      5  C   UNL     1       2.496   6.671  18.471  0.00  0.00    +0.000 C 
ATOM      6  C   UNL     1       3.872   6.168  17.988  0.00  0.00    +0.000 C 
ATOM      7  O   UNL     1       4.342   4.942  18.632  0.00  0.00    +0.000 OA
ATOM      8  C   UNL     1       3.305   4.146  19.056  0.00  0.00    +0.000 A 
ATOM      9  C   UNL     1       3.281   2.806  18.704  0.00  0.00    +0.000 A 
ATOM     10  C   UNL     1       2.096   2.089  18.882  0.00  0.00    +0.000 A 
ATOM     11  C   UNL     1       0.973   2.700  19.455  0.00  0.00    +0.000 A 
ATOM     12  C   UNL     1       1.044   4.013  19.909  0.00  0.00    +0.000 A 
ATOM     13  C   UNL     1       2.224   4.731  19.721  0.00  0.00    +0.000 A 
ATOM     14  C   UNL     1       2.303   6.211  19.913  0.00  0.00    +0.000 C 
ENDBRANCH   2   5
BRANCH   3  15
ATOM     15  C   UNL     1       0.985   9.987  19.513  0.00  0.00    +0.000 C 
BRANCH  15  16
ATOM     16  C   UNL     1       0.352  10.217  20.859  0.00  0.00    +0.000 A 
ATOM     17  C   UNL     1       0.334   9.185  21.801  0.00  0.00    +0.000 A 
ATOM     18  C   UNL     1      -0.220   9.423  23.042  0.00  0.00    +0.000 A 
ATOM     19  N   UNL     1      -0.770  10.601  23.404  0.00  0.00    +0.000 NA
ATOM     20  C   UNL     1      -0.786  11.584  22.476  0.00  0.00    +0.000 A 
ATOM     21  C   UNL     1      -0.222  11.449  21.213  0.00  0.00    +0.000 A 
BRANCH  20  22
ATOM     22  O   UNL     1      -1.383  12.801  22.790  0.00  0.00    +0.000 OA
BRANCH  22  23
ATOM     23  C   UNL     1      -2.764  12.823  22.833  0.00  0.00    +0.000 A 
ATOM     24  C   UNL     1      -3.455  12.763  21.621  0.00  0.00    +0.000 A 
ATOM     25  C   UNL     1      -4.852  12.780  21.612  0.00  0.00    +0.000 A 
ATOM     26  C   UNL     1      -5.559  12.848  22.813  0.00  0.00    +0.000 A 
ATOM     27  C   UNL     1      -4.871  12.875  24.025  0.00  0.00    +0.000 A 
ATOM     28  C   UNL     1      -3.478  12.842  24.036  0.00  0.00    +0.000 A 
ENDBRANCH  22  23
ENDBRANCH  20  22
ENDBRANCH  15  16
ENDBRANCH   3  15
TORSDOF 5
ENDMDL
MODEL 2
REMARK VINA RESULT:      -8.1      2.686      4.173
REMARK  Name = 
REMARK  5 active torsions:
REMARK  status: ('A' for Active; 'I' for Inactive)
REMARK    1  A    between atoms: C_2  and  C_18
REMARK    2  A    between atoms: N_3  and  C_4
REMARK    3  A    between atoms: C_4  and  C_5
REMARK    4  A    between atoms: C_9  and  O_10
REMARK    5  A    between atoms: O_10  and  C_11
REMARK                            x       y       z     vdW  Elec       q    Type
REMARK                         _______ _______ _______ _____ _____    ______ ____
ROOT
ATOM      1  O   UNL     1       2.137   4.917  20.694  0.00  0.00    +0.000 OA
ATOM      2  C   UNL     1       2.327   5.948  20.059  0.00  0.00    +0.000 C 
ATOM      3  N   UNL     1       1.837   7.190  20.419  0.00  0.00    +0.000 N 
ATOM      4  H   UNL     1       2.059   7.994  19.846  0.00  0.00    +0.000 HD
ENDROOT
BRANCH   2   5
ATOM      5  C   UNL     1       3.174   6.025  18.807  0.00  0.00    +0.000 C 
ATOM      6  C   UNL     1       3.183   7.350  18.017  0.00  0.00    +0.000 C 
ATOM      7  O   UNL     1       4.370   7.570  17.195  0.00  0.00    +0.000 OA
ATOM      8  C   UNL     1       4.945   6.392  16.782  0.00  0.00    +0.000 A 
ATOM      9  C   UNL     1       5.232   6.201  15.440  0.00  0.00    +0.000 A 
ATOM     10  C   UNL     1       5.532   4.911  14.996  0.00  0.00    +0.000 A 
ATOM     11  C   UNL     1       5.593   3.844  15.900  0.00  0.00    +0.000 A 
ATOM     12  C   UNL     1       5.413   4.066  17.262  0.00  0.00    +0.000 A 
ATOM     13  C   UNL     1       5.104   5.352  17.702  0.00  0.00    +0.000 A 
ATOM     14  C   UNL     1       4.621   5.632  19.088  0.00  0.00    +0.000 C 
ENDBRANCH   2   5
BRANCH   3  15
ATOM     15  C   UNL     1       1.014   7.440  21.581  0.00  0.00    +0.000 C 
BRANCH  15  16
ATOM     16  C   UNL     1       0.398   8.812  21.521  0.00  0.00    +0.000 A 
ATOM     17  C   UNL     1      -0.052   9.421  22.697  0.00  0.00    +0.000 A 
ATOM     18  C   UNL     1      -0.583  10.692  22.629  0.00  0.00    +0.000 A 
ATOM     19  N   UNL     1      -0.714  11.390  21.482  0.00  0.00    +0.000 NA
ATOM     20  C   UNL     1      -0.315  10.782  20.342  0.00  0.00    +0.000 A 
ATOM     21  C   UNL     1       0.262   9.518  20.315  0.00  0.00    +0.000 A 
BRANCH  20  22
ATOM     22  O   UNL     1      -0.474  11.446  19.130  0.00  0.00    +0.000 OA
BRANCH  22  23
ATOM     23  C   UNL     1      -1.578  11.103  18.373  0.00  0.00    +0.000 A 
ATOM     24  C   UNL     1      -2.774  11.778  18.623  0.00  0.00    +0.000 A 
ATOM     25  C   UNL     1      -3.919  11.468  17.883  0.00  0.00    +0.000 A 
ATOM     26  C   UNL     1      -3.865  10.492  16.887  0.00  0.00    +0.000 A 
ATOM     27  C   UNL     1      -2.664   9.841  16.614  0.00  0.00    +0.000 A 
ATOM     28  C   UNL     1      -1.518  10.160  17.341  0.00  0.00    +0.000 A 
ENDBRANCH  22  23
ENDBRANCH  20  22
ENDBRANCH  15  16
ENDBRANCH   3  15
TORSDOF 5
ENDMDL
MODEL 3
REMARK VINA RESULT:      -8.0      1.240      1.827
REMARK  Name = 
REMARK  5 active torsions:
REMARK  status: ('A' for Active; 'I' for Inactive)
REMARK    1  A    between atoms: C_2  and  C_18
REMARK    2  A    between atoms: N_3  and  C_4
REMARK    3  A    between atoms: C_4  and  C_5
REMARK    4  A    between atoms: C_9  and  O_10
REMARK    5  A    between atoms: O_10  and  C_11
REMARK                            x       y       z     vdW  Elec       q    Type
REMARK                         _______ _______ _______ _____ _____    ______ ____
ROOT
ATOM      1  O   UNL     1       2.043   8.911  17.362  0.00  0.00    +0.000 OA
ATOM      2  C   UNL     1       1.941   8.347  18.445  0.00  0.00    +0.000 C 
ATOM      3  N   UNL     1       1.416   8.930  19.585  0.00  0.00    +0.000 N 
ATOM      4  H   UNL     1       1.351   8.384  20.434  0.00  0.00    +0.000 HD
ENDROOT
BRANCH   2   5
ATOM      5  C   UNL     1       2.326   6.904  18.686  0.00  0.00    +0.000 C 
ATOM      6  C   UNL     1       3.703   6.426  18.180  0.00  0.00    +0.000 C 
ATOM      7  O   UNL     1       4.251   5.267  18.882  0.00  0.00    +0.000 OA
ATOM      8  C   UNL     1       3.267   4.459  19.401  0.00  0.00    +0.000 A 
ATOM      9  C   UNL     1       3.288   3.099  19.140  0.00  0.00    +0.000 A 
ATOM     10  C   UNL     1       2.143   2.348  19.414  0.00  0.00    +0.000 A 
ATOM     11  C   UNL     1       1.019   2.949  19.993  0.00  0.00    +0.000 A 
ATOM     12  C   UNL     1       1.049   4.292  20.355  0.00  0.00    +0.000 A 
ATOM     13  C   UNL     1       2.188   5.043  20.071  0.00  0.00    +0.000 A 
ATOM     14  C   UNL     1       2.210   6.535  20.162  0.00  0.00    +0.000 C 
ENDBRANCH   2   5
BRANCH   3  15
ATOM     15  C   UNL     1       0.940  10.293  19.661  0.00  0.00    +0.000 C 
BRANCH  15  16
ATOM     16  C   UNL     1       0.147  10.518  20.921  0.00  0.00    +0.000 A 
ATOM     17  C   UNL     1       0.344   9.679  22.022  0.00  0.00    +0.000 A 
ATOM     18  C   UNL     1      -0.368   9.918  23.179  0.00  0.00    +0.000 A 
ATOM     19  N   UNL     1      -1.268  10.914  23.313  0.00  0.00    +0.000 NA
ATOM     20  C   UNL     1      -1.485  11.698  22.234  0.00  0.00    +0.000 A 
ATOM     21  C   UNL     1      -0.793  11.555  21.037  0.00  0.00    +0.000 A 
BRANCH  20  22
ATOM     22  O   UNL     1      -2.437  12.709  22.312  0.00  0.00    +0.000 OA
BRANCH  22  23
ATOM     23  C   UNL     1      -2.289  13.624  23.337  0.00  0.00    +0.000 A 
ATOM     24  C   UNL     1      -3.324  13.732  24.268  0.00  0.00    +0.000 A 
ATOM     25  C   UNL     1      -3.221  14.643  25.324  0.00  0.00    +0.000 A 
ATOM     26  C   UNL     1      -2.081  15.436  25.456  0.00  0.00    +0.000 A 
ATOM     27  C   UNL     1      -1.034  15.305  24.546  0.00  0.00    +0.000 A 
ATOM     28  C   UNL     1      -1.128  14.388  23.501  0.00  0.00    +0.000 A 
ENDBRANCH  22  23
ENDBRANCH  20  22
ENDBRANCH  15  16
ENDBRANCH   3  15
TORSDOF 5
ENDMDL
MODEL 4
REMARK VINA RESULT:      -8.0      1.985      3.548
REMARK  Name = 
REMARK  5 active torsions:
REMARK  status: ('A' for Active; 'I' for Inactive)
REMARK    1  A    between atoms: C_2  and  C_18
REMARK    2  A    between atoms: N_3  and  C_4
REMARK    3  A    between atoms: C_4  and  C_5
REMARK    4  A    between atoms: C_9  and  O_10
REMARK    5  A    between atoms: O_10  and  C_11
REMARK                            x       y       z     vdW  Elec       q    Type
REMARK                         _______ _______ _______ _____ _____    ______ ____
ROOT
ATOM      1  O   UNL     1       2.289   4.868  21.028  0.00  0.00    +0.000 OA
ATOM      2  C   UNL     1       2.586   5.600  20.092  0.00  0.00    +0.000 C 
ATOM      3  N   UNL     1       2.223   6.931  19.993  0.00  0.00    +0.000 N 
ATOM      4  H   UNL     1       2.529   7.469  19.191  0.00  0.00    +0.000 HD
ENDROOT
BRANCH   2   5
ATOM      5  C   UNL     1       3.445   5.169  18.922  0.00  0.00    +0.000 C 
ATOM      6  C   UNL     1       3.106   3.834  18.227  0.00  0.00    +0.000 C 
ATOM      7  O   UNL     1       3.556   3.729  16.840  0.00  0.00    +0.000 OA
ATOM      8  C   UNL     1       4.668   4.498  16.593  0.00  0.00    +0.000 A 
ATOM      9  C   UNL     1       5.774   3.929  15.983  0.00  0.00    +0.000 A 
ATOM     10  C   UNL     1       6.985   4.624  16.008  0.00  0.00    +0.000 A 
ATOM     11  C   UNL     1       7.063   5.895  16.591  0.00  0.00    +0.000 A 
ATOM     12  C   UNL     1       5.922   6.505  17.101  0.00  0.00    +0.000 A 
ATOM     13  C   UNL     1       4.716   5.806  17.085  0.00  0.00    +0.000 A 
ATOM     14  C   UNL     1       3.516   6.255  17.853  0.00  0.00    +0.000 C 
ENDBRANCH   2   5
BRANCH   3  15
ATOM     15  C   UNL     1       1.421   7.636  20.968  0.00  0.00    +0.000 C 
BRANCH  15  16
ATOM     16  C   UNL     1       1.139   9.044  20.518  0.00  0.00    +0.000 A 
ATOM     17  C   UNL     1       1.187   9.359  19.157  0.00  0.00    +0.000 A 
ATOM     18  C   UNL     1       0.893  10.646  18.759  0.00  0.00    +0.000 A 
ATOM     19  N   UNL     1       0.575  11.641  19.613  0.00  0.00    +0.000 NA
ATOM     20  C   UNL     1       0.569  11.343  20.931  0.00  0.00    +0.000 A 
ATOM     21  C   UNL     1       0.819  10.067  21.425  0.00  0.00    +0.000 A 
BRANCH  20  22
ATOM     22  O   UNL     1       0.291  12.349  21.852  0.00  0.00    +0.000 OA
BRANCH  22  23
ATOM     23  C   UNL     1      -1.042  12.606  22.107  0.00  0.00    +0.000 A 
ATOM     24  C   UNL     1      -1.657  11.894  23.139  0.00  0.00    +0.000 A 
ATOM     25  C   UNL     1      -3.004  12.119  23.438  0.00  0.00    +0.000 A 
ATOM     26  C   UNL     1      -3.733  13.063  22.713  0.00  0.00    +0.000 A 
ATOM     27  C   UNL     1      -3.111  13.798  21.705  0.00  0.00    +0.000 A 
ATOM     28  C   UNL     1      -1.765  13.585  21.416  0.00  0.00    +0.000 A 
ENDBRANCH  22  23
ENDBRANCH  20  22
ENDBRANCH  15  16
ENDBRANCH   3  15
TORSDOF 5
ENDMDL
MODEL 5
REMARK VINA RESULT:      -7.9      2.901      4.429
REMARK  Name = 
REMARK  5 active torsions:
REMARK  status: ('A' for Active; 'I' for Inactive)
REMARK    1  A    between atoms: C_2  and  C_18
REMARK    2  A    between atoms: N_3  and  C_4
REMARK    3  A    between atoms: C_4  and  C_5
REMARK    4  A    between atoms: C_9  and  O_10
REMARK    5  A    between atoms: O_10  and  C_11
REMARK                            x       y       z     vdW  Elec       q    Type
REMARK                         _______ _______ _______ _____ _____    ______ ____
ROOT
ATOM      1  O   UNL     1       2.041   4.516  20.942  0.00  0.00    +0.000 OA
ATOM      2  C   UNL     1       2.435   5.371  20.158  0.00  0.00    +0.000 C 
ATOM      3  N   UNL     1       2.131   6.717  20.250  0.00  0.00    +0.000 N 
ATOM      4  H   UNL     1       2.517   7.359  19.568  0.00  0.00    +0.000 HD
ENDROOT
BRANCH   2   5
ATOM      5  C   UNL     1       3.362   5.088  18.996  0.00  0.00    +0.000 C 
ATOM      6  C   UNL     1       3.129   3.801  18.178  0.00  0.00    +0.000 C 
ATOM      7  O   UNL     1       3.638   3.839  16.808  0.00  0.00    +0.000 OA
ATOM      8  C   UNL     1       4.713   4.685  16.675  0.00  0.00    +0.000 A 
ATOM      9  C   UNL     1       5.873   4.231  16.068  0.00  0.00    +0.000 A 
ATOM     10  C   UNL     1       7.039   4.987  16.204  0.00  0.00    +0.000 A 
ATOM     11  C   UNL     1       7.021   6.206  16.893  0.00  0.00    +0.000 A 
ATOM     12  C   UNL     1       5.827   6.707  17.401  0.00  0.00    +0.000 A 
ATOM     13  C   UNL     1       4.666   5.947  17.275  0.00  0.00    +0.000 A 
ATOM     14  C   UNL     1       3.413   6.264  18.024  0.00  0.00    +0.000 C 
ENDBRANCH   2   5
BRANCH   3  15
ATOM     15  C   UNL     1       1.285   7.297  21.269  0.00  0.00    +0.000 C 
BRANCH  15  16
ATOM     16  C   UNL     1       0.980   8.739  20.960  0.00  0.00    +0.000 A 
ATOM     17  C   UNL     1       1.074   9.699  21.973  0.00  0.00    +0.000 A 
ATOM     18  C   UNL     1       0.823  11.020  21.666  0.00  0.00    +0.000 A 
ATOM     19  N   UNL     1       0.470  11.449  20.436  0.00  0.00    +0.000 NA
ATOM     20  C   UNL     1       0.340  10.513  19.470  0.00  0.00    +0.000 A 
ATOM     21  C   UNL     1       0.605   9.164  19.676  0.00  0.00    +0.000 A 
BRANCH  20  22
ATOM     22  O   UNL     1      -0.066  10.905  18.198  0.00  0.00    +0.000 OA
BRANCH  22  23
ATOM     23  C   UNL     1      -1.416  10.805  17.919  0.00  0.00    +0.000 A 
ATOM     24  C   UNL     1      -2.283  11.685  18.570  0.00  0.00    +0.000 A 
ATOM     25  C   UNL     1      -3.657  11.625  18.321  0.00  0.00    +0.000 A 
ATOM     26  C   UNL     1      -4.163  10.694  17.413  0.00  0.00    +0.000 A 
ATOM     27  C   UNL     1      -3.295   9.838  16.738  0.00  0.00    +0.000 A 
ATOM     28  C   UNL     1      -1.924   9.907  16.975  0.00  0.00    +0.000 A 
ENDBRANCH  22  23
ENDBRANCH  20  22
ENDBRANCH  15  16
ENDBRANCH   3  15
TORSDOF 5
ENDMDL
MODEL 6
REMARK VINA RESULT:      -7.8      2.145      9.810
REMARK  Name = 
REMARK  5 active torsions:
REMARK  status: ('A' for Active; 'I' for Inactive)
REMARK    1  A    between atoms: C_2  and  C_18
REMARK    2  A    between atoms: N_3  and  C_4
REMARK    3  A    between atoms: C_4  and  C_5
REMARK    4  A    between atoms: C_9  and  O_10
REMARK    5  A    between atoms: O_10  and  C_11
REMARK                            x       y       z     vdW  Elec       q    Type
REMARK                         _______ _______ _______ _____ _____    ______ ____
ROOT
ATOM      1  O   UNL     1      -0.420   9.776  17.714  0.00  0.00    +0.000 OA
ATOM      2  C   UNL     1       0.154   9.899  18.789  0.00  0.00    +0.000 C 
ATOM      3  N   UNL     1       1.401   9.372  19.075  0.00  0.00    +0.000 N 
ATOM      4  H   UNL     1       1.811   9.538  19.985  0.00  0.00    +0.000 HD
ENDROOT
BRANCH   2   5
ATOM      5  C   UNL     1      -0.394  10.695  19.953  0.00  0.00    +0.000 C 
ATOM      6  C   UNL     1       0.468  10.803  21.228  0.00  0.00    +0.000 C 
ATOM      7  O   UNL     1       0.192  11.971  22.062  0.00  0.00    +0.000 OA
ATOM      8  C   UNL     1      -1.106  12.406  21.937  0.00  0.00    +0.000 A 
ATOM      9  C   UNL     1      -1.872  12.616  23.072  0.00  0.00    +0.000 A 
ATOM     10  C   UNL     1      -3.253  12.765  22.930  0.00  0.00    +0.000 A 
ATOM     11  C   UNL     1      -3.843  12.757  21.660  0.00  0.00    +0.000 A 
ATOM     12  C   UNL     1      -3.051  12.659  20.519  0.00  0.00    +0.000 A 
ATOM     13  C   UNL     1      -1.674  12.499  20.663  0.00  0.00    +0.000 A 
ATOM     14  C   UNL     1      -0.788  12.106  19.527  0.00  0.00    +0.000 C 
ENDBRANCH   2   5
BRANCH   3  15
ATOM     15  C   UNL     1       2.186   8.582  18.153  0.00  0.00    +0.000 C 
BRANCH  15  16
ATOM     16  C   UNL     1       2.391   7.186  18.678  0.00  0.00    +0.000 A 
ATOM     17  C   UNL     1       2.029   6.881  19.994  0.00  0.00    +0.000 A 
ATOM     18  C   UNL     1       2.193   5.589  20.448  0.00  0.00    +0.000 A 
ATOM     19  N   UNL     1       2.704   4.589  19.700  0.00  0.00    +0.000 NA
ATOM     20  C   UNL     1       3.090   4.898  18.442  0.00  0.00    +0.000 A 
ATOM     21  C   UNL     1       2.934   6.162  17.885  0.00  0.00    +0.000 A 
BRANCH  20  22
ATOM     22  O   UNL     1       3.665   3.909  17.649  0.00  0.00    +0.000 OA
BRANCH  22  23
ATOM     23  C   UNL     1       4.893   4.199  17.086  0.00  0.00    +0.000 A 
ATOM     24  C   UNL     1       4.975   4.256  15.694  0.00  0.00    +0.000 A 
ATOM     25  C   UNL     1       6.195   4.547  15.077  0.00  0.00    +0.000 A 
ATOM     26  C   UNL     1       7.330   4.792  15.851  0.00  0.00    +0.000 A 
ATOM     27  C   UNL     1       7.242   4.769  17.242  0.00  0.00    +0.000 A 
ATOM     28  C   UNL     1       6.023   4.493  17.858  0.00  0.00    +0.000 A 
ENDBRANCH  22  23
ENDBRANCH  20  22
ENDBRANCH  15  16
ENDBRANCH   3  15
TORSDOF 5
ENDMDL
MODEL 7
REMARK VINA RESULT:      -7.8      2.821      9.487
REMARK  Name = 
REMARK  5 active torsions:
REMARK  status: ('A' for Active; 'I' for Inactive)
REMARK    1  A    between atoms: C_2  and  C_18
REMARK    2  A    between atoms: N_3  and  C_4
REMARK    3  A    between atoms: C_4  and  C_5
REMARK    4  A    between atoms: C_9  and  O_10
REMARK    5  A    between atoms: O_10  and  C_11
REMARK                            x       y       z     vdW  Elec       q    Type
REMARK                         _______ _______ _______ _____ _____    ______ ____
ROOT
ATOM      1  O   UNL     1      -1.215   9.816  17.113  0.00  0.00    +0.000 OA
ATOM      2  C   UNL     1      -1.221  10.477  18.144  0.00  0.00    +0.000 C 
ATOM      3  N   UNL     1      -0.086  10.843  18.846  0.00  0.00    +0.000 N 
ATOM      4  H   UNL     1      -0.182  11.409  19.680  0.00  0.00    +0.000 HD
ENDROOT
BRANCH   2   5
ATOM      5  C   UNL     1      -2.474  11.040  18.779  0.00  0.00    +0.000 C 
ATOM      6  C   UNL     1      -2.313  12.118  19.870  0.00  0.00    +0.000 C 
ATOM      7  O   UNL     1      -3.469  12.997  20.044  0.00  0.00    +0.000 OA
ATOM      8  C   UNL     1      -4.648  12.382  19.698  0.00  0.00    +0.000 A 
ATOM      9  C   UNL     1      -5.716  12.400  20.579  0.00  0.00    +0.000 A 
ATOM     10  C   UNL     1      -6.788  11.534  20.351  0.00  0.00    +0.000 A 
ATOM     11  C   UNL     1      -6.804  10.705  19.222  0.00  0.00    +0.000 A 
ATOM     12  C   UNL     1      -5.780  10.777  18.284  0.00  0.00    +0.000 A 
ATOM     13  C   UNL     1      -4.706  11.633  18.519  0.00  0.00    +0.000 A 
ATOM     14  C   UNL     1      -3.441  11.573  17.725  0.00  0.00    +0.000 C 
ENDBRANCH   2   5
BRANCH   3  15
ATOM     15  C   UNL     1       1.261  10.475  18.473  0.00  0.00    +0.000 C 
BRANCH  15  16
ATOM     16  C   UNL     1       1.606   9.102  18.985  0.00  0.00    +0.000 A 
ATOM     17  C   UNL     1       1.257   8.742  20.290  0.00  0.00    +0.000 A 
ATOM     18  C   UNL     1       1.551   7.469  20.733  0.00  0.00    +0.000 A 
ATOM     19  N   UNL     1       2.179   6.540  19.981  0.00  0.00    +0.000 NA
ATOM     20  C   UNL     1       2.550   6.905  18.734  0.00  0.00    +0.000 A 
ATOM     21  C   UNL     1       2.268   8.153  18.190  0.00  0.00    +0.000 A 
BRANCH  20  22
ATOM     22  O   UNL     1       3.240   5.995  17.940  0.00  0.00    +0.000 OA
BRANCH  22  23
ATOM     23  C   UNL     1       4.617   5.989  18.053  0.00  0.00    +0.000 A 
ATOM     24  C   UNL     1       5.356   6.629  17.055  0.00  0.00    +0.000 A 
ATOM     25  C   UNL     1       6.752   6.652  17.126  0.00  0.00    +0.000 A 
ATOM     26  C   UNL     1       7.408   6.047  18.198  0.00  0.00    +0.000 A 
ATOM     27  C   UNL     1       6.671   5.437  19.211  0.00  0.00    +0.000 A 
ATOM     28  C   UNL     1       5.279   5.426  19.150  0.00  0.00    +0.000 A 
ENDBRANCH  22  23
ENDBRANCH  20  22
ENDBRANCH  15  16
ENDBRANCH   3  15
TORSDOF 5
ENDMDL
MODEL 8
REMARK VINA RESULT:      -7.7      2.804      3.527
REMARK  Name = 
REMARK  5 active torsions:
REMARK  status: ('A' for Active; 'I' for Inactive)
REMARK    1  A    between atoms: C_2  and  C_18
REMARK    2  A    between atoms: N_3  and  C_4
REMARK    3  A    between atoms: C_4  and  C_5
REMARK    4  A    between atoms: C_9  and  O_10
REMARK    5  A    between atoms: O_10  and  C_11
REMARK                            x       y       z     vdW  Elec       q    Type
REMARK                         _______ _______ _______ _____ _____    ______ ____
ROOT
ATOM      1  O   UNL     1       2.118   9.929  17.297  0.00  0.00    +0.000 OA
ATOM      2  C   UNL     1       1.631   9.216  18.167  0.00  0.00    +0.000 C 
ATOM      3  N   UNL     1       0.571   9.585  18.976  0.00  0.00    +0.000 N 
ATOM      4  H   UNL     1       0.217   8.925  19.658  0.00  0.00    +0.000 HD
ENDROOT
BRANCH   2   5
ATOM      5  C   UNL     1       2.082   7.800  18.450  0.00  0.00    +0.000 C 
ATOM      6  C   UNL     1       3.412   7.324  17.830  0.00  0.00    +0.000 C 
ATOM      7  O   UNL     1       4.064   6.225  18.538  0.00  0.00    +0.000 OA
ATOM      8  C   UNL     1       3.165   5.427  19.205  0.00  0.00    +0.000 A 
ATOM      9  C   UNL     1       3.198   4.055  19.024  0.00  0.00    +0.000 A 
ATOM     10  C   UNL     1       2.112   3.295  19.462  0.00  0.00    +0.000 A 
ATOM     11  C   UNL     1       1.036   3.904  20.119  0.00  0.00    +0.000 A 
ATOM     12  C   UNL     1       1.064   5.267  20.397  0.00  0.00    +0.000 A 
ATOM     13  C   UNL     1       2.144   6.026  19.950  0.00  0.00    +0.000 A 
ATOM     14  C   UNL     1       2.131   7.520  19.949  0.00  0.00    +0.000 C 
ENDBRANCH   2   5
BRANCH   3  15
ATOM     15  C   UNL     1      -0.089  10.870  18.926  0.00  0.00    +0.000 C 
BRANCH  15  16
ATOM     16  C   UNL     1      -1.387  10.780  18.169  0.00  0.00    +0.000 A 
ATOM     17  C   UNL     1      -1.521   9.853  17.132  0.00  0.00    +0.000 A 
ATOM     18  C   UNL     1      -2.728   9.760  16.470  0.00  0.00    +0.000 A 
ATOM     19  N   UNL     1      -3.799  10.532  16.752  0.00  0.00    +0.000 NA
ATOM     20  C   UNL     1      -3.652  11.455  17.729  0.00  0.00    +0.000 A 
ATOM     21  C   UNL     1      -2.487  11.599  18.473  0.00  0.00    +0.000 A 
BRANCH  20  22
ATOM     22  O   UNL     1      -4.715  12.302  18.024  0.00  0.00    +0.000 OA
BRANCH  22  23
ATOM     23  C   UNL     1      -5.549  11.918  19.056  0.00  0.00    +0.000 A 
ATOM     24  C   UNL     1      -6.429  10.859  18.823  0.00  0.00    +0.000 A 
ATOM     25  C   UNL     1      -7.292  10.432  19.837  0.00  0.00    +0.000 A 
ATOM     26  C   UNL     1      -7.268  11.055  21.085  0.00  0.00    +0.000 A 
ATOM     27  C   UNL     1      -6.368  12.090  21.329  0.00  0.00    +0.000 A 
ATOM     28  C   UNL     1      -5.497  12.507  20.324  0.00  0.00    +0.000 A 
ENDBRANCH  22  23
ENDBRANCH  20  22
ENDBRANCH  15  16
ENDBRANCH   3  15
TORSDOF 5
ENDMDL
MODEL 9
REMARK VINA RESULT:      -7.7      2.142      9.769
REMARK  Name = 
REMARK  5 active torsions:
REMARK  status: ('A' for Active; 'I' for Inactive)
REMARK    1  A    between atoms: C_2  and  C_18
REMARK    2  A    between atoms: N_3  and  C_4
REMARK    3  A    between atoms: C_4  and  C_5
REMARK    4  A    between atoms: C_9  and  O_10
REMARK    5  A    between atoms: O_10  and  C_11
REMARK                            x       y       z     vdW  Elec       q    Type
REMARK                         _______ _______ _______ _____ _____    ______ ____
ROOT
ATOM      1  O   UNL     1       0.101   9.922  17.940  0.00  0.00    +0.000 OA
ATOM      2  C   UNL     1       0.391   9.684  19.106  0.00  0.00    +0.000 C 
ATOM      3  N   UNL     1       1.413   8.841  19.503  0.00  0.00    +0.000 N 
ATOM      4  H   UNL     1       1.596   8.717  20.491  0.00  0.00    +0.000 HD
ENDROOT
BRANCH   2   5
ATOM      5  C   UNL     1      -0.297  10.322  20.294  0.00  0.00    +0.000 C 
ATOM      6  C   UNL     1       0.138   9.882  21.707  0.00  0.00    +0.000 C 
ATOM      7  O   UNL     1      -0.116  10.860  22.763  0.00  0.00    +0.000 OA
ATOM      8  C   UNL     1      -1.186  11.673  22.475  0.00  0.00    +0.000 A 
ATOM      9  C   UNL     1      -2.195  11.837  23.410  0.00  0.00    +0.000 A 
ATOM     10  C   UNL     1      -3.399  12.413  23.001  0.00  0.00    +0.000 A 
ATOM     11  C   UNL     1      -3.562  12.865  21.685  0.00  0.00    +0.000 A 
ATOM     12  C   UNL     1      -2.503  12.799  20.785  0.00  0.00    +0.000 A 
ATOM     13  C   UNL     1      -1.305  12.214  21.191  0.00  0.00    +0.000 A 
ATOM     14  C   UNL     1      -0.224  11.845  20.228  0.00  0.00    +0.000 C 
ENDBRANCH   2   5
BRANCH   3  15
ATOM     15  C   UNL     1       2.265   8.105  18.596  0.00  0.00    +0.000 C 
BRANCH  15  16
ATOM     16  C   UNL     1       2.631   6.762  19.170  0.00  0.00    +0.000 A 
ATOM     17  C   UNL     1       1.759   6.128  20.060  0.00  0.00    +0.000 A 
ATOM     18  C   UNL     1       2.094   4.884  20.551  0.00  0.00    +0.000 A 
ATOM     19  N   UNL     1       3.236   4.237  20.237  0.00  0.00    +0.000 NA
ATOM     20  C   UNL     1       4.095   4.870  19.408  0.00  0.00    +0.000 A 
ATOM     21  C   UNL     1       3.829   6.110  18.837  0.00  0.00    +0.000 A 
BRANCH  20  22
ATOM     22  O   UNL     1       5.305   4.260  19.093  0.00  0.00    +0.000 OA
BRANCH  22  23
ATOM     23  C   UNL     1       5.716   4.338  17.776  0.00  0.00    +0.000 A 
ATOM     24  C   UNL     1       4.806   3.959  16.786  0.00  0.00    +0.000 A 
ATOM     25  C   UNL     1       5.173   4.021  15.439  0.00  0.00    +0.000 A 
ATOM     26  C   UNL     1       6.444   4.471  15.080  0.00  0.00    +0.000 A 
ATOM     27  C   UNL     1       7.341   4.881  16.064  0.00  0.00    +0.000 A 
ATOM     28  C   UNL     1       6.971   4.834  17.407  0.00  0.00    +0.000 A 
ENDBRANCH  22  23
ENDBRANCH  20  22
ENDBRANCH  15  16
ENDBRANCH   3  15
TORSDOF 5
ENDMDL
