MODEL 1
REMARK VINA RESULT:      -8.9      0.000      0.000
REMARK  Name = 
REMARK  8 active torsions:
REMARK  status: ('A' for Active; 'I' for Inactive)
REMARK    1  A    between atoms: C_1  and  C_2
REMARK    2  A    between atoms: C_4  and  C_5
REMARK    3  A    between atoms: C_14  and  C_15
REMARK    4  A    between atoms: N_17  and  C_18
REMARK    5  A    between atoms: C_22  and  S_23
REMARK    6  A    between atoms: S_23  and  N_26
REMARK    7  A    between atoms: N_26  and  C_27
REMARK    8  A    between atoms: N_26  and  C_28
REMARK                            x       y       z     vdW  Elec       q    Type
REMARK                         _______ _______ _______ _____ _____    ______ ____
ROOT
ATOM      1  C   UNL     1       1.744   7.287  20.138  0.00  0.00    +0.000 C 
ATOM      2  O   UNL     1       1.881   6.375  20.950  0.00  0.00    +0.000 OA
ATOM      3  N   UNL     1       2.191   7.269  18.828  0.00  0.00    +0.000 N 
ATOM      4  H   UNL     1       2.172   8.137  18.308  0.00  0.00    +0.000 HD
ENDROOT
BRANCH   1  11
ATOM      5  C   UNL     1       1.114   9.844  18.456  0.00  0.00    +0.000 C 
ATOM      6  C   UNL     1       0.828   9.685  19.919  0.00  0.00    +0.000 A 
ATOM      7  N   UNL     1       0.201  10.761  20.484  0.00  0.00    +0.000 NA
ATOM      8  C   UNL     1      -0.165  10.717  21.793  0.00  0.00    +0.000 A 
ATOM      9  C   UNL     1       0.102   9.603  22.575  0.00  0.00    +0.000 A 
ATOM     10  C   UNL     1       0.760   8.519  22.004  0.00  0.00    +0.000 A 
ATOM     11  C   UNL     1       1.139   8.543  20.655  0.00  0.00    +0.000 A 
BRANCH   8  12
ATOM     12  C   UNL     1      -0.876  11.903  22.314  0.00  0.00    +0.000 A 
ATOM     13  C   UNL     1      -0.391  13.209  22.104  0.00  0.00    +0.000 A 
ATOM     14  C   UNL     1      -1.059  14.328  22.613  0.00  0.00    +0.000 A 
ATOM     15  C   UNL     1      -2.231  14.164  23.344  0.00  0.00    +0.000 A 
ATOM     16  C   UNL     1      -2.732  12.883  23.557  0.00  0.00    +0.000 A 
ATOM     17 BR   UNL     1      -4.326  12.659  24.551  0.00  0.00    +0.000 Br
ATOM     18  C   UNL     1      -2.067  11.765  23.050  0.00  0.00    +0.000 A 
ENDBRANCH   8  12
ENDBRANCH   1  11
BRANCH   3  19
ATOM     19  C   UNL     1       2.859   6.187  18.199  0.00  0.00    +0.000 A 
ATOM     20  C   UNL     1       2.236   4.971  17.890  0.00  0.00    +0.000 A 
ATOM     21  C   UNL     1       2.953   3.911  17.331  0.00  0.00    +0.000 A 
ATOM     22  C   UNL     1       4.305   4.058  17.050  0.00  0.00    +0.000 A 
ATOM     23  C   UNL     1       4.929   5.278  17.327  0.00  0.00    +0.000 A 
ATOM     24  C   UNL     1       4.212   6.346  17.883  0.00  0.00    +0.000 A 
BRANCH  23  25
ATOM     25  S   UNL     1       6.636   5.500  16.861  0.00  0.00    +0.000 S 
ATOM     26  O   UNL     1       7.303   4.230  17.070  0.00  0.00    +0.000 OA
ATOM     27  O   UNL     1       6.645   6.143  15.568  0.00  0.00    +0.000 OA
BRANCH  25  28
ATOM     28  N   UNL     1       7.221   6.601  18.015  0.00  0.00    +0.000 NA
ATOM     29  C   UNL     1       7.990   6.049  19.139  0.00  0.00    +0.000 C 
ATOM     30  C   UNL     1       7.750   7.879  17.510  0.00  0.00    +0.000 C 
ENDBRANCH  25  28
ENDBRANCH  23  25
ENDBRANCH   3  19
TORSDOF 5
ENDMDL
MODEL 2
REMARK VINA RESULT:      -8.7      1.283      1.476
REMARK  Name = 
REMARK  8 active torsions:
REMARK  status: ('A' for Active; 'I' for Inactive)
REMARK    1  A    between atoms: C_1  and  C_2
REMARK    2  A    between atoms: C_4  and  C_5
REMARK    3  A    between atoms: C_14  and  C_15
REMARK    4  A    between atoms: N_17  and  C_18
REMARK    5  A    between atoms: C_22  and  S_23
REMARK    6  A    between atoms: S_23  and  N_26
REMARK    7  A    between atoms: N_26  and  C_27
REMARK    8  A    between atoms: N_26  and  C_28
REMARK                            x       y       z     vdW  Elec       q    Type
REMARK                         _______ _______ _______ _____ _____    ______ ____
ROOT
ATOM      1  C   UNL     1       1.663   8.535  18.788  0.00  0.00    +0.000 C 
ATOM      2  O   UNL     1       1.512   8.717  17.583  0.00  0.00    +0.000 OA
ATOM      3  N   UNL     1       2.222   7.409  19.367  0.00  0.00    +0.000 N 
ATOM      4  H   UNL     1       2.139   7.299  20.370  0.00  0.00    +0.000 HD
ENDROOT
BRANCH   1  11
ATOM      5  C   UNL     1       1.926  11.626  18.405  0.00  0.00    +0.000 C 
ATOM      6  C   UNL     1       1.182  10.958  19.522  0.00  0.00    +0.000 A 
ATOM      7  N   UNL     1       0.557  11.827  20.373  0.00  0.00    +0.000 NA
ATOM      8  C   UNL     1      -0.199  11.344  21.395  0.00  0.00    +0.000 A 
ATOM      9  C   UNL     1      -0.337   9.979  21.603  0.00  0.00    +0.000 A 
ATOM     10  C   UNL     1       0.318   9.097  20.749  0.00  0.00    +0.000 A 
ATOM     11  C   UNL     1       1.097   9.576  19.687  0.00  0.00    +0.000 A 
BRANCH   8  12
ATOM     12  C   UNL     1      -0.876  12.349  22.241  0.00  0.00    +0.000 A 
ATOM     13  C   UNL     1      -0.338  13.637  22.435  0.00  0.00    +0.000 A 
ATOM     14  C   UNL     1      -0.973  14.580  23.250  0.00  0.00    +0.000 A 
ATOM     15  C   UNL     1      -2.165  14.255  23.889  0.00  0.00    +0.000 A 
ATOM     16  C   UNL     1      -2.718  12.991  23.705  0.00  0.00    +0.000 A 
ATOM     17 BR   UNL     1      -4.339  12.548  24.573  0.00  0.00    +0.000 Br
ATOM     18  C   UNL     1      -2.085  12.048  22.893  0.00  0.00    +0.000 A 
ENDBRANCH   8  12
ENDBRANCH   1  11
BRANCH   3  19
ATOM     19  C   UNL     1       2.736   6.290  18.663  0.00  0.00    +0.000 A 
ATOM     20  C   UNL     1       2.238   4.989  18.812  0.00  0.00    +0.000 A 
ATOM     21  C   UNL     1       2.820   3.908  18.147  0.00  0.00    +0.000 A 
ATOM     22  C   UNL     1       3.900   4.115  17.299  0.00  0.00    +0.000 A 
ATOM     23  C   UNL     1       4.386   5.414  17.119  0.00  0.00    +0.000 A 
ATOM     24  C   UNL     1       3.801   6.501  17.780  0.00  0.00    +0.000 A 
BRANCH  23  25
ATOM     25  S   UNL     1       5.699   5.689  15.944  0.00  0.00    +0.000 S 
ATOM     26  O   UNL     1       5.871   4.457  15.200  0.00  0.00    +0.000 OA
ATOM     27  O   UNL     1       5.413   6.934  15.269  0.00  0.00    +0.000 OA
BRANCH  25  28
ATOM     28  N   UNL     1       7.068   5.910  16.925  0.00  0.00    +0.000 NA
ATOM     29  C   UNL     1       7.323   7.269  17.424  0.00  0.00    +0.000 C 
ATOM     30  C   UNL     1       7.362   4.856  17.910  0.00  0.00    +0.000 C 
ENDBRANCH  25  28
ENDBRANCH  23  25
ENDBRANCH   3  19
TORSDOF 5
ENDMDL
MODEL 3
REMARK VINA RESULT:      -8.6      1.074      1.571
REMARK  Name = 
REMARK  8 active torsions:
REMARK  status: ('A' for Active; 'I' for Inactive)
REMARK    1  A    between atoms: C_1  and  C_2
REMARK    2  A    between atoms: C_4  and  C_5
REMARK    3  A    between atoms: C_14  and  C_15
REMARK    4  A    between atoms: N_17  and  C_18
REMARK    5  A    between atoms: C_22  and  S_23
REMARK    6  A    between atoms: S_23  and  N_26
REMARK    7  A    between atoms: N_26  and  C_27
REMARK    8  A    between atoms: N_26  and  C_28
REMARK                            x       y       z     vdW  Elec       q    Type
REMARK                         _______ _______ _______ _____ _____    ______ ____
ROOT
ATOM      1  C   UNL     1       1.927   8.475  18.529  0.00  0.00    +0.000 C 
ATOM      2  O   UNL     1       2.131   8.852  17.377  0.00  0.00    +0.000 OA
ATOM      3  N   UNL     1       2.238   7.224  19.031  0.00  0.00    +0.000 N 
ATOM      4  H   UNL     1       1.870   6.972  19.941  0.00  0.00    +0.000 HD
ENDROOT
BRANCH   1  11
ATOM      5  C   UNL     1       0.988   7.902  21.454  0.00  0.00    +0.000 C 
ATOM      6  C   UNL     1       0.783   9.195  20.723  0.00  0.00    +0.000 A 
ATOM      7  N   UNL     1       0.176  10.166  21.469  0.00  0.00    +0.000 NA
ATOM      8  C   UNL     1      -0.014  11.403  20.938  0.00  0.00    +0.000 A 
ATOM      9  C   UNL     1       0.383  11.697  19.642  0.00  0.00    +0.000 A 
ATOM     10  C   UNL     1       0.981  10.700  18.878  0.00  0.00    +0.000 A 
ATOM     11  C   UNL     1       1.190   9.421  19.409  0.00  0.00    +0.000 A 
BRANCH   8  12
ATOM     12  C   UNL     1      -0.638  12.408  21.825  0.00  0.00    +0.000 A 
ATOM     13  C   UNL     1      -0.062  13.679  22.024  0.00  0.00    +0.000 A 
ATOM     14  C   UNL     1      -0.646  14.621  22.876  0.00  0.00    +0.000 A 
ATOM     15  C   UNL     1      -1.824  14.313  23.550  0.00  0.00    +0.000 A 
ATOM     16  C   UNL     1      -2.414  13.066  23.362  0.00  0.00    +0.000 A 
ATOM     17 BR   UNL     1      -4.016  12.646  24.276  0.00  0.00    +0.000 Br
ATOM     18  C   UNL     1      -1.832  12.124  22.512  0.00  0.00    +0.000 A 
ENDBRANCH   8  12
ENDBRANCH   1  11
BRANCH   3  19
ATOM     19  C   UNL     1       2.865   6.177  18.308  0.00  0.00    +0.000 A 
ATOM     20  C   UNL     1       2.203   5.008  17.913  0.00  0.00    +0.000 A 
ATOM     21  C   UNL     1       2.881   3.976  17.260  0.00  0.00    +0.000 A 
ATOM     22  C   UNL     1       4.233   4.108  16.969  0.00  0.00    +0.000 A 
ATOM     23  C   UNL     1       4.896   5.285  17.332  0.00  0.00    +0.000 A 
ATOM     24  C   UNL     1       4.217   6.324  17.982  0.00  0.00    +0.000 A 
BRANCH  23  25
ATOM     25  S   UNL     1       6.602   5.496  16.857  0.00  0.00    +0.000 S 
ATOM     26  O   UNL     1       7.255   4.214  17.032  0.00  0.00    +0.000 OA
ATOM     27  O   UNL     1       6.607   6.167  15.577  0.00  0.00    +0.000 OA
BRANCH  25  28
ATOM     28  N   UNL     1       7.210   6.565  18.028  0.00  0.00    +0.000 NA
ATOM     29  C   UNL     1       7.973   5.979  19.139  0.00  0.00    +0.000 C 
ATOM     30  C   UNL     1       7.758   7.844  17.546  0.00  0.00    +0.000 C 
ENDBRANCH  25  28
ENDBRANCH  23  25
ENDBRANCH   3  19
TORSDOF 5
ENDMDL
MODEL 4
REMARK VINA RESULT:      -8.5      1.476      1.683
REMARK  Name = 
REMARK  8 active torsions:
REMARK  status: ('A' for Active; 'I' for Inactive)
REMARK    1  A    between atoms: C_1  and  C_2
REMARK    2  A    between atoms: C_4  and  C_5
REMARK    3  A    between atoms: C_14  and  C_15
REMARK    4  A    between atoms: N_17  and  C_18
REMARK    5  A    between atoms: C_22  and  S_23
REMARK    6  A    between atoms: S_23  and  N_26
REMARK    7  A    between atoms: N_26  and  C_27
REMARK    8  A    between atoms: N_26  and  C_28
REMARK                            x       y       z     vdW  Elec       q    Type
REMARK                         _______ _______ _______ _____ _____    ______ ____
ROOT
ATOM      1  C   UNL     1       1.727   8.028  19.995  0.00  0.00    +0.000 C 
ATOM      2  O   UNL     1       2.055   8.210  18.825  0.00  0.00    +0.000 OA
ATOM      3  N   UNL     1       1.852   6.837  20.688  0.00  0.00    +0.000 N 
ATOM      4  H   UNL     1       1.394   6.761  21.588  0.00  0.00    +0.000 HD
ENDROOT
BRANCH   1  11
ATOM      5  C   UNL     1       1.123  10.820  18.726  0.00  0.00    +0.000 C 
ATOM      6  C   UNL     1       0.745  10.408  20.117  0.00  0.00    +0.000 A 
ATOM      7  N   UNL     1       0.044  11.357  20.808  0.00  0.00    +0.000 NA
ATOM      8  C   UNL     1      -0.407  11.082  22.061  0.00  0.00    +0.000 A 
ATOM      9  C   UNL     1      -0.155   9.858  22.662  0.00  0.00    +0.000 A 
ATOM     10  C   UNL     1       0.577   8.902  21.965  0.00  0.00    +0.000 A 
ATOM     11  C   UNL     1       1.045   9.164  20.671  0.00  0.00    +0.000 A 
BRANCH   8  12
ATOM     12  C   UNL     1      -1.192  12.145  22.722  0.00  0.00    +0.000 A 
ATOM     13  C   UNL     1      -0.718  13.470  22.812  0.00  0.00    +0.000 A 
ATOM     14  C   UNL     1      -1.457  14.469  23.452  0.00  0.00    +0.000 A 
ATOM     15  C   UNL     1      -2.692  14.167  24.017  0.00  0.00    +0.000 A 
ATOM     16  C   UNL     1      -3.183  12.867  23.934  0.00  0.00    +0.000 A 
ATOM     17 BR   UNL     1      -4.861  12.453  24.701  0.00  0.00    +0.000 Br
ATOM     18  C   UNL     1      -2.446  11.867  23.295  0.00  0.00    +0.000 A 
ENDBRANCH   8  12
ENDBRANCH   1  11
BRANCH   3  19
ATOM     19  C   UNL     1       2.402   5.636  20.171  0.00  0.00    +0.000 A 
ATOM     20  C   UNL     1       1.820   4.377  20.360  0.00  0.00    +0.000 A 
ATOM     21  C   UNL     1       2.435   3.215  19.888  0.00  0.00    +0.000 A 
ATOM     22  C   UNL     1       3.636   3.297  19.196  0.00  0.00    +0.000 A 
ATOM     23  C   UNL     1       4.211   4.554  18.975  0.00  0.00    +0.000 A 
ATOM     24  C   UNL     1       3.593   5.721  19.442  0.00  0.00    +0.000 A 
BRANCH  23  25
ATOM     25  S   UNL     1       5.693   4.663  17.990  0.00  0.00    +0.000 S 
ATOM     26  O   UNL     1       6.815   4.448  18.882  0.00  0.00    +0.000 OA
ATOM     27  O   UNL     1       5.494   3.830  16.827  0.00  0.00    +0.000 OA
BRANCH  25  28
ATOM     28  N   UNL     1       5.717   6.287  17.490  0.00  0.00    +0.000 NA
ATOM     29  C   UNL     1       6.991   7.009  17.616  0.00  0.00    +0.000 C 
ATOM     30  C   UNL     1       4.968   6.621  16.267  0.00  0.00    +0.000 C 
ENDBRANCH  25  28
ENDBRANCH  23  25
ENDBRANCH   3  19
TORSDOF 5
ENDMDL
MODEL 5
REMARK VINA RESULT:      -8.5      2.136      3.069
REMARK  Name = 
REMARK  8 active torsions:
REMARK  status: ('A' for Active; 'I' for Inactive)
REMARK    1  A    between atoms: C_1  and  C_2
REMARK    2  A    between atoms: C_4  and  C_5
REMARK    3  A    between atoms: C_14  and  C_15
REMARK    4  A    between atoms: N_17  and  C_18
REMARK    5  A    between atoms: C_22  and  S_23
REMARK    6  A    between atoms: S_23  and  N_26
REMARK    7  A    between atoms: N_26  and  C_27
REMARK    8  A    between atoms: N_26  and  C_28
REMARK                            x       y       z     vdW  Elec       q    Type
REMARK                         _______ _______ _______ _____ _____    ______ ____
ROOT
ATOM      1  C   UNL     1       1.733   7.605  20.103  0.00  0.00    +0.000 C 
ATOM      2  O   UNL     1       1.610   6.569  20.751  0.00  0.00    +0.000 OA
ATOM      3  N   UNL     1       2.513   7.756  18.970  0.00  0.00    +0.000 N 
ATOM      4  H   UNL     1       2.670   8.694  18.622  0.00  0.00    +0.000 HD
ENDROOT
BRANCH   1  11
ATOM      5  C   UNL     1       0.462   9.925  18.438  0.00  0.00    +0.000 C 
ATOM      6  C   UNL     1       0.470   9.845  19.936  0.00  0.00    +0.000 A 
ATOM      7  N   UNL     1      -0.187  10.874  20.552  0.00  0.00    +0.000 NA
ATOM      8  C   UNL     1      -0.299  10.886  21.907  0.00  0.00    +0.000 A 
ATOM      9  C   UNL     1       0.256   9.879  22.682  0.00  0.00    +0.000 A 
ATOM     10  C   UNL     1       0.942   8.845  22.054  0.00  0.00    +0.000 A 
ATOM     11  C   UNL     1       1.064   8.812  20.658  0.00  0.00    +0.000 A 
BRANCH   8  12
ATOM     12  C   UNL     1      -1.061  12.010  22.491  0.00  0.00    +0.000 A 
ATOM     13  C   UNL     1      -0.603  13.340  22.403  0.00  0.00    +0.000 A 
ATOM     14  C   UNL     1      -1.319  14.399  22.971  0.00  0.00    +0.000 A 
ATOM     15  C   UNL     1      -2.514  14.151  23.639  0.00  0.00    +0.000 A 
ATOM     16  C   UNL     1      -2.989  12.845  23.731  0.00  0.00    +0.000 A 
ATOM     17 BR   UNL     1      -4.613  12.506  24.638  0.00  0.00    +0.000 Br
ATOM     18  C   UNL     1      -2.275  11.787  23.165  0.00  0.00    +0.000 A 
ENDBRANCH   8  12
ENDBRANCH   1  11
BRANCH   3  19
ATOM     19  C   UNL     1       3.279   6.733  18.355  0.00  0.00    +0.000 A 
ATOM     20  C   UNL     1       4.119   6.953  17.255  0.00  0.00    +0.000 A 
ATOM     21  C   UNL     1       4.803   5.900  16.643  0.00  0.00    +0.000 A 
ATOM     22  C   UNL     1       4.675   4.608  17.136  0.00  0.00    +0.000 A 
ATOM     23  C   UNL     1       3.863   4.383  18.253  0.00  0.00    +0.000 A 
ATOM     24  C   UNL     1       3.181   5.438  18.873  0.00  0.00    +0.000 A 
BRANCH  23  25
ATOM     25  S   UNL     1       3.792   2.744  18.951  0.00  0.00    +0.000 S 
ATOM     26  O   UNL     1       3.629   1.817  17.847  0.00  0.00    +0.000 OA
ATOM     27  O   UNL     1       4.901   2.623  19.868  0.00  0.00    +0.000 OA
BRANCH  25  28
ATOM     28  N   UNL     1       2.349   2.758  19.848  0.00  0.00    +0.000 NA
ATOM     29  C   UNL     1       1.195   2.052  19.273  0.00  0.00    +0.000 C 
ATOM     30  C   UNL     1       2.468   2.603  21.307  0.00  0.00    +0.000 C 
ENDBRANCH  25  28
ENDBRANCH  23  25
ENDBRANCH   3  19
TORSDOF 5
ENDMDL
MODEL 6
REMARK VINA RESULT:      -8.5      1.882      2.327
REMARK  Name = 
REMARK  8 active torsions:
REMARK  status: ('A' for Active; 'I' for Inactive)
REMARK    1  A    between atoms: C_1  and  C_2
REMARK    2  A    between atoms: C_4  and  C_5
REMARK    3  A    between atoms: C_14  and  C_15
REMARK    4  A    between atoms: N_17  and  C_18
REMARK    5  A    between atoms: C_22  and  S_23
REMARK    6  A    between atoms: S_23  and  N_26
REMARK    7  A    between atoms: N_26  and  C_27
REMARK    8  A    between atoms: N_26  and  C_28
REMARK                            x       y       z     vdW  Elec       q    Type
REMARK                         _______ _______ _______ _____ _____    ______ ____
ROOT
ATOM      1  C   UNL     1       1.412   8.921  19.130  0.00  0.00    +0.000 C 
ATOM      2  O   UNL     1       1.286   9.165  17.933  0.00  0.00    +0.000 OA
ATOM      3  N   UNL     1       2.007   7.790  19.662  0.00  0.00    +0.000 N 
ATOM      4  H   UNL     1       1.901   7.619  20.654  0.00  0.00    +0.000 HD
ENDROOT
BRANCH   1  11
ATOM      5  C   UNL     1       1.514  12.037  18.910  0.00  0.00    +0.000 C 
ATOM      6  C   UNL     1       0.786  11.273  19.976  0.00  0.00    +0.000 A 
ATOM      7  N   UNL     1       0.099  12.063  20.856  0.00  0.00    +0.000 NA
ATOM      8  C   UNL     1      -0.649  11.488  21.835  0.00  0.00    +0.000 A 
ATOM      9  C   UNL     1      -0.717  10.108  21.970  0.00  0.00    +0.000 A 
ATOM     10  C   UNL     1       0.001   9.308  21.087  0.00  0.00    +0.000 A 
ATOM     11  C   UNL     1       0.774   9.883  20.068  0.00  0.00    +0.000 A 
BRANCH   8  12
ATOM     12  C   UNL     1      -1.396  12.410  22.716  0.00  0.00    +0.000 A 
ATOM     13  C   UNL     1      -2.686  12.099  23.190  0.00  0.00    +0.000 A 
ATOM     14  C   UNL     1      -3.396  12.981  24.011  0.00  0.00    +0.000 A 
ATOM     15  C   UNL     1      -2.828  14.197  24.379  0.00  0.00    +0.000 A 
ATOM     16  C   UNL     1      -1.552  14.521  23.928  0.00  0.00    +0.000 A 
ATOM     17 BR   UNL     1      -0.779  16.174  24.426  0.00  0.00    +0.000 Br
ATOM     18  C   UNL     1      -0.842  13.642  23.108  0.00  0.00    +0.000 A 
ENDBRANCH   8  12
ENDBRANCH   1  11
BRANCH   3  19
ATOM     19  C   UNL     1       2.592   6.737  18.912  0.00  0.00    +0.000 A 
ATOM     20  C   UNL     1       2.115   5.420  18.930  0.00  0.00    +0.000 A 
ATOM     21  C   UNL     1       2.765   4.403  18.227  0.00  0.00    +0.000 A 
ATOM     22  C   UNL     1       3.894   4.693  17.472  0.00  0.00    +0.000 A 
ATOM     23  C   UNL     1       4.361   6.012  17.423  0.00  0.00    +0.000 A 
ATOM     24  C   UNL     1       3.707   7.034  18.123  0.00  0.00    +0.000 A 
BRANCH  23  25
ATOM     25  S   UNL     1       5.742   6.399  16.363  0.00  0.00    +0.000 S 
ATOM     26  O   UNL     1       5.198   6.768  15.072  0.00  0.00    +0.000 OA
ATOM     27  O   UNL     1       6.601   7.300  17.096  0.00  0.00    +0.000 OA
BRANCH  25  28
ATOM     28  N   UNL     1       6.541   4.909  16.195  0.00  0.00    +0.000 NA
ATOM     29  C   UNL     1       6.892   4.487  14.832  0.00  0.00    +0.000 C 
ATOM     30  C   UNL     1       7.572   4.587  17.196  0.00  0.00    +0.000 C 
ENDBRANCH  25  28
ENDBRANCH  23  25
ENDBRANCH   3  19
TORSDOF 5
ENDMDL
MODEL 7
REMARK VINA RESULT:      -8.4      2.460      3.431
REMARK  Name = 
REMARK  8 active torsions:
REMARK  status: ('A' for Active; 'I' for Inactive)
REMARK    1  A    between atoms: C_1  and  C_2
REMARK    2  A    between atoms: C_4  and  C_5
REMARK    3  A    between atoms: C_14  and  C_15
REMARK    4  A    between atoms: N_17  and  C_18
REMARK    5  A    between atoms: C_22  and  S_23
REMARK    6  A    between atoms: S_23  and  N_26
REMARK    7  A    between atoms: N_26  and  C_27
REMARK    8  A    between atoms: N_26  and  C_28
REMARK                            x       y       z     vdW  Elec       q    Type
REMARK                         _______ _______ _______ _____ _____    ______ ____
ROOT
ATOM      1  C   UNL     1       1.632   8.813  18.806  0.00  0.00    +0.000 C 
ATOM      2  O   UNL     1       1.223   8.825  17.648  0.00  0.00    +0.000 OA
ATOM      3  N   UNL     1       2.534   7.904  19.331  0.00  0.00    +0.000 N 
ATOM      4  H   UNL     1       2.665   7.889  20.335  0.00  0.00    +0.000 HD
ENDROOT
BRANCH   1  11
ATOM      5  C   UNL     1       1.820  11.923  18.556  0.00  0.00    +0.000 C 
ATOM      6  C   UNL     1       1.067  11.190  19.626  0.00  0.00    +0.000 A 
ATOM      7  N   UNL     1       0.397  12.006  20.494  0.00  0.00    +0.000 NA
ATOM      8  C   UNL     1      -0.371  11.461  21.475  0.00  0.00    +0.000 A 
ATOM      9  C   UNL     1      -0.476  10.086  21.624  0.00  0.00    +0.000 A 
ATOM     10  C   UNL     1       0.224   9.258  20.752  0.00  0.00    +0.000 A 
ATOM     11  C   UNL     1       1.016   9.801  19.732  0.00  0.00    +0.000 A 
BRANCH   8  12
ATOM     12  C   UNL     1      -1.096  12.412  22.343  0.00  0.00    +0.000 A 
ATOM     13  C   UNL     1      -0.605  13.709  22.594  0.00  0.00    +0.000 A 
ATOM     14  C   UNL     1      -1.286  14.601  23.429  0.00  0.00    +0.000 A 
ATOM     15  C   UNL     1      -2.478  14.214  24.033  0.00  0.00    +0.000 A 
ATOM     16  C   UNL     1      -2.985  12.941  23.794  0.00  0.00    +0.000 A 
ATOM     17 BR   UNL     1      -4.606  12.413  24.613  0.00  0.00    +0.000 Br
ATOM     18  C   UNL     1      -2.307  12.049  22.960  0.00  0.00    +0.000 A 
ENDBRANCH   8  12
ENDBRANCH   1  11
BRANCH   3  19
ATOM     19  C   UNL     1       3.155   6.850  18.612  0.00  0.00    +0.000 A 
ATOM     20  C   UNL     1       3.963   7.055  17.486  0.00  0.00    +0.000 A 
ATOM     21  C   UNL     1       4.498   5.981  16.772  0.00  0.00    +0.000 A 
ATOM     22  C   UNL     1       4.252   4.679  17.187  0.00  0.00    +0.000 A 
ATOM     23  C   UNL     1       3.471   4.464  18.328  0.00  0.00    +0.000 A 
ATOM     24  C   UNL     1       2.937   5.540  19.050  0.00  0.00    +0.000 A 
BRANCH  23  25
ATOM     25  S   UNL     1       3.251   2.797  18.922  0.00  0.00    +0.000 S 
ATOM     26  O   UNL     1       3.158   1.938  17.758  0.00  0.00    +0.000 OA
ATOM     27  O   UNL     1       4.253   2.571  19.937  0.00  0.00    +0.000 OA
BRANCH  25  28
ATOM     28  N   UNL     1       1.727   2.841  19.670  0.00  0.00    +0.000 NA
ATOM     29  C   UNL     1       0.593   2.286  18.917  0.00  0.00    +0.000 C 
ATOM     30  C   UNL     1       1.680   2.541  21.111  0.00  0.00    +0.000 C 
ENDBRANCH  25  28
ENDBRANCH  23  25
ENDBRANCH   3  19
TORSDOF 5
ENDMDL
MODEL 8
REMARK VINA RESULT:      -8.4      2.534      3.315
REMARK  Name = 
REMARK  8 active torsions:
REMARK  status: ('A' for Active; 'I' for Inactive)
REMARK    1  A    between atoms: C_1  and  C_2
REMARK    2  A    between atoms: C_4  and  C_5
REMARK    3  A    between atoms: C_14  and  C_15
REMARK    4  A    between atoms: N_17  and  C_18
REMARK    5  A    between atoms: C_22  and  S_23
REMARK    6  A    between atoms: S_23  and  N_26
REMARK    7  A    between atoms: N_26  and  C_27
REMARK    8  A    between atoms: N_26  and  C_28
REMARK                            x       y       z     vdW  Elec       q    Type
REMARK                         _______ _______ _______ _____ _____    ______ ____
ROOT
ATOM      1  C   UNL     1       1.424   9.039  18.961  0.00  0.00    +0.000 C 
ATOM      2  O   UNL     1       1.145   9.188  17.774  0.00  0.00    +0.000 OA
ATOM      3  N   UNL     1       2.190   8.012  19.483  0.00  0.00    +0.000 N 
ATOM      4  H   UNL     1       2.211   7.898  20.488  0.00  0.00    +0.000 HD
ENDROOT
BRANCH   1  11
ATOM      5  C   UNL     1       1.431  12.155  18.707  0.00  0.00    +0.000 C 
ATOM      6  C   UNL     1       0.761  11.382  19.804  0.00  0.00    +0.000 A 
ATOM      7  N   UNL     1       0.082  12.161  20.699  0.00  0.00    +0.000 NA
ATOM      8  C   UNL     1      -0.616  11.577  21.708  0.00  0.00    +0.000 A 
ATOM      9  C   UNL     1      -0.640  10.198  21.859  0.00  0.00    +0.000 A 
ATOM     10  C   UNL     1       0.070   9.408  20.960  0.00  0.00    +0.000 A 
ATOM     11  C   UNL     1       0.791   9.993  19.910  0.00  0.00    +0.000 A 
BRANCH   8  12
ATOM     12  C   UNL     1      -1.358  12.487  22.605  0.00  0.00    +0.000 A 
ATOM     13  C   UNL     1      -0.836  13.740  22.985  0.00  0.00    +0.000 A 
ATOM     14  C   UNL     1      -1.534  14.592  23.847  0.00  0.00    +0.000 A 
ATOM     15  C   UNL     1      -2.774  14.210  24.348  0.00  0.00    +0.000 A 
ATOM     16  C   UNL     1      -3.312  12.980  23.980  0.00  0.00    +0.000 A 
ATOM     17 BR   UNL     1      -4.998  12.458  24.660  0.00  0.00    +0.000 Br
ATOM     18  C   UNL     1      -2.616  12.127  23.120  0.00  0.00    +0.000 A 
ENDBRANCH   8  12
ENDBRANCH   1  11
BRANCH   3  19
ATOM     19  C   UNL     1       2.800   6.975  18.731  0.00  0.00    +0.000 A 
ATOM     20  C   UNL     1       3.727   7.207  17.707  0.00  0.00    +0.000 A 
ATOM     21  C   UNL     1       4.250   6.155  16.950  0.00  0.00    +0.000 A 
ATOM     22  C   UNL     1       3.871   4.847  17.223  0.00  0.00    +0.000 A 
ATOM     23  C   UNL     1       2.969   4.602  18.264  0.00  0.00    +0.000 A 
ATOM     24  C   UNL     1       2.447   5.654  19.028  0.00  0.00    +0.000 A 
BRANCH  23  25
ATOM     25  S   UNL     1       2.572   2.915  18.682  0.00  0.00    +0.000 S 
ATOM     26  O   UNL     1       1.126   2.811  18.706  0.00  0.00    +0.000 OA
ATOM     27  O   UNL     1       3.367   2.066  17.827  0.00  0.00    +0.000 OA
BRANCH  25  28
ATOM     28  N   UNL     1       3.140   2.759  20.275  0.00  0.00    +0.000 NA
ATOM     29  C   UNL     1       2.142   2.492  21.321  0.00  0.00    +0.000 C 
ATOM     30  C   UNL     1       4.403   2.025  20.465  0.00  0.00    +0.000 C 
ENDBRANCH  25  28
ENDBRANCH  23  25
ENDBRANCH   3  19
TORSDOF 5
ENDMDL
MODEL 9
REMARK VINA RESULT:      -8.4      1.667      2.013
REMARK  Name = 
REMARK  8 active torsions:
REMARK  status: ('A' for Active; 'I' for Inactive)
REMARK    1  A    between atoms: C_1  and  C_2
REMARK    2  A    between atoms: C_4  and  C_5
REMARK    3  A    between atoms: C_14  and  C_15
REMARK    4  A    between atoms: N_17  and  C_18
REMARK    5  A    between atoms: C_22  and  S_23
REMARK    6  A    between atoms: S_23  and  N_26
REMARK    7  A    between atoms: N_26  and  C_27
REMARK    8  A    between atoms: N_26  and  C_28
REMARK                            x       y       z     vdW  Elec       q    Type
REMARK                         _______ _______ _______ _____ _____    ______ ____
ROOT
ATOM      1  C   UNL     1       1.667   8.518  18.830  0.00  0.00    +0.000 C 
ATOM      2  O   UNL     1       1.489   8.683  17.626  0.00  0.00    +0.000 OA
ATOM      3  N   UNL     1       2.257   7.409  19.411  0.00  0.00    +0.000 N 
ATOM      4  H   UNL     1       2.195   7.310  20.416  0.00  0.00    +0.000 HD
ENDROOT
BRANCH   1  11
ATOM      5  C   UNL     1       1.860  11.608  18.403  0.00  0.00    +0.000 C 
ATOM      6  C   UNL     1       1.153  10.941  19.544  0.00  0.00    +0.000 A 
ATOM      7  N   UNL     1       0.528  11.808  20.396  0.00  0.00    +0.000 NA
ATOM      8  C   UNL     1      -0.197  11.324  21.439  0.00  0.00    +0.000 A 
ATOM      9  C   UNL     1      -0.303   9.959  21.667  0.00  0.00    +0.000 A 
ATOM     10  C   UNL     1       0.351   9.079  20.811  0.00  0.00    +0.000 A 
ATOM     11  C   UNL     1       1.099   9.560  19.727  0.00  0.00    +0.000 A 
BRANCH   8  12
ATOM     12  C   UNL     1      -0.876  12.326  22.287  0.00  0.00    +0.000 A 
ATOM     13  C   UNL     1      -2.087  12.038  22.948  0.00  0.00    +0.000 A 
ATOM     14  C   UNL     1      -2.735  12.995  23.736  0.00  0.00    +0.000 A 
ATOM     15  C   UNL     1      -2.183  14.263  23.883  0.00  0.00    +0.000 A 
ATOM     16  C   UNL     1      -0.984  14.567  23.245  0.00  0.00    +0.000 A 
ATOM     17 BR   UNL     1      -0.232  16.291  23.444  0.00  0.00    +0.000 Br
ATOM     18  C   UNL     1      -0.335  13.613  22.457  0.00  0.00    +0.000 A 
ENDBRANCH   8  12
ENDBRANCH   1  11
BRANCH   3  19
ATOM     19  C   UNL     1       2.777   6.291  18.710  0.00  0.00    +0.000 A 
ATOM     20  C   UNL     1       2.321   4.981  18.900  0.00  0.00    +0.000 A 
ATOM     21  C   UNL     1       2.911   3.903  18.235  0.00  0.00    +0.000 A 
ATOM     22  C   UNL     1       3.956   4.122  17.347  0.00  0.00    +0.000 A 
ATOM     23  C   UNL     1       4.399   5.431  17.127  0.00  0.00    +0.000 A 
ATOM     24  C   UNL     1       3.805   6.515  17.788  0.00  0.00    +0.000 A 
BRANCH  23  25
ATOM     25  S   UNL     1       5.663   5.719  15.903  0.00  0.00    +0.000 S 
ATOM     26  O   UNL     1       5.767   4.514  15.105  0.00  0.00    +0.000 OA
ATOM     27  O   UNL     1       5.381   6.997  15.291  0.00  0.00    +0.000 OA
BRANCH  25  28
ATOM     28  N   UNL     1       7.081   5.867  16.827  0.00  0.00    +0.000 NA
ATOM     29  C   UNL     1       7.330   7.164  17.471  0.00  0.00    +0.000 C 
ATOM     30  C   UNL     1       7.459   4.713  17.660  0.00  0.00    +0.000 C 
ENDBRANCH  25  28
ENDBRANCH  23  25
ENDBRANCH   3  19
TORSDOF 5
ENDMDL
