MODEL 1
REMARK VINA RESULT:      -9.0      0.000      0.000
REMARK  Name = 
REMARK  4 active torsions:
REMARK  status: ('A' for Active; 'I' for Inactive)
REMARK    1  A    between atoms: C_2  and  C_3
REMARK    2  A    between atoms: C_5  and  C_6
REMARK    3  A    between atoms: C_19  and  C_20
REMARK    4  A    between atoms: C_22  and  C_23
REMARK                            x       y       z     vdW  Elec       q    Type
REMARK                         _______ _______ _______ _____ _____    ______ ____
ROOT
ATOM      1  O   UNL     1       4.627   5.845  19.865  0.00  0.00    +0.000 OA
ATOM      2  C   UNL     1       3.456   5.730  19.480  0.00  0.00    +0.000 C 
ATOM      3  N   UNL     1       3.099   4.733  18.583  0.00  0.00    +0.000 N 
ATOM      4  C   UNL     1       1.813   4.581  17.922  0.00  0.00    +0.000 C 
ATOM      5  C   UNL     1       1.563   3.093  17.981  0.00  0.00    +0.000 C 
ATOM      6  C   UNL     1       2.943   2.508  17.751  0.00  0.00    +0.000 C 
ATOM      7  C   UNL     1       3.922   3.543  18.358  0.00  0.00    +0.000 C 
ENDROOT
BRANCH   2   8
ATOM      8  C   UNL     1       2.398   6.648  19.962  0.00  0.00    +0.000 A 
ATOM      9  C   UNL     1       2.144   7.988  19.557  0.00  0.00    +0.000 A 
ATOM     10  C   UNL     1       1.049   8.414  20.289  0.00  0.00    +0.000 A 
ATOM     11  N   UNL     1       0.724   7.338  21.067  0.00  0.00    +0.000 N 
ATOM     12  N   UNL     1       1.560   6.310  20.958  0.00  0.00    +0.000 NA
ATOM     13  H   UNL     1      -0.030   7.277  21.744  0.00  0.00    +0.000 HD
BRANCH  10  14
ATOM     14  C   UNL     1       0.289   9.663  20.312  0.00  0.00    +0.000 A 
ATOM     15  C   UNL     1      -0.024  10.280  19.091  0.00  0.00    +0.000 A 
ATOM     16  C   UNL     1      -0.780  11.453  19.043  0.00  0.00    +0.000 A 
ATOM     17  C   UNL     1      -1.248  12.028  20.230  0.00  0.00    +0.000 A 
ATOM     18  C   UNL     1      -0.939  11.435  21.455  0.00  0.00    +0.000 A 
ATOM     19  C   UNL     1      -0.171  10.273  21.498  0.00  0.00    +0.000 A 
ATOM     20 CL   UNL     1       0.172   9.655  23.084  0.00  0.00    +0.000 Cl
ENDBRANCH  10  14
ENDBRANCH   2   8
BRANCH   7  21
ATOM     21  C   UNL     1       5.042   3.806  17.407  0.00  0.00    +0.000 A 
ATOM     22  N   UNL     1       5.028   3.693  16.095  0.00  0.00    +0.000 NA
ATOM     23  C   UNL     1       6.284   4.085  15.706  0.00  0.00    +0.000 A 
ATOM     24  N   UNL     1       7.096   4.380  16.734  0.00  0.00    +0.000 NA
ATOM     25  N   UNL     1       6.286   4.208  17.794  0.00  0.00    +0.000 N 
ATOM     26  H   UNL     1       6.616   4.419  18.732  0.00  0.00    +0.000 HD
BRANCH  23  27
ATOM     27  C   UNL     1       6.637   4.221  14.299  0.00  0.00    +0.000 A 
ATOM     28  C   UNL     1       6.019   3.419  13.327  0.00  0.00    +0.000 A 
ATOM     29  C   UNL     1       6.317   3.589  11.973  0.00  0.00    +0.000 A 
ATOM     30  C   UNL     1       7.237   4.560  11.580  0.00  0.00    +0.000 A 
ATOM     31  C   UNL     1       7.865   5.355  12.538  0.00  0.00    +0.000 A 
ATOM     32  C   UNL     1       7.567   5.186  13.891  0.00  0.00    +0.000 A 
ENDBRANCH  23  27
ENDBRANCH   7  21
TORSDOF 4
ENDMDL
MODEL 2
REMARK VINA RESULT:      -8.9      0.998      1.329
REMARK  Name = 
REMARK  4 active torsions:
REMARK  status: ('A' for Active; 'I' for Inactive)
REMARK    1  A    between atoms: C_2  and  C_3
REMARK    2  A    between atoms: C_5  and  C_6
REMARK    3  A    between atoms: C_19  and  C_20
REMARK    4  A    between atoms: C_22  and  C_23
REMARK                            x       y       z     vdW  Elec       q    Type
REMARK                         _______ _______ _______ _____ _____    ______ ____
ROOT
ATOM      1  O   UNL     1       4.684   5.713  19.901  0.00  0.00    +0.000 OA
ATOM      2  C   UNL     1       3.507   5.590  19.536  0.00  0.00    +0.000 C 
ATOM      3  N   UNL     1       3.147   4.616  18.616  0.00  0.00    +0.000 N 
ATOM      4  C   UNL     1       1.850   4.463  17.977  0.00  0.00    +0.000 C 
ATOM      5  C   UNL     1       1.624   2.970  17.996  0.00  0.00    +0.000 C 
ATOM      6  C   UNL     1       3.008   2.415  17.719  0.00  0.00    +0.000 C 
ATOM      7  C   UNL     1       3.983   3.446  18.338  0.00  0.00    +0.000 C 
ENDROOT
BRANCH   2   8
ATOM      8  C   UNL     1       2.445   6.476  20.067  0.00  0.00    +0.000 A 
ATOM      9  C   UNL     1       2.224   7.853  19.785  0.00  0.00    +0.000 A 
ATOM     10  C   UNL     1       1.110   8.226  20.516  0.00  0.00    +0.000 A 
ATOM     11  N   UNL     1       0.743   7.087  21.176  0.00  0.00    +0.000 N 
ATOM     12  N   UNL     1       1.568   6.060  20.998  0.00  0.00    +0.000 NA
ATOM     13  H   UNL     1      -0.035   6.974  21.818  0.00  0.00    +0.000 HD
BRANCH  10  14
ATOM     14  C   UNL     1       0.367   9.480  20.632  0.00  0.00    +0.000 A 
ATOM     15  C   UNL     1       0.089   9.979  21.913  0.00  0.00    +0.000 A 
ATOM     16  C   UNL     1      -0.583  11.191  22.090  0.00  0.00    +0.000 A 
ATOM     17  C   UNL     1      -0.980  11.935  20.975  0.00  0.00    +0.000 A 
ATOM     18  C   UNL     1      -0.721  11.452  19.691  0.00  0.00    +0.000 A 
ATOM     19  C   UNL     1      -0.065  10.234  19.520  0.00  0.00    +0.000 A 
ATOM     20 CL   UNL     1       0.166   9.729  17.875  0.00  0.00    +0.000 Cl
ENDBRANCH  10  14
ENDBRANCH   2   8
BRANCH   7  21
ATOM     21  C   UNL     1       5.079   3.756  17.373  0.00  0.00    +0.000 A 
ATOM     22  N   UNL     1       5.062   3.619  16.063  0.00  0.00    +0.000 NA
ATOM     23  C   UNL     1       6.290   4.076  15.657  0.00  0.00    +0.000 A 
ATOM     24  N   UNL     1       7.091   4.434  16.673  0.00  0.00    +0.000 NA
ATOM     25  N   UNL     1       6.301   4.235  17.742  0.00  0.00    +0.000 N 
ATOM     26  H   UNL     1       6.625   4.481  18.674  0.00  0.00    +0.000 HD
BRANCH  23  27
ATOM     27  C   UNL     1       6.624   4.206  14.245  0.00  0.00    +0.000 A 
ATOM     28  C   UNL     1       5.986   3.409  13.282  0.00  0.00    +0.000 A 
ATOM     29  C   UNL     1       6.266   3.574  11.924  0.00  0.00    +0.000 A 
ATOM     30  C   UNL     1       7.188   4.536  11.517  0.00  0.00    +0.000 A 
ATOM     31  C   UNL     1       7.837   5.327  12.465  0.00  0.00    +0.000 A 
ATOM     32  C   UNL     1       7.557   5.162  13.822  0.00  0.00    +0.000 A 
ENDBRANCH  23  27
ENDBRANCH   7  21
TORSDOF 4
ENDMDL
MODEL 3
REMARK VINA RESULT:      -8.8      1.055      1.476
REMARK  Name = 
REMARK  4 active torsions:
REMARK  status: ('A' for Active; 'I' for Inactive)
REMARK    1  A    between atoms: C_2  and  C_3
REMARK    2  A    between atoms: C_5  and  C_6
REMARK    3  A    between atoms: C_19  and  C_20
REMARK    4  A    between atoms: C_22  and  C_23
REMARK                            x       y       z     vdW  Elec       q    Type
REMARK                         _______ _______ _______ _____ _____    ______ ____
ROOT
ATOM      1  O   UNL     1       4.513   6.494  19.520  0.00  0.00    +0.000 OA
ATOM      2  C   UNL     1       3.341   6.347  19.147  0.00  0.00    +0.000 C 
ATOM      3  N   UNL     1       2.958   5.218  18.436  0.00  0.00    +0.000 N 
ATOM      4  C   UNL     1       1.673   4.990  17.798  0.00  0.00    +0.000 C 
ATOM      5  C   UNL     1       1.375   3.544  18.116  0.00  0.00    +0.000 C 
ATOM      6  C   UNL     1       2.738   2.887  18.009  0.00  0.00    +0.000 C 
ATOM      7  C   UNL     1       3.745   3.982  18.435  0.00  0.00    +0.000 C 
ENDROOT
BRANCH   2   8
ATOM      8  C   UNL     1       2.310   7.367  19.446  0.00  0.00    +0.000 A 
ATOM      9  C   UNL     1       1.855   8.429  18.616  0.00  0.00    +0.000 A 
ATOM     10  C   UNL     1       0.883   9.098  19.339  0.00  0.00    +0.000 A 
ATOM     11  N   UNL     1       0.817   8.421  20.524  0.00  0.00    +0.000 N 
ATOM     12  N   UNL     1       1.713   7.447  20.649  0.00  0.00    +0.000 NA
ATOM     13  H   UNL     1       0.215   8.626  21.315  0.00  0.00    +0.000 HD
BRANCH  10  14
ATOM     14  C   UNL     1       0.024  10.242  19.034  0.00  0.00    +0.000 A 
ATOM     15  C   UNL     1      -1.010  10.074  18.100  0.00  0.00    +0.000 A 
ATOM     16  C   UNL     1      -1.889  11.116  17.794  0.00  0.00    +0.000 A 
ATOM     17  C   UNL     1      -1.751  12.352  18.434  0.00  0.00    +0.000 A 
ATOM     18  C   UNL     1      -0.723  12.542  19.360  0.00  0.00    +0.000 A 
ATOM     19  C   UNL     1       0.161  11.504  19.649  0.00  0.00    +0.000 A 
ATOM     20 CL   UNL     1       1.415  11.880  20.790  0.00  0.00    +0.000 Cl
ENDBRANCH  10  14
ENDBRANCH   2   8
BRANCH   7  21
ATOM     21  C   UNL     1       4.879   4.039  17.467  0.00  0.00    +0.000 A 
ATOM     22  N   UNL     1       4.820   3.970  16.152  0.00  0.00    +0.000 NA
ATOM     23  C   UNL     1       6.122   4.109  15.745  0.00  0.00    +0.000 A 
ATOM     24  N   UNL     1       6.995   4.201  16.762  0.00  0.00    +0.000 NA
ATOM     25  N   UNL     1       6.185   4.167  17.835  0.00  0.00    +0.000 N 
ATOM     26  H   UNL     1       6.568   4.279  18.771  0.00  0.00    +0.000 HD
BRANCH  23  27
ATOM     27  C   UNL     1       6.472   4.210  14.334  0.00  0.00    +0.000 A 
ATOM     28  C   UNL     1       7.449   5.121  13.904  0.00  0.00    +0.000 A 
ATOM     29  C   UNL     1       7.824   5.178  12.560  0.00  0.00    +0.000 A 
ATOM     30  C   UNL     1       7.224   4.326  11.634  0.00  0.00    +0.000 A 
ATOM     31  C   UNL     1       6.244   3.424  12.049  0.00  0.00    +0.000 A 
ATOM     32  C   UNL     1       5.870   3.367  13.392  0.00  0.00    +0.000 A 
ENDBRANCH  23  27
ENDBRANCH   7  21
TORSDOF 4
ENDMDL
MODEL 4
REMARK VINA RESULT:      -8.8      3.872     11.054
REMARK  Name = 
REMARK  4 active torsions:
REMARK  status: ('A' for Active; 'I' for Inactive)
REMARK    1  A    between atoms: C_2  and  C_3
REMARK    2  A    between atoms: C_5  and  C_6
REMARK    3  A    between atoms: C_19  and  C_20
REMARK    4  A    between atoms: C_22  and  C_23
REMARK                            x       y       z     vdW  Elec       q    Type
REMARK                         _______ _______ _______ _____ _____    ______ ____
ROOT
ATOM      1  O   UNL     1       1.175  11.632  19.612  0.00  0.00    +0.000 OA
ATOM      2  C   UNL     1       0.657  10.627  19.105  0.00  0.00    +0.000 C 
ATOM      3  N   UNL     1      -0.624  10.680  18.575  0.00  0.00    +0.000 N 
ATOM      4  C   UNL     1      -1.415   9.555  18.105  0.00  0.00    +0.000 C 
ATOM      5  C   UNL     1      -2.057  10.081  16.843  0.00  0.00    +0.000 C 
ATOM      6  C   UNL     1      -2.378  11.519  17.202  0.00  0.00    +0.000 C 
ATOM      7  C   UNL     1      -1.271  11.939  18.199  0.00  0.00    +0.000 C 
ENDROOT
BRANCH   2   8
ATOM      8  C   UNL     1       1.385   9.338  19.048  0.00  0.00    +0.000 A 
ATOM      9  C   UNL     1       2.024   8.737  17.928  0.00  0.00    +0.000 A 
ATOM     10  C   UNL     1       2.565   7.547  18.382  0.00  0.00    +0.000 A 
ATOM     11  N   UNL     1       2.226   7.505  19.705  0.00  0.00    +0.000 N 
ATOM     12  N   UNL     1       1.452   8.509  20.105  0.00  0.00    +0.000 NA
ATOM     13  H   UNL     1       2.447   6.772  20.372  0.00  0.00    +0.000 HD
BRANCH  10  14
ATOM     14  C   UNL     1       3.360   6.503  17.737  0.00  0.00    +0.000 A 
ATOM     15  C   UNL     1       4.538   6.872  17.070  0.00  0.00    +0.000 A 
ATOM     16  C   UNL     1       5.361   5.917  16.468  0.00  0.00    +0.000 A 
ATOM     17  C   UNL     1       5.019   4.563  16.534  0.00  0.00    +0.000 A 
ATOM     18  C   UNL     1       3.846   4.176  17.184  0.00  0.00    +0.000 A 
ATOM     19  C   UNL     1       3.020   5.133  17.770  0.00  0.00    +0.000 A 
ATOM     20 CL   UNL     1       1.575   4.526  18.517  0.00  0.00    +0.000 Cl
ENDBRANCH  10  14
ENDBRANCH   2   8
BRANCH   7  21
ATOM     21  C   UNL     1      -1.877  12.631  19.374  0.00  0.00    +0.000 A 
ATOM     22  N   UNL     1      -2.865  12.208  20.137  0.00  0.00    +0.000 NA
ATOM     23  C   UNL     1      -3.007  13.189  21.085  0.00  0.00    +0.000 A 
ATOM     24  N   UNL     1      -2.184  14.235  20.903  0.00  0.00    +0.000 NA
ATOM     25  N   UNL     1      -1.475  13.853  19.826  0.00  0.00    +0.000 N 
ATOM     26  H   UNL     1      -0.715  14.433  19.479  0.00  0.00    +0.000 HD
BRANCH  23  27
ATOM     27  C   UNL     1      -3.928  13.038  22.204  0.00  0.00    +0.000 A 
ATOM     28  C   UNL     1      -5.311  13.180  22.016  0.00  0.00    +0.000 A 
ATOM     29  C   UNL     1      -6.197  12.979  23.077  0.00  0.00    +0.000 A 
ATOM     30  C   UNL     1      -5.707  12.637  24.336  0.00  0.00    +0.000 A 
ATOM     31  C   UNL     1      -4.333  12.504  24.538  0.00  0.00    +0.000 A 
ATOM     32  C   UNL     1      -3.449  12.704  23.477  0.00  0.00    +0.000 A 
ENDBRANCH  23  27
ENDBRANCH   7  21
TORSDOF 4
ENDMDL
MODEL 5
REMARK VINA RESULT:      -8.6      1.423      1.541
REMARK  Name = 
REMARK  4 active torsions:
REMARK  status: ('A' for Active; 'I' for Inactive)
REMARK    1  A    between atoms: C_2  and  C_3
REMARK    2  A    between atoms: C_5  and  C_6
REMARK    3  A    between atoms: C_19  and  C_20
REMARK    4  A    between atoms: C_22  and  C_23
REMARK                            x       y       z     vdW  Elec       q    Type
REMARK                         _______ _______ _______ _____ _____    ______ ____
ROOT
ATOM      1  O   UNL     1       4.514   6.539  19.507  0.00  0.00    +0.000 OA
ATOM      2  C   UNL     1       3.345   6.411  19.118  0.00  0.00    +0.000 C 
ATOM      3  N   UNL     1       2.953   5.287  18.405  0.00  0.00    +0.000 N 
ATOM      4  C   UNL     1       1.673   5.079  17.750  0.00  0.00    +0.000 C 
ATOM      5  C   UNL     1       1.345   3.639  18.069  0.00  0.00    +0.000 C 
ATOM      6  C   UNL     1       2.698   2.958  17.982  0.00  0.00    +0.000 C 
ATOM      7  C   UNL     1       3.718   4.038  18.419  0.00  0.00    +0.000 C 
ENDROOT
BRANCH   2   8
ATOM      8  C   UNL     1       2.327   7.450  19.400  0.00  0.00    +0.000 A 
ATOM      9  C   UNL     1       1.902   8.516  18.560  0.00  0.00    +0.000 A 
ATOM     10  C   UNL     1       0.932   9.205  19.267  0.00  0.00    +0.000 A 
ATOM     11  N   UNL     1       0.839   8.533  20.454  0.00  0.00    +0.000 N 
ATOM     12  N   UNL     1       1.716   7.544  20.594  0.00  0.00    +0.000 NA
ATOM     13  H   UNL     1       0.230   8.752  21.236  0.00  0.00    +0.000 HD
BRANCH  10  14
ATOM     14  C   UNL     1       0.096  10.362  18.947  0.00  0.00    +0.000 A 
ATOM     15  C   UNL     1      -1.295  10.189  18.889  0.00  0.00    +0.000 A 
ATOM     16  C   UNL     1      -2.149  11.262  18.627  0.00  0.00    +0.000 A 
ATOM     17  C   UNL     1      -1.619  12.540  18.426  0.00  0.00    +0.000 A 
ATOM     18  C   UNL     1      -0.237  12.732  18.470  0.00  0.00    +0.000 A 
ATOM     19  C   UNL     1       0.612  11.655  18.716  0.00  0.00    +0.000 A 
ATOM     20 CL   UNL     1       2.310  12.018  18.711  0.00  0.00    +0.000 Cl
ENDBRANCH  10  14
ENDBRANCH   2   8
BRANCH   7  21
ATOM     21  C   UNL     1       4.865   4.072  17.466  0.00  0.00    +0.000 A 
ATOM     22  N   UNL     1       4.826   3.970  16.153  0.00  0.00    +0.000 NA
ATOM     23  C   UNL     1       6.134   4.101  15.762  0.00  0.00    +0.000 A 
ATOM     24  N   UNL     1       6.991   4.219  16.788  0.00  0.00    +0.000 NA
ATOM     25  N   UNL     1       6.166   4.211  17.850  0.00  0.00    +0.000 N 
ATOM     26  H   UNL     1       6.535   4.346  18.788  0.00  0.00    +0.000 HD
BRANCH  23  27
ATOM     27  C   UNL     1       6.504   4.167  14.354  0.00  0.00    +0.000 A 
ATOM     28  C   UNL     1       5.864   3.353  13.407  0.00  0.00    +0.000 A 
ATOM     29  C   UNL     1       6.180   3.458  12.051  0.00  0.00    +0.000 A 
ATOM     30  C   UNL     1       7.139   4.377  11.630  0.00  0.00    +0.000 A 
ATOM     31  C   UNL     1       7.789   5.185  12.563  0.00  0.00    +0.000 A 
ATOM     32  C   UNL     1       7.473   5.080  13.917  0.00  0.00    +0.000 A 
ENDBRANCH  23  27
ENDBRANCH   7  21
TORSDOF 4
ENDMDL
MODEL 6
REMARK VINA RESULT:      -8.5      4.022     11.201
REMARK  Name = 
REMARK  4 active torsions:
REMARK  status: ('A' for Active; 'I' for Inactive)
REMARK    1  A    between atoms: C_2  and  C_3
REMARK    2  A    between atoms: C_5  and  C_6
REMARK    3  A    between atoms: C_19  and  C_20
REMARK    4  A    between atoms: C_22  and  C_23
REMARK                            x       y       z     vdW  Elec       q    Type
REMARK                         _______ _______ _______ _____ _____    ______ ____
ROOT
ATOM      1  O   UNL     1       0.930  11.528  20.013  0.00  0.00    +0.000 OA
ATOM      2  C   UNL     1       0.498  10.562  19.370  0.00  0.00    +0.000 C 
ATOM      3  N   UNL     1      -0.729  10.630  18.725  0.00  0.00    +0.000 N 
ATOM      4  C   UNL     1      -1.431   9.534  18.080  0.00  0.00    +0.000 C 
ATOM      5  C   UNL     1      -1.971  10.158  16.815  0.00  0.00    +0.000 C 
ATOM      6  C   UNL     1      -2.376  11.547  17.271  0.00  0.00    +0.000 C 
ATOM      7  C   UNL     1      -1.383  11.901  18.405  0.00  0.00    +0.000 C 
ENDROOT
BRANCH   2   8
ATOM      8  C   UNL     1       1.274   9.305  19.265  0.00  0.00    +0.000 A 
ATOM      9  C   UNL     1       1.890   8.743  18.113  0.00  0.00    +0.000 A 
ATOM     10  C   UNL     1       2.497   7.571  18.528  0.00  0.00    +0.000 A 
ATOM     11  N   UNL     1       2.214   7.499  19.864  0.00  0.00    +0.000 N 
ATOM     12  N   UNL     1       1.416   8.467  20.307  0.00  0.00    +0.000 NA
ATOM     13  H   UNL     1       2.490   6.768  20.511  0.00  0.00    +0.000 HD
BRANCH  10  14
ATOM     14  C   UNL     1       3.306   6.568  17.838  0.00  0.00    +0.000 A 
ATOM     15  C   UNL     1       4.459   6.988  17.158  0.00  0.00    +0.000 A 
ATOM     16  C   UNL     1       5.295   6.074  16.512  0.00  0.00    +0.000 A 
ATOM     17  C   UNL     1       4.991   4.709  16.547  0.00  0.00    +0.000 A 
ATOM     18  C   UNL     1       3.844   4.272  17.210  0.00  0.00    +0.000 A 
ATOM     19  C   UNL     1       3.005   5.189  17.840  0.00  0.00    +0.000 A 
ATOM     20 CL   UNL     1       1.593   4.521  18.598  0.00  0.00    +0.000 Cl
ENDBRANCH  10  14
ENDBRANCH   2   8
BRANCH   7  21
ATOM     21  C   UNL     1      -2.121  12.462  19.574  0.00  0.00    +0.000 A 
ATOM     22  N   UNL     1      -3.377  12.252  19.911  0.00  0.00    +0.000 NA
ATOM     23  C   UNL     1      -3.543  12.963  21.072  0.00  0.00    +0.000 A 
ATOM     24  N   UNL     1      -2.452  13.656  21.436  0.00  0.00    +0.000 NA
ATOM     25  N   UNL     1      -1.567  13.314  20.483  0.00  0.00    +0.000 N 
ATOM     26  H   UNL     1      -0.608  13.650  20.528  0.00  0.00    +0.000 HD
BRANCH  23  27
ATOM     27  C   UNL     1      -4.779  12.889  21.840  0.00  0.00    +0.000 A 
ATOM     28  C   UNL     1      -4.811  13.297  23.182  0.00  0.00    +0.000 A 
ATOM     29  C   UNL     1      -6.009  13.280  23.901  0.00  0.00    +0.000 A 
ATOM     30  C   UNL     1      -7.183  12.851  23.285  0.00  0.00    +0.000 A 
ATOM     31  C   UNL     1      -7.160  12.432  21.954  0.00  0.00    +0.000 A 
ATOM     32  C   UNL     1      -5.964  12.451  21.236  0.00  0.00    +0.000 A 
ENDBRANCH  23  27
ENDBRANCH   7  21
TORSDOF 4
ENDMDL
MODEL 7
REMARK VINA RESULT:      -8.5      1.336      1.933
REMARK  Name = 
REMARK  4 active torsions:
REMARK  status: ('A' for Active; 'I' for Inactive)
REMARK    1  A    between atoms: C_2  and  C_3
REMARK    2  A    between atoms: C_5  and  C_6
REMARK    3  A    between atoms: C_19  and  C_20
REMARK    4  A    between atoms: C_22  and  C_23
REMARK                            x       y       z     vdW  Elec       q    Type
REMARK                         _______ _______ _______ _____ _____    ______ ____
ROOT
ATOM      1  O   UNL     1       4.551   6.524  19.431  0.00  0.00    +0.000 OA
ATOM      2  C   UNL     1       3.378   6.446  19.045  0.00  0.00    +0.000 C 
ATOM      3  N   UNL     1       2.936   5.339  18.334  0.00  0.00    +0.000 N 
ATOM      4  C   UNL     1       1.647   5.185  17.681  0.00  0.00    +0.000 C 
ATOM      5  C   UNL     1       1.258   3.762  18.002  0.00  0.00    +0.000 C 
ATOM      6  C   UNL     1       2.580   3.023  17.914  0.00  0.00    +0.000 C 
ATOM      7  C   UNL     1       3.646   4.058  18.348  0.00  0.00    +0.000 C 
ENDROOT
BRANCH   2   8
ATOM      8  C   UNL     1       2.406   7.528  19.327  0.00  0.00    +0.000 A 
ATOM      9  C   UNL     1       1.781   7.850  20.563  0.00  0.00    +0.000 A 
ATOM     10  C   UNL     1       0.967   8.941  20.315  0.00  0.00    +0.000 A 
ATOM     11  N   UNL     1       1.144   9.199  18.984  0.00  0.00    +0.000 N 
ATOM     12  N   UNL     1       1.922   8.323  18.356  0.00  0.00    +0.000 NA
ATOM     13  H   UNL     1       0.702   9.930  18.437  0.00  0.00    +0.000 HD
BRANCH  10  14
ATOM     14  C   UNL     1       0.099   9.753  21.167  0.00  0.00    +0.000 A 
ATOM     15  C   UNL     1      -0.094   9.356  22.499  0.00  0.00    +0.000 A 
ATOM     16  C   UNL     1      -0.880  10.109  23.374  0.00  0.00    +0.000 A 
ATOM     17  C   UNL     1      -1.482  11.290  22.927  0.00  0.00    +0.000 A 
ATOM     18  C   UNL     1      -1.309  11.697  21.603  0.00  0.00    +0.000 A 
ATOM     19  C   UNL     1      -0.537  10.934  20.730  0.00  0.00    +0.000 A 
ATOM     20 CL   UNL     1      -0.430  11.530  19.103  0.00  0.00    +0.000 Cl
ENDBRANCH  10  14
ENDBRANCH   2   8
BRANCH   7  21
ATOM     21  C   UNL     1       4.793   4.041  17.393  0.00  0.00    +0.000 A 
ATOM     22  N   UNL     1       4.745   4.030  16.076  0.00  0.00    +0.000 NA
ATOM     23  C   UNL     1       6.060   4.056  15.687  0.00  0.00    +0.000 A 
ATOM     24  N   UNL     1       6.924   4.023  16.715  0.00  0.00    +0.000 NA
ATOM     25  N   UNL     1       6.101   4.026  17.778  0.00  0.00    +0.000 N 
ATOM     26  H   UNL     1       6.480   4.063  18.721  0.00  0.00    +0.000 HD
BRANCH  23  27
ATOM     27  C   UNL     1       6.437   4.178  14.285  0.00  0.00    +0.000 A 
ATOM     28  C   UNL     1       7.415   5.102  13.886  0.00  0.00    +0.000 A 
ATOM     29  C   UNL     1       7.816   5.179  12.550  0.00  0.00    +0.000 A 
ATOM     30  C   UNL     1       7.240   4.334  11.602  0.00  0.00    +0.000 A 
ATOM     31  C   UNL     1       6.260   3.419  11.986  0.00  0.00    +0.000 A 
ATOM     32  C   UNL     1       5.860   3.343  13.320  0.00  0.00    +0.000 A 
ENDBRANCH  23  27
ENDBRANCH   7  21
TORSDOF 4
ENDMDL
MODEL 8
REMARK VINA RESULT:      -8.3      3.769     10.951
REMARK  Name = 
REMARK  4 active torsions:
REMARK  status: ('A' for Active; 'I' for Inactive)
REMARK    1  A    between atoms: C_2  and  C_3
REMARK    2  A    between atoms: C_5  and  C_6
REMARK    3  A    between atoms: C_19  and  C_20
REMARK    4  A    between atoms: C_22  and  C_23
REMARK                            x       y       z     vdW  Elec       q    Type
REMARK                         _______ _______ _______ _____ _____    ______ ____
ROOT
ATOM      1  O   UNL     1       1.500  11.714  19.221  0.00  0.00    +0.000 OA
ATOM      2  C   UNL     1       0.873  10.694  18.904  0.00  0.00    +0.000 C 
ATOM      3  N   UNL     1      -0.466  10.767  18.543  0.00  0.00    +0.000 N 
ATOM      4  C   UNL     1      -1.363   9.649  18.310  0.00  0.00    +0.000 C 
ATOM      5  C   UNL     1      -2.147  10.076  17.092  0.00  0.00    +0.000 C 
ATOM      6  C   UNL     1      -2.350  11.561  17.325  0.00  0.00    +0.000 C 
ATOM      7  C   UNL     1      -1.100  12.017  18.115  0.00  0.00    +0.000 C 
ENDROOT
BRANCH   2   8
ATOM      8  C   UNL     1       1.526   9.365  18.897  0.00  0.00    +0.000 A 
ATOM      9  C   UNL     1       2.179   8.710  17.816  0.00  0.00    +0.000 A 
ATOM     10  C   UNL     1       2.630   7.499  18.311  0.00  0.00    +0.000 A 
ATOM     11  N   UNL     1       2.230   7.498  19.618  0.00  0.00    +0.000 N 
ATOM     12  N   UNL     1       1.497   8.551  19.967  0.00  0.00    +0.000 NA
ATOM     13  H   UNL     1       2.378   6.765  20.304  0.00  0.00    +0.000 HD
BRANCH  10  14
ATOM     14  C   UNL     1       3.391   6.400  17.717  0.00  0.00    +0.000 A 
ATOM     15  C   UNL     1       4.617   6.691  17.100  0.00  0.00    +0.000 A 
ATOM     16  C   UNL     1       5.409   5.681  16.549  0.00  0.00    +0.000 A 
ATOM     17  C   UNL     1       4.987   4.350  16.618  0.00  0.00    +0.000 A 
ATOM     18  C   UNL     1       3.766   4.041  17.220  0.00  0.00    +0.000 A 
ATOM     19  C   UNL     1       2.972   5.053  17.754  0.00  0.00    +0.000 A 
ATOM     20 CL   UNL     1       1.463   4.542  18.443  0.00  0.00    +0.000 Cl
ENDBRANCH  10  14
ENDBRANCH   2   8
BRANCH   7  21
ATOM     21  C   UNL     1      -1.508  12.864  19.274  0.00  0.00    +0.000 A 
ATOM     22  N   UNL     1      -2.144  12.486  20.364  0.00  0.00    +0.000 NA
ATOM     23  C   UNL     1      -2.238  13.629  21.117  0.00  0.00    +0.000 A 
ATOM     24  N   UNL     1      -1.738  14.715  20.507  0.00  0.00    +0.000 NA
ATOM     25  N   UNL     1      -1.273  14.205  19.353  0.00  0.00    +0.000 N 
ATOM     26  H   UNL     1      -0.776  14.797  18.693  0.00  0.00    +0.000 HD
BRANCH  23  27
ATOM     27  C   UNL     1      -2.776  13.606  22.471  0.00  0.00    +0.000 A 
ATOM     28  C   UNL     1      -3.569  12.533  22.907  0.00  0.00    +0.000 A 
ATOM     29  C   UNL     1      -4.036  12.484  24.223  0.00  0.00    +0.000 A 
ATOM     30  C   UNL     1      -3.716  13.509  25.112  0.00  0.00    +0.000 A 
ATOM     31  C   UNL     1      -2.937  14.585  24.687  0.00  0.00    +0.000 A 
ATOM     32  C   UNL     1      -2.470  14.633  23.373  0.00  0.00    +0.000 A 
ENDBRANCH  23  27
ENDBRANCH   7  21
TORSDOF 4
ENDMDL
MODEL 9
REMARK VINA RESULT:      -8.2      4.100     11.366
REMARK  Name = 
REMARK  4 active torsions:
REMARK  status: ('A' for Active; 'I' for Inactive)
REMARK    1  A    between atoms: C_2  and  C_3
REMARK    2  A    between atoms: C_5  and  C_6
REMARK    3  A    between atoms: C_19  and  C_20
REMARK    4  A    between atoms: C_22  and  C_23
REMARK                            x       y       z     vdW  Elec       q    Type
REMARK                         _______ _______ _______ _____ _____    ______ ____
ROOT
ATOM      1  O   UNL     1       0.685  11.221  21.026  0.00  0.00    +0.000 OA
ATOM      2  C   UNL     1       0.327  10.410  20.161  0.00  0.00    +0.000 C 
ATOM      3  N   UNL     1      -0.817  10.634  19.408  0.00  0.00    +0.000 N 
ATOM      4  C   UNL     1      -1.443   9.703  18.484  0.00  0.00    +0.000 C 
ATOM      5  C   UNL     1      -1.830  10.576  17.314  0.00  0.00    +0.000 C 
ATOM      6  C   UNL     1      -2.279  11.860  17.984  0.00  0.00    +0.000 C 
ATOM      7  C   UNL     1      -1.424  11.961  19.271  0.00  0.00    +0.000 C 
ENDROOT
BRANCH   2   8
ATOM      8  C   UNL     1       1.105   9.176  19.901  0.00  0.00    +0.000 A 
ATOM      9  C   UNL     1       1.643   8.719  18.666  0.00  0.00    +0.000 A 
ATOM     10  C   UNL     1       2.288   7.526  18.942  0.00  0.00    +0.000 A 
ATOM     11  N   UNL     1       2.100   7.343  20.283  0.00  0.00    +0.000 N 
ATOM     12  N   UNL     1       1.327   8.259  20.858  0.00  0.00    +0.000 NA
ATOM     13  H   UNL     1       2.428   6.565  20.848  0.00  0.00    +0.000 HD
BRANCH  10  14
ATOM     14  C   UNL     1       3.056   6.594  18.117  0.00  0.00    +0.000 A 
ATOM     15  C   UNL     1       4.124   7.093  17.357  0.00  0.00    +0.000 A 
ATOM     16  C   UNL     1       4.919   6.248  16.579  0.00  0.00    +0.000 A 
ATOM     17  C   UNL     1       4.661   4.874  16.559  0.00  0.00    +0.000 A 
ATOM     18  C   UNL     1       3.597   4.358  17.302  0.00  0.00    +0.000 A 
ATOM     19  C   UNL     1       2.797   5.207  18.063  0.00  0.00    +0.000 A 
ATOM     20 CL   UNL     1       1.487   4.447  18.911  0.00  0.00    +0.000 Cl
ENDBRANCH  10  14
ENDBRANCH   2   8
BRANCH   7  21
ATOM     21  C   UNL     1      -2.291  12.304  20.436  0.00  0.00    +0.000 A 
ATOM     22  N   UNL     1      -3.590  12.517  20.438  0.00  0.00    +0.000 NA
ATOM     23  C   UNL     1      -3.895  12.754  21.754  0.00  0.00    +0.000 A 
ATOM     24  N   UNL     1      -2.821  12.755  22.561  0.00  0.00    +0.000 NA
ATOM     25  N   UNL     1      -1.825  12.457  21.708  0.00  0.00    +0.000 N 
ATOM     26  H   UNL     1      -0.876  12.329  22.051  0.00  0.00    +0.000 HD
BRANCH  23  27
ATOM     27  C   UNL     1      -5.273  12.916  22.199  0.00  0.00    +0.000 A 
ATOM     28  C   UNL     1      -6.329  12.338  21.479  0.00  0.00    +0.000 A 
ATOM     29  C   UNL     1      -7.644  12.446  21.937  0.00  0.00    +0.000 A 
ATOM     30  C   UNL     1      -7.914  13.134  23.119  0.00  0.00    +0.000 A 
ATOM     31  C   UNL     1      -6.873  13.721  23.838  0.00  0.00    +0.000 A 
ATOM     32  C   UNL     1      -5.560  13.613  23.380  0.00  0.00    +0.000 A 
ENDBRANCH  23  27
ENDBRANCH   7  21
TORSDOF 4
ENDMDL
