MODEL 1
REMARK VINA RESULT:      -8.1      0.000      0.000
REMARK  Name = 
REMARK  4 active torsions:
REMARK  status: ('A' for Active; 'I' for Inactive)
REMARK    1  A    between atoms: S_2  and  N_4
REMARK    2  A    between atoms: S_2  and  C_19
REMARK    3  A    between atoms: C_8  and  C_9
REMARK    4  A    between atoms: C_9  and  C_10
REMARK                            x       y       z     vdW  Elec       q    Type
REMARK                         _______ _______ _______ _____ _____    ______ ____
ROOT
ATOM      1  N   UNL     1       6.458   4.223  16.528  0.00  0.00    +0.000 N 
ATOM      2  C   UNL     1       5.254   4.305  17.263  0.00  0.00    +0.000 A 
ATOM      3  N   UNL     1       4.115   3.874  16.781  0.00  0.00    +0.000 NA
ATOM      4  N   UNL     1       3.061   4.181  17.620  0.00  0.00    +0.000 NA
ATOM      5  C   UNL     1       3.460   4.775  18.729  0.00  0.00    +0.000 A 
ATOM      6  S   UNL     1       5.172   4.925  18.851  0.00  0.00    +0.000 S 
ATOM      7  H   UNL     1       7.294   4.435  17.069  0.00  0.00    +0.000 HD
ENDROOT
BRANCH   1   9
ATOM      8  O   UNL     1       5.387   6.223  15.274  0.00  0.00    +0.000 OA
ATOM      9  S   UNL     1       6.434   5.231  15.173  0.00  0.00    +0.000 S 
ATOM     10  O   UNL     1       7.813   5.647  15.002  0.00  0.00    +0.000 OA
BRANCH   9  11
ATOM     11  C   UNL     1       6.044   4.140  13.828  0.00  0.00    +0.000 A 
ATOM     12  C   UNL     1       4.712   3.950  13.444  0.00  0.00    +0.000 A 
ATOM     13  C   UNL     1       4.407   3.210  12.298  0.00  0.00    +0.000 A 
ATOM     14  C   UNL     1       5.443   2.670  11.541  0.00  0.00    +0.000 A 
ATOM     15  F   UNL     1       5.151   1.985  10.425  0.00  0.00    +0.000 F 
ATOM     16  C   UNL     1       6.769   2.854  11.922  0.00  0.00    +0.000 A 
ATOM     17  F   UNL     1       7.758   2.338  11.179  0.00  0.00    +0.000 F 
ATOM     18  C   UNL     1       7.084   3.589  13.062  0.00  0.00    +0.000 A 
ENDBRANCH   9  11
ENDBRANCH   1   9
BRANCH   5  19
ATOM     19  C   UNL     1       2.445   5.275  19.794  0.00  0.00    +0.000 C 
ATOM     20  C   UNL     1       2.356   4.581  21.156  0.00  0.00    +0.000 C 
ATOM     21  C   UNL     1       1.294   4.333  20.140  0.00  0.00    +0.000 C 
BRANCH  19  22
ATOM     22  C   UNL     1       2.106   6.762  19.735  0.00  0.00    +0.000 A 
ATOM     23  C   UNL     1       2.296   7.522  18.570  0.00  0.00    +0.000 A 
ATOM     24  C   UNL     1       1.840   8.839  18.480  0.00  0.00    +0.000 A 
ATOM     25  C   UNL     1       1.190   9.430  19.561  0.00  0.00    +0.000 A 
ATOM     26  C   UNL     1       1.042   8.722  20.749  0.00  0.00    +0.000 A 
ATOM     27  C   UNL     1       1.511   7.410  20.836  0.00  0.00    +0.000 A 
ENDBRANCH  19  22
ENDBRANCH   5  19
TORSDOF 4
ENDMDL
MODEL 2
REMARK VINA RESULT:      -7.9      0.539      1.299
REMARK  Name = 
REMARK  4 active torsions:
REMARK  status: ('A' for Active; 'I' for Inactive)
REMARK    1  A    between atoms: S_2  and  N_4
REMARK    2  A    between atoms: S_2  and  C_19
REMARK    3  A    between atoms: C_8  and  C_9
REMARK    4  A    between atoms: C_9  and  C_10
REMARK                            x       y       z     vdW  Elec       q    Type
REMARK                         _______ _______ _______ _____ _____    ______ ____
ROOT
ATOM      1  N   UNL     1       6.279   4.193  16.523  0.00  0.00    +0.000 N 
ATOM      2  C   UNL     1       5.077   4.296  17.260  0.00  0.00    +0.000 A 
ATOM      3  N   UNL     1       3.911   4.026  16.728  0.00  0.00    +0.000 NA
ATOM      4  N   UNL     1       2.878   4.326  17.595  0.00  0.00    +0.000 NA
ATOM      5  C   UNL     1       3.313   4.751  18.766  0.00  0.00    +0.000 A 
ATOM      6  S   UNL     1       5.030   4.734  18.909  0.00  0.00    +0.000 S 
ATOM      7  H   UNL     1       7.123   4.268  17.087  0.00  0.00    +0.000 HD
ENDROOT
BRANCH   1   9
ATOM      8  O   UNL     1       5.254   6.276  15.370  0.00  0.00    +0.000 OA
ATOM      9  S   UNL     1       6.360   5.349  15.294  0.00  0.00    +0.000 S 
ATOM     10  O   UNL     1       7.723   5.840  15.342  0.00  0.00    +0.000 OA
BRANCH   9  11
ATOM     11  C   UNL     1       6.195   4.403  13.800  0.00  0.00    +0.000 A 
ATOM     12  C   UNL     1       7.333   3.890  13.168  0.00  0.00    +0.000 A 
ATOM     13  C   UNL     1       7.204   3.025  12.076  0.00  0.00    +0.000 A 
ATOM     14  C   UNL     1       5.932   2.677  11.631  0.00  0.00    +0.000 A 
ATOM     15  F   UNL     1       5.808   1.825  10.602  0.00  0.00    +0.000 F 
ATOM     16  C   UNL     1       4.798   3.189  12.255  0.00  0.00    +0.000 A 
ATOM     17  F   UNL     1       3.579   2.839  11.823  0.00  0.00    +0.000 F 
ATOM     18  C   UNL     1       4.916   4.052  13.342  0.00  0.00    +0.000 A 
ENDBRANCH   9  11
ENDBRANCH   1   9
BRANCH   5  19
ATOM     19  C   UNL     1       2.332   5.212  19.878  0.00  0.00    +0.000 C 
ATOM     20  C   UNL     1       2.280   4.467  21.215  0.00  0.00    +0.000 C 
ATOM     21  C   UNL     1       1.187   4.261  20.222  0.00  0.00    +0.000 C 
BRANCH  19  22
ATOM     22  C   UNL     1       1.998   6.701  19.888  0.00  0.00    +0.000 A 
ATOM     23  C   UNL     1       2.228   7.522  18.772  0.00  0.00    +0.000 A 
ATOM     24  C   UNL     1       1.778   8.844  18.737  0.00  0.00    +0.000 A 
ATOM     25  C   UNL     1       1.094   9.379  19.825  0.00  0.00    +0.000 A 
ATOM     26  C   UNL     1       0.906   8.609  20.969  0.00  0.00    +0.000 A 
ATOM     27  C   UNL     1       1.369   7.293  21.002  0.00  0.00    +0.000 A 
ENDBRANCH  19  22
ENDBRANCH   5  19
TORSDOF 4
ENDMDL
MODEL 3
REMARK VINA RESULT:      -7.9      2.658      4.162
REMARK  Name = 
REMARK  4 active torsions:
REMARK  status: ('A' for Active; 'I' for Inactive)
REMARK    1  A    between atoms: S_2  and  N_4
REMARK    2  A    between atoms: S_2  and  C_19
REMARK    3  A    between atoms: C_8  and  C_9
REMARK    4  A    between atoms: C_9  and  C_10
REMARK                            x       y       z     vdW  Elec       q    Type
REMARK                         _______ _______ _______ _____ _____    ______ ____
ROOT
ATOM      1  N   UNL     1       3.277   4.547  18.717  0.00  0.00    +0.000 N 
ATOM      2  C   UNL     1       2.689   5.805  18.980  0.00  0.00    +0.000 A 
ATOM      3  N   UNL     1       2.919   6.851  18.225  0.00  0.00    +0.000 NA
ATOM      4  N   UNL     1       2.345   7.991  18.752  0.00  0.00    +0.000 NA
ATOM      5  C   UNL     1       1.654   7.745  19.849  0.00  0.00    +0.000 A 
ATOM      6  S   UNL     1       1.596   6.073  20.263  0.00  0.00    +0.000 S 
ATOM      7  H   UNL     1       2.895   3.783  19.270  0.00  0.00    +0.000 HD
ENDROOT
BRANCH   1   9
ATOM      8  O   UNL     1       5.350   5.717  19.745  0.00  0.00    +0.000 OA
ATOM      9  S   UNL     1       4.950   4.580  18.947  0.00  0.00    +0.000 S 
ATOM     10  O   UNL     1       5.287   3.237  19.378  0.00  0.00    +0.000 OA
BRANCH   9  11
ATOM     11  C   UNL     1       5.608   4.786  17.311  0.00  0.00    +0.000 A 
ATOM     12  C   UNL     1       6.922   5.234  17.136  0.00  0.00    +0.000 A 
ATOM     13  C   UNL     1       7.494   5.260  15.860  0.00  0.00    +0.000 A 
ATOM     14  C   UNL     1       6.745   4.829  14.769  0.00  0.00    +0.000 A 
ATOM     15  F   UNL     1       7.304   4.826  13.550  0.00  0.00    +0.000 F 
ATOM     16  C   UNL     1       5.436   4.385  14.939  0.00  0.00    +0.000 A 
ATOM     17  F   UNL     1       4.729   3.964  13.882  0.00  0.00    +0.000 F 
ATOM     18  C   UNL     1       4.856   4.356  16.205  0.00  0.00    +0.000 A 
ENDBRANCH   9  11
ENDBRANCH   1   9
BRANCH   5  19
ATOM     19  C   UNL     1       0.975   8.885  20.655  0.00  0.00    +0.000 C 
ATOM     20  C   UNL     1       1.371   9.139  22.113  0.00  0.00    +0.000 C 
ATOM     21  C   UNL     1       0.075   8.463  21.816  0.00  0.00    +0.000 C 
BRANCH  19  22
ATOM     22  C   UNL     1       0.499  10.081  19.835  0.00  0.00    +0.000 A 
ATOM     23  C   UNL     1      -0.778  10.122  19.254  0.00  0.00    +0.000 A 
ATOM     24  C   UNL     1      -1.259  11.280  18.638  0.00  0.00    +0.000 A 
ATOM     25  C   UNL     1      -0.465  12.423  18.581  0.00  0.00    +0.000 A 
ATOM     26  C   UNL     1       0.827  12.392  19.094  0.00  0.00    +0.000 A 
ATOM     27  C   UNL     1       1.306  11.228  19.697  0.00  0.00    +0.000 A 
ENDBRANCH  19  22
ENDBRANCH   5  19
TORSDOF 4
ENDMDL
MODEL 4
REMARK VINA RESULT:      -7.7      3.600      4.403
REMARK  Name = 
REMARK  4 active torsions:
REMARK  status: ('A' for Active; 'I' for Inactive)
REMARK    1  A    between atoms: S_2  and  N_4
REMARK    2  A    between atoms: S_2  and  C_19
REMARK    3  A    between atoms: C_8  and  C_9
REMARK    4  A    between atoms: C_9  and  C_10
REMARK                            x       y       z     vdW  Elec       q    Type
REMARK                         _______ _______ _______ _____ _____    ______ ____
ROOT
ATOM      1  N   UNL     1       5.525   3.203  16.460  0.00  0.00    +0.000 N 
ATOM      2  C   UNL     1       4.407   3.582  17.238  0.00  0.00    +0.000 A 
ATOM      3  N   UNL     1       3.268   3.930  16.693  0.00  0.00    +0.000 NA
ATOM      4  N   UNL     1       2.372   4.384  17.641  0.00  0.00    +0.000 NA
ATOM      5  C   UNL     1       2.852   4.300  18.867  0.00  0.00    +0.000 A 
ATOM      6  S   UNL     1       4.415   3.578  18.945  0.00  0.00    +0.000 S 
ATOM      7  H   UNL     1       6.290   2.799  16.996  0.00  0.00    +0.000 HD
ENDROOT
BRANCH   1   9
ATOM      8  O   UNL     1       7.188   4.078  14.673  0.00  0.00    +0.000 OA
ATOM      9  S   UNL     1       6.133   4.502  15.567  0.00  0.00    +0.000 S 
ATOM     10  O   UNL     1       4.957   5.164  15.038  0.00  0.00    +0.000 OA
BRANCH   9  11
ATOM     11  C   UNL     1       6.835   5.578  16.791  0.00  0.00    +0.000 A 
ATOM     12  C   UNL     1       7.514   5.040  17.890  0.00  0.00    +0.000 A 
ATOM     13  C   UNL     1       8.193   5.878  18.779  0.00  0.00    +0.000 A 
ATOM     14  C   UNL     1       8.192   7.252  18.555  0.00  0.00    +0.000 A 
ATOM     15  F   UNL     1       8.869   8.053  19.392  0.00  0.00    +0.000 F 
ATOM     16  C   UNL     1       7.515   7.791  17.465  0.00  0.00    +0.000 A 
ATOM     17  F   UNL     1       7.530   9.114  17.254  0.00  0.00    +0.000 F 
ATOM     18  C   UNL     1       6.835   6.965  16.574  0.00  0.00    +0.000 A 
ENDBRANCH   9  11
ENDBRANCH   1   9
BRANCH   5  19
ATOM     19  C   UNL     1       2.049   4.814  20.093  0.00  0.00    +0.000 C 
ATOM     20  C   UNL     1       2.096   4.051  21.419  0.00  0.00    +0.000 C 
ATOM     21  C   UNL     1       0.881   3.949  20.561  0.00  0.00    +0.000 C 
BRANCH  19  22
ATOM     22  C   UNL     1       1.837   6.325  20.156  0.00  0.00    +0.000 A 
ATOM     23  C   UNL     1       2.314   7.184  19.153  0.00  0.00    +0.000 A 
ATOM     24  C   UNL     1       1.983   8.541  19.142  0.00  0.00    +0.000 A 
ATOM     25  C   UNL     1       1.171   9.072  20.141  0.00  0.00    +0.000 A 
ATOM     26  C   UNL     1       0.734   8.257  21.181  0.00  0.00    +0.000 A 
ATOM     27  C   UNL     1       1.080   6.905  21.193  0.00  0.00    +0.000 A 
ENDBRANCH  19  22
ENDBRANCH   5  19
TORSDOF 4
ENDMDL
MODEL 5
REMARK VINA RESULT:      -7.6      1.260      1.711
REMARK  Name = 
REMARK  4 active torsions:
REMARK  status: ('A' for Active; 'I' for Inactive)
REMARK    1  A    between atoms: S_2  and  N_4
REMARK    2  A    between atoms: S_2  and  C_19
REMARK    3  A    between atoms: C_8  and  C_9
REMARK    4  A    between atoms: C_9  and  C_10
REMARK                            x       y       z     vdW  Elec       q    Type
REMARK                         _______ _______ _______ _____ _____    ______ ____
ROOT
ATOM      1  N   UNL     1       5.895   3.517  16.932  0.00  0.00    +0.000 N 
ATOM      2  C   UNL     1       4.718   3.980  17.564  0.00  0.00    +0.000 A 
ATOM      3  N   UNL     1       3.802   4.656  16.917  0.00  0.00    +0.000 NA
ATOM      4  N   UNL     1       2.815   5.114  17.768  0.00  0.00    +0.000 NA
ATOM      5  C   UNL     1       2.997   4.711  19.011  0.00  0.00    +0.000 A 
ATOM      6  S   UNL     1       4.356   3.670  19.203  0.00  0.00    +0.000 S 
ATOM      7  H   UNL     1       6.444   2.869  17.494  0.00  0.00    +0.000 HD
ENDROOT
BRANCH   1   9
ATOM      8  O   UNL     1       6.342   6.069  16.857  0.00  0.00    +0.000 OA
ATOM      9  S   UNL     1       6.897   4.793  16.466  0.00  0.00    +0.000 S 
ATOM     10  O   UNL     1       8.218   4.406  16.922  0.00  0.00    +0.000 OA
BRANCH   9  11
ATOM     11  C   UNL     1       6.909   4.708  14.692  0.00  0.00    +0.000 A 
ATOM     12  C   UNL     1       7.819   5.480  13.961  0.00  0.00    +0.000 A 
ATOM     13  C   UNL     1       7.933   5.312  12.577  0.00  0.00    +0.000 A 
ATOM     14  C   UNL     1       7.139   4.364  11.939  0.00  0.00    +0.000 A 
ATOM     15  F   UNL     1       7.270   4.182  10.616  0.00  0.00    +0.000 F 
ATOM     16  C   UNL     1       6.230   3.597  12.663  0.00  0.00    +0.000 A 
ATOM     17  F   UNL     1       5.478   2.682  12.038  0.00  0.00    +0.000 F 
ATOM     18  C   UNL     1       6.107   3.758  14.041  0.00  0.00    +0.000 A 
ENDBRANCH   9  11
ENDBRANCH   1   9
BRANCH   5  19
ATOM     19  C   UNL     1       2.050   5.158  20.157  0.00  0.00    +0.000 C 
ATOM     20  C   UNL     1       2.001   4.366  21.467  0.00  0.00    +0.000 C 
ATOM     21  C   UNL     1       0.885   4.228  20.488  0.00  0.00    +0.000 C 
BRANCH  19  22
ATOM     22  C   UNL     1       1.758   6.655  20.227  0.00  0.00    +0.000 A 
ATOM     23  C   UNL     1       2.159   7.537  19.211  0.00  0.00    +0.000 A 
ATOM     24  C   UNL     1       1.754   8.874  19.210  0.00  0.00    +0.000 A 
ATOM     25  C   UNL     1       0.944   9.361  20.233  0.00  0.00    +0.000 A 
ATOM     26  C   UNL     1       0.583   8.526  21.284  0.00  0.00    +0.000 A 
ATOM     27  C   UNL     1       1.002   7.194  21.286  0.00  0.00    +0.000 A 
ENDBRANCH  19  22
ENDBRANCH   5  19
TORSDOF 4
ENDMDL
MODEL 6
REMARK VINA RESULT:      -7.6      6.966     10.320
REMARK  Name = 
REMARK  4 active torsions:
REMARK  status: ('A' for Active; 'I' for Inactive)
REMARK    1  A    between atoms: S_2  and  N_4
REMARK    2  A    between atoms: S_2  and  C_19
REMARK    3  A    between atoms: C_8  and  C_9
REMARK    4  A    between atoms: C_9  and  C_10
REMARK                            x       y       z     vdW  Elec       q    Type
REMARK                         _______ _______ _______ _____ _____    ______ ____
ROOT
ATOM      1  N   UNL     1       0.529  10.926  19.518  0.00  0.00    +0.000 N 
ATOM      2  C   UNL     1       1.321   9.875  19.002  0.00  0.00    +0.000 A 
ATOM      3  N   UNL     1       1.766   9.881  17.770  0.00  0.00    +0.000 NA
ATOM      4  N   UNL     1       2.399   8.694  17.455  0.00  0.00    +0.000 NA
ATOM      5  C   UNL     1       2.459   7.869  18.482  0.00  0.00    +0.000 A 
ATOM      6  S   UNL     1       1.809   8.531  19.934  0.00  0.00    +0.000 S 
ATOM      7  H   UNL     1       0.386  10.887  20.525  0.00  0.00    +0.000 HD
ENDROOT
BRANCH   1   9
ATOM      8  O   UNL     1      -0.942  11.795  17.569  0.00  0.00    +0.000 OA
ATOM      9  S   UNL     1      -0.984  10.993  18.771  0.00  0.00    +0.000 S 
ATOM     10  O   UNL     1      -1.422   9.612  18.708  0.00  0.00    +0.000 OA
BRANCH   9  11
ATOM     11  C   UNL     1      -2.016  11.817  19.957  0.00  0.00    +0.000 A 
ATOM     12  C   UNL     1      -3.279  12.287  19.580  0.00  0.00    +0.000 A 
ATOM     13  C   UNL     1      -4.154  12.805  20.539  0.00  0.00    +0.000 A 
ATOM     14  C   UNL     1      -3.758  12.842  21.873  0.00  0.00    +0.000 A 
ATOM     15  F   UNL     1      -4.610  13.311  22.797  0.00  0.00    +0.000 F 
ATOM     16  C   UNL     1      -2.501  12.378  22.252  0.00  0.00    +0.000 A 
ATOM     17  F   UNL     1      -2.135  12.410  23.540  0.00  0.00    +0.000 F 
ATOM     18  C   UNL     1      -1.621  11.861  21.304  0.00  0.00    +0.000 A 
ENDBRANCH   9  11
ENDBRANCH   1   9
BRANCH   5  19
ATOM     19  C   UNL     1       3.066   6.446  18.348  0.00  0.00    +0.000 C 
ATOM     20  C   UNL     1       4.582   6.246  18.423  0.00  0.00    +0.000 C 
ATOM     21  C   UNL     1       3.900   6.170  17.099  0.00  0.00    +0.000 C 
BRANCH  19  22
ATOM     22  C   UNL     1       2.179   5.301  18.832  0.00  0.00    +0.000 A 
ATOM     23  C   UNL     1       1.675   4.329  17.953  0.00  0.00    +0.000 A 
ATOM     24  C   UNL     1       0.995   3.204  18.427  0.00  0.00    +0.000 A 
ATOM     25  C   UNL     1       0.795   3.032  19.794  0.00  0.00    +0.000 A 
ATOM     26  C   UNL     1       1.228   4.010  20.684  0.00  0.00    +0.000 A 
ATOM     27  C   UNL     1       1.896   5.137  20.203  0.00  0.00    +0.000 A 
ENDBRANCH  19  22
ENDBRANCH   5  19
TORSDOF 4
ENDMDL
MODEL 7
REMARK VINA RESULT:      -7.5      5.842      9.000
REMARK  Name = 
REMARK  4 active torsions:
REMARK  status: ('A' for Active; 'I' for Inactive)
REMARK    1  A    between atoms: S_2  and  N_4
REMARK    2  A    between atoms: S_2  and  C_19
REMARK    3  A    between atoms: C_8  and  C_9
REMARK    4  A    between atoms: C_9  and  C_10
REMARK                            x       y       z     vdW  Elec       q    Type
REMARK                         _______ _______ _______ _____ _____    ______ ____
ROOT
ATOM      1  N   UNL     1       1.547   8.515  21.828  0.00  0.00    +0.000 N 
ATOM      2  C   UNL     1       1.902   7.780  20.674  0.00  0.00    +0.000 A 
ATOM      3  N   UNL     1       1.949   8.330  19.486  0.00  0.00    +0.000 NA
ATOM      4  N   UNL     1       2.188   7.390  18.502  0.00  0.00    +0.000 NA
ATOM      5  C   UNL     1       2.371   6.181  18.997  0.00  0.00    +0.000 A 
ATOM      6  S   UNL     1       2.344   6.132  20.719  0.00  0.00    +0.000 S 
ATOM      7  H   UNL     1       1.706   8.022  22.704  0.00  0.00    +0.000 HD
ENDROOT
BRANCH   1   9
ATOM      8  O   UNL     1      -0.931   7.936  21.336  0.00  0.00    +0.000 OA
ATOM      9  S   UNL     1      -0.068   9.006  21.783  0.00  0.00    +0.000 S 
ATOM     10  O   UNL     1      -0.296   9.632  23.071  0.00  0.00    +0.000 OA
BRANCH   9  11
ATOM     11  C   UNL     1      -0.096  10.295  20.562  0.00  0.00    +0.000 A 
ATOM     12  C   UNL     1      -0.962  10.202  19.467  0.00  0.00    +0.000 A 
ATOM     13  C   UNL     1      -1.095  11.276  18.581  0.00  0.00    +0.000 A 
ATOM     14  C   UNL     1      -0.362  12.438  18.805  0.00  0.00    +0.000 A 
ATOM     15  F   UNL     1      -0.513  13.479  17.972  0.00  0.00    +0.000 F 
ATOM     16  C   UNL     1       0.502  12.532  19.892  0.00  0.00    +0.000 A 
ATOM     17  F   UNL     1       1.194  13.660  20.103  0.00  0.00    +0.000 F 
ATOM     18  C   UNL     1       0.643  11.468  20.780  0.00  0.00    +0.000 A 
ENDBRANCH   9  11
ENDBRANCH   1   9
BRANCH   5  19
ATOM     19  C   UNL     1       2.589   4.950  18.076  0.00  0.00    +0.000 C 
ATOM     20  C   UNL     1       1.386   4.199  17.497  0.00  0.00    +0.000 C 
ATOM     21  C   UNL     1       2.150   3.594  18.626  0.00  0.00    +0.000 C 
BRANCH  19  22
ATOM     22  C   UNL     1       3.876   4.959  17.255  0.00  0.00    +0.000 A 
ATOM     23  C   UNL     1       4.492   3.773  16.826  0.00  0.00    +0.000 A 
ATOM     24  C   UNL     1       5.579   3.795  15.949  0.00  0.00    +0.000 A 
ATOM     25  C   UNL     1       6.081   5.009  15.487  0.00  0.00    +0.000 A 
ATOM     26  C   UNL     1       5.530   6.202  15.943  0.00  0.00    +0.000 A 
ATOM     27  C   UNL     1       4.452   6.173  16.830  0.00  0.00    +0.000 A 
ENDBRANCH  19  22
ENDBRANCH   5  19
TORSDOF 4
ENDMDL
MODEL 8
REMARK VINA RESULT:      -7.5      0.922      1.745
REMARK  Name = 
REMARK  4 active torsions:
REMARK  status: ('A' for Active; 'I' for Inactive)
REMARK    1  A    between atoms: S_2  and  N_4
REMARK    2  A    between atoms: S_2  and  C_19
REMARK    3  A    between atoms: C_8  and  C_9
REMARK    4  A    between atoms: C_9  and  C_10
REMARK                            x       y       z     vdW  Elec       q    Type
REMARK                         _______ _______ _______ _____ _____    ______ ____
ROOT
ATOM      1  N   UNL     1       6.293   4.434  16.896  0.00  0.00    +0.000 N 
ATOM      2  C   UNL     1       5.046   4.457  17.560  0.00  0.00    +0.000 A 
ATOM      3  N   UNL     1       3.916   4.280  16.922  0.00  0.00    +0.000 NA
ATOM      4  N   UNL     1       2.829   4.476  17.752  0.00  0.00    +0.000 NA
ATOM      5  C   UNL     1       3.188   4.732  18.996  0.00  0.00    +0.000 A 
ATOM      6  S   UNL     1       4.891   4.668  19.247  0.00  0.00    +0.000 S 
ATOM      7  H   UNL     1       7.098   4.418  17.519  0.00  0.00    +0.000 HD
ENDROOT
BRANCH   1   9
ATOM      8  O   UNL     1       5.276   6.568  15.831  0.00  0.00    +0.000 OA
ATOM      9  S   UNL     1       6.464   5.744  15.844  0.00  0.00    +0.000 S 
ATOM     10  O   UNL     1       7.747   6.326  16.189  0.00  0.00    +0.000 OA
BRANCH   9  11
ATOM     11  C   UNL     1       6.642   4.994  14.245  0.00  0.00    +0.000 A 
ATOM     12  C   UNL     1       7.723   5.341  13.425  0.00  0.00    +0.000 A 
ATOM     13  C   UNL     1       7.951   4.651  12.231  0.00  0.00    +0.000 A 
ATOM     14  C   UNL     1       7.097   3.614  11.870  0.00  0.00    +0.000 A 
ATOM     15  F   UNL     1       7.334   2.933  10.738  0.00  0.00    +0.000 F 
ATOM     16  C   UNL     1       6.019   3.268  12.680  0.00  0.00    +0.000 A 
ATOM     17  F   UNL     1       5.209   2.261  12.327  0.00  0.00    +0.000 F 
ATOM     18  C   UNL     1       5.782   3.949  13.872  0.00  0.00    +0.000 A 
ENDBRANCH   9  11
ENDBRANCH   1   9
BRANCH   5  19
ATOM     19  C   UNL     1       2.139   5.054  20.095  0.00  0.00    +0.000 C 
ATOM     20  C   UNL     1       2.102   4.234  21.388  0.00  0.00    +0.000 C 
ATOM     21  C   UNL     1       1.061   4.001  20.346  0.00  0.00    +0.000 C 
BRANCH  19  22
ATOM     22  C   UNL     1       1.688   6.510  20.170  0.00  0.00    +0.000 A 
ATOM     23  C   UNL     1       0.974   7.011  21.271  0.00  0.00    +0.000 A 
ATOM     24  C   UNL     1       0.702   8.375  21.401  0.00  0.00    +0.000 A 
ATOM     25  C   UNL     1       1.130   9.270  20.424  0.00  0.00    +0.000 A 
ATOM     26  C   UNL     1       1.785   8.795  19.292  0.00  0.00    +0.000 A 
ATOM     27  C   UNL     1       2.043   7.429  19.163  0.00  0.00    +0.000 A 
ENDBRANCH  19  22
ENDBRANCH   5  19
TORSDOF 4
ENDMDL
MODEL 9
REMARK VINA RESULT:      -7.4      5.043      7.521
REMARK  Name = 
REMARK  4 active torsions:
REMARK  status: ('A' for Active; 'I' for Inactive)
REMARK    1  A    between atoms: S_2  and  N_4
REMARK    2  A    between atoms: S_2  and  C_19
REMARK    3  A    between atoms: C_8  and  C_9
REMARK    4  A    between atoms: C_9  and  C_10
REMARK                            x       y       z     vdW  Elec       q    Type
REMARK                         _______ _______ _______ _____ _____    ______ ____
ROOT
ATOM      1  N   UNL     1       1.445   7.918  17.710  0.00  0.00    +0.000 N 
ATOM      2  C   UNL     1       1.278   9.289  18.013  0.00  0.00    +0.000 A 
ATOM      3  N   UNL     1       2.233  10.164  17.823  0.00  0.00    +0.000 NA
ATOM      4  N   UNL     1       1.886  11.408  18.314  0.00  0.00    +0.000 NA
ATOM      5  C   UNL     1       0.658  11.431  18.796  0.00  0.00    +0.000 A 
ATOM      6  S   UNL     1      -0.184   9.941  18.605  0.00  0.00    +0.000 S 
ATOM      7  H   UNL     1       0.586   7.374  17.744  0.00  0.00    +0.000 HD
ENDROOT
BRANCH   1   9
ATOM      8  O   UNL     1       3.901   7.218  18.155  0.00  0.00    +0.000 OA
ATOM      9  S   UNL     1       2.575   7.187  18.730  0.00  0.00    +0.000 S 
ATOM     10  O   UNL     1       2.334   7.783  20.030  0.00  0.00    +0.000 OA
BRANCH   9  11
ATOM     11  C   UNL     1       2.044   5.495  18.822  0.00  0.00    +0.000 A 
ATOM     12  C   UNL     1       2.210   4.649  17.720  0.00  0.00    +0.000 A 
ATOM     13  C   UNL     1       1.929   3.284  17.831  0.00  0.00    +0.000 A 
ATOM     14  C   UNL     1       1.491   2.776  19.051  0.00  0.00    +0.000 A 
ATOM     15  F   UNL     1       1.251   1.461  19.165  0.00  0.00    +0.000 F 
ATOM     16  C   UNL     1       1.322   3.615  20.148  0.00  0.00    +0.000 A 
ATOM     17  F   UNL     1       0.910   3.113  21.320  0.00  0.00    +0.000 F 
ATOM     18  C   UNL     1       1.598   4.977  20.048  0.00  0.00    +0.000 A 
ENDBRANCH   9  11
ENDBRANCH   1   9
BRANCH   5  19
ATOM     19  C   UNL     1       0.071  12.705  19.464  0.00  0.00    +0.000 C 
ATOM     20  C   UNL     1      -0.127  13.982  18.643  0.00  0.00    +0.000 C 
ATOM     21  C   UNL     1       1.010  13.901  19.605  0.00  0.00    +0.000 C 
BRANCH  19  22
ATOM     22  C   UNL     1      -0.886  12.459  20.627  0.00  0.00    +0.000 A 
ATOM     23  C   UNL     1      -0.430  12.058  21.893  0.00  0.00    +0.000 A 
ATOM     24  C   UNL     1      -1.294  11.985  22.987  0.00  0.00    +0.000 A 
ATOM     25  C   UNL     1      -2.642  12.304  22.837  0.00  0.00    +0.000 A 
ATOM     26  C   UNL     1      -3.134  12.644  21.582  0.00  0.00    +0.000 A 
ATOM     27  C   UNL     1      -2.267  12.702  20.490  0.00  0.00    +0.000 A 
ENDBRANCH  19  22
ENDBRANCH   5  19
TORSDOF 4
ENDMDL
