MODEL 1
REMARK VINA RESULT:      -9.5      0.000      0.000
REMARK  Name = 
REMARK  7 active torsions:
REMARK  status: ('A' for Active; 'I' for Inactive)
REMARK    1  A    between atoms: C_1  and  C_2
REMARK    2  A    between atoms: C_7  and  C_8
REMARK    3  A    between atoms: C_8  and  N_9
REMARK    4  A    between atoms: N_9  and  C_10
REMARK    5  A    between atoms: C_15  and  C_16
REMARK    6  A    between atoms: N_18  and  C_19
REMARK    7  A    between atoms: C_19  and  C_20
REMARK                            x       y       z     vdW  Elec       q    Type
REMARK                         _______ _______ _______ _____ _____    ______ ____
ROOT
ATOM      1  C   UNL     1       2.683   5.064  20.101  0.00  0.00    +0.000 A 
ATOM      2  C   UNL     1       1.427   4.527  20.451  0.00  0.00    +0.000 A 
ATOM      3  C   UNL     1       1.142   3.164  20.325  0.00  0.00    +0.000 A 
ATOM      4  C   UNL     1       2.100   2.300  19.817  0.00  0.00    +0.000 A 
ATOM      5  C   UNL     1       3.339   2.805  19.423  0.00  0.00    +0.000 A 
ATOM      6  C   UNL     1       3.641   4.176  19.554  0.00  0.00    +0.000 A 
ENDROOT
BRANCH   6   7
ATOM      7  C   UNL     1       4.990   4.598  19.056  0.00  0.00    +0.000 C 
ATOM      8  O   UNL     1       5.719   5.273  19.782  0.00  0.00    +0.000 OA
ATOM      9  N   UNL     1       5.347   4.235  17.777  0.00  0.00    +0.000 N 
ATOM     10  H   UNL     1       4.648   3.788  17.193  0.00  0.00    +0.000 HD
BRANCH   9  11
ATOM     11  C   UNL     1       6.615   4.633  17.206  0.00  0.00    +0.000 C 
BRANCH  11  12
ATOM     12  C   UNL     1       6.591   4.525  15.722  0.00  0.00    +0.000 A 
ATOM     13  C   UNL     1       5.906   3.716  14.836  0.00  0.00    +0.000 A 
ATOM     14  C   UNL     1       6.400   4.021  13.543  0.00  0.00    +0.000 A 
ATOM     15  C   UNL     1       7.350   5.000  13.719  0.00  0.00    +0.000 A 
ATOM     16  O   UNL     1       7.470   5.315  15.035  0.00  0.00    +0.000 OA
ENDBRANCH  11  12
ENDBRANCH   9  11
ENDBRANCH   6   7
BRANCH   1  17
ATOM     17  N   UNL     1       2.925   6.452  20.138  0.00  0.00    +0.000 N 
ATOM     18  H   UNL     1       3.924   6.609  20.306  0.00  0.00    +0.000 HD
BRANCH  17  19
ATOM     19  C   UNL     1       2.519   7.272  18.994  0.00  0.00    +0.000 C 
BRANCH  19  26
ATOM     20  C   UNL     1      -1.601  12.573  23.093  0.00  0.00    +0.000 C 
ATOM     21  C   UNL     1      -0.891  11.423  22.451  0.00  0.00    +0.000 A 
ATOM     22  C   UNL     1      -0.694  10.197  23.192  0.00  0.00    +0.000 A 
ATOM     23  C   UNL     1      -0.071   9.155  22.634  0.00  0.00    +0.000 A 
ATOM     24  C   UNL     1       0.461   9.253  21.248  0.00  0.00    +0.000 A 
ATOM     25  N   UNL     1       1.116   8.248  20.751  0.00  0.00    +0.000 NA
ATOM     26  C   UNL     1       1.646   8.404  19.489  0.00  0.00    +0.000 A 
ATOM     27  C   UNL     1       1.472   9.498  18.741  0.00  0.00    +0.000 A 
ATOM     28  C   UNL     1       0.653  10.597  19.266  0.00  0.00    +0.000 A 
ATOM     29  O   UNL     1       0.420  11.562  18.541  0.00  0.00    +0.000 OA
ATOM     30  N   UNL     1       0.226  10.446  20.579  0.00  0.00    +0.000 N 
ATOM     31  C   UNL     1      -0.439  11.498  21.186  0.00  0.00    +0.000 A 
ENDBRANCH  19  26
ENDBRANCH  17  19
ENDBRANCH   1  17
TORSDOF 6
ENDMDL
MODEL 2
REMARK VINA RESULT:      -9.1      1.503      2.006
REMARK  Name = 
REMARK  7 active torsions:
REMARK  status: ('A' for Active; 'I' for Inactive)
REMARK    1  A    between atoms: C_1  and  C_2
REMARK    2  A    between atoms: C_7  and  C_8
REMARK    3  A    between atoms: C_8  and  N_9
REMARK    4  A    between atoms: N_9  and  C_10
REMARK    5  A    between atoms: C_15  and  C_16
REMARK    6  A    between atoms: N_18  and  C_19
REMARK    7  A    between atoms: C_19  and  C_20
REMARK                            x       y       z     vdW  Elec       q    Type
REMARK                         _______ _______ _______ _____ _____    ______ ____
ROOT
ATOM      1  C   UNL     1       2.654   5.097  19.832  0.00  0.00    +0.000 A 
ATOM      2  C   UNL     1       1.546   4.655  20.585  0.00  0.00    +0.000 A 
ATOM      3  C   UNL     1       1.123   3.323  20.570  0.00  0.00    +0.000 A 
ATOM      4  C   UNL     1       1.782   2.396  19.777  0.00  0.00    +0.000 A 
ATOM      5  C   UNL     1       2.855   2.809  18.988  0.00  0.00    +0.000 A 
ATOM      6  C   UNL     1       3.297   4.148  19.002  0.00  0.00    +0.000 A 
ENDROOT
BRANCH   6   7
ATOM      7  C   UNL     1       4.433   4.471  18.079  0.00  0.00    +0.000 C 
ATOM      8  O   UNL     1       4.199   4.996  16.992  0.00  0.00    +0.000 OA
ATOM      9  N   UNL     1       5.705   4.131  18.481  0.00  0.00    +0.000 N 
ATOM     10  H   UNL     1       5.810   3.589  19.333  0.00  0.00    +0.000 HD
BRANCH   9  11
ATOM     11  C   UNL     1       6.853   4.374  17.636  0.00  0.00    +0.000 C 
BRANCH  11  12
ATOM     12  C   UNL     1       7.387   5.748  17.840  0.00  0.00    +0.000 A 
ATOM     13  C   UNL     1       8.038   6.372  18.888  0.00  0.00    +0.000 A 
ATOM     14  C   UNL     1       8.191   7.731  18.518  0.00  0.00    +0.000 A 
ATOM     15  C   UNL     1       7.630   7.852  17.269  0.00  0.00    +0.000 A 
ATOM     16  O   UNL     1       7.144   6.656  16.847  0.00  0.00    +0.000 OA
ENDBRANCH  11  12
ENDBRANCH   9  11
ENDBRANCH   6   7
BRANCH   1  17
ATOM     17  N   UNL     1       3.009   6.460  19.778  0.00  0.00    +0.000 N 
ATOM     18  H   UNL     1       4.031   6.536  19.791  0.00  0.00    +0.000 HD
BRANCH  17  19
ATOM     19  C   UNL     1       2.503   7.280  18.674  0.00  0.00    +0.000 C 
BRANCH  19  26
ATOM     20  C   UNL     1      -1.347  12.502  23.121  0.00  0.00    +0.000 C 
ATOM     21  C   UNL     1      -0.690  11.363  22.407  0.00  0.00    +0.000 A 
ATOM     22  C   UNL     1      -0.521  10.095  23.082  0.00  0.00    +0.000 A 
ATOM     23  C   UNL     1       0.054   9.062  22.459  0.00  0.00    +0.000 A 
ATOM     24  C   UNL     1       0.561   9.212  21.068  0.00  0.00    +0.000 A 
ATOM     25  N   UNL     1       1.171   8.213  20.508  0.00  0.00    +0.000 NA
ATOM     26  C   UNL     1       1.680   8.414  19.243  0.00  0.00    +0.000 A 
ATOM     27  C   UNL     1       1.529   9.549  18.556  0.00  0.00    +0.000 A 
ATOM     28  C   UNL     1       0.759  10.648  19.152  0.00  0.00    +0.000 A 
ATOM     29  O   UNL     1       0.546  11.655  18.482  0.00  0.00    +0.000 OA
ATOM     30  N   UNL     1       0.354  10.445  20.465  0.00  0.00    +0.000 N 
ATOM     31  C   UNL     1      -0.262  11.486  21.138  0.00  0.00    +0.000 A 
ENDBRANCH  19  26
ENDBRANCH  17  19
ENDBRANCH   1  17
TORSDOF 6
ENDMDL
MODEL 3
REMARK VINA RESULT:      -8.9      1.524      2.016
REMARK  Name = 
REMARK  7 active torsions:
REMARK  status: ('A' for Active; 'I' for Inactive)
REMARK    1  A    between atoms: C_1  and  C_2
REMARK    2  A    between atoms: C_7  and  C_8
REMARK    3  A    between atoms: C_8  and  N_9
REMARK    4  A    between atoms: N_9  and  C_10
REMARK    5  A    between atoms: C_15  and  C_16
REMARK    6  A    between atoms: N_18  and  C_19
REMARK    7  A    between atoms: C_19  and  C_20
REMARK                            x       y       z     vdW  Elec       q    Type
REMARK                         _______ _______ _______ _____ _____    ______ ____
ROOT
ATOM      1  C   UNL     1       2.406   5.548  20.147  0.00  0.00    +0.000 A 
ATOM      2  C   UNL     1       1.262   4.910  20.669  0.00  0.00    +0.000 A 
ATOM      3  C   UNL     1       0.982   3.564  20.413  0.00  0.00    +0.000 A 
ATOM      4  C   UNL     1       1.830   2.823  19.604  0.00  0.00    +0.000 A 
ATOM      5  C   UNL     1       2.948   3.435  19.039  0.00  0.00    +0.000 A 
ATOM      6  C   UNL     1       3.245   4.789  19.296  0.00  0.00    +0.000 A 
ENDROOT
BRANCH   6   7
ATOM      7  C   UNL     1       4.451   5.338  18.597  0.00  0.00    +0.000 C 
ATOM      8  O   UNL     1       5.548   5.284  19.150  0.00  0.00    +0.000 OA
ATOM      9  N   UNL     1       4.271   5.917  17.362  0.00  0.00    +0.000 N 
ATOM     10  H   UNL     1       3.321   6.038  17.023  0.00  0.00    +0.000 HD
BRANCH   9  11
ATOM     11  C   UNL     1       5.375   6.504  16.636  0.00  0.00    +0.000 C 
BRANCH  11  12
ATOM     12  C   UNL     1       5.857   5.591  15.564  0.00  0.00    +0.000 A 
ATOM     13  C   UNL     1       5.309   4.491  14.931  0.00  0.00    +0.000 A 
ATOM     14  C   UNL     1       6.310   3.978  14.069  0.00  0.00    +0.000 A 
ATOM     15  C   UNL     1       7.404   4.797  14.225  0.00  0.00    +0.000 A 
ATOM     16  O   UNL     1       7.138   5.780  15.125  0.00  0.00    +0.000 OA
ENDBRANCH  11  12
ENDBRANCH   9  11
ENDBRANCH   6   7
BRANCH   1  17
ATOM     17  N   UNL     1       2.624   6.929  20.329  0.00  0.00    +0.000 N 
ATOM     18  H   UNL     1       3.617   7.129  20.178  0.00  0.00    +0.000 HD
BRANCH  17  19
ATOM     19  C   UNL     1       1.840   7.879  19.536  0.00  0.00    +0.000 C 
BRANCH  19  26
ATOM     20  C   UNL     1      -2.933  13.015  23.103  0.00  0.00    +0.000 C 
ATOM     21  C   UNL     1      -2.039  12.164  22.256  0.00  0.00    +0.000 A 
ATOM     22  C   UNL     1      -2.057  12.315  20.818  0.00  0.00    +0.000 A 
ATOM     23  C   UNL     1      -1.259  11.572  20.044  0.00  0.00    +0.000 A 
ATOM     24  C   UNL     1      -0.364  10.551  20.652  0.00  0.00    +0.000 A 
ATOM     25  N   UNL     1       0.355   9.801  19.874  0.00  0.00    +0.000 NA
ATOM     26  C   UNL     1       1.123   8.826  20.473  0.00  0.00    +0.000 A 
ATOM     27  C   UNL     1       1.206   8.657  21.796  0.00  0.00    +0.000 A 
ATOM     28  C   UNL     1       0.466   9.566  22.679  0.00  0.00    +0.000 A 
ATOM     29  O   UNL     1       0.617   9.465  23.895  0.00  0.00    +0.000 OA
ATOM     30  N   UNL     1      -0.376  10.464  22.037  0.00  0.00    +0.000 N 
ATOM     31  C   UNL     1      -1.204  11.264  22.806  0.00  0.00    +0.000 A 
ENDBRANCH  19  26
ENDBRANCH  17  19
ENDBRANCH   1  17
TORSDOF 6
ENDMDL
MODEL 4
REMARK VINA RESULT:      -8.9      1.336      1.904
REMARK  Name = 
REMARK  7 active torsions:
REMARK  status: ('A' for Active; 'I' for Inactive)
REMARK    1  A    between atoms: C_1  and  C_2
REMARK    2  A    between atoms: C_7  and  C_8
REMARK    3  A    between atoms: C_8  and  N_9
REMARK    4  A    between atoms: N_9  and  C_10
REMARK    5  A    between atoms: C_15  and  C_16
REMARK    6  A    between atoms: N_18  and  C_19
REMARK    7  A    between atoms: C_19  and  C_20
REMARK                            x       y       z     vdW  Elec       q    Type
REMARK                         _______ _______ _______ _____ _____    ______ ____
ROOT
ATOM      1  C   UNL     1       2.546   4.577  19.781  0.00  0.00    +0.000 A 
ATOM      2  C   UNL     1       1.240   4.097  20.010  0.00  0.00    +0.000 A 
ATOM      3  C   UNL     1       0.840   2.818  19.616  0.00  0.00    +0.000 A 
ATOM      4  C   UNL     1       1.732   1.987  18.954  0.00  0.00    +0.000 A 
ATOM      5  C   UNL     1       3.018   2.446  18.675  0.00  0.00    +0.000 A 
ATOM      6  C   UNL     1       3.436   3.731  19.076  0.00  0.00    +0.000 A 
ENDROOT
BRANCH   6   7
ATOM      7  C   UNL     1       4.829   4.119  18.680  0.00  0.00    +0.000 C 
ATOM      8  O   UNL     1       5.701   4.205  19.543  0.00  0.00    +0.000 OA
ATOM      9  N   UNL     1       5.066   4.398  17.354  0.00  0.00    +0.000 N 
ATOM     10  H   UNL     1       4.273   4.428  16.720  0.00  0.00    +0.000 HD
BRANCH   9  11
ATOM     11  C   UNL     1       6.372   4.816  16.893  0.00  0.00    +0.000 C 
BRANCH  11  12
ATOM     12  C   UNL     1       6.503   4.637  15.421  0.00  0.00    +0.000 A 
ATOM     13  C   UNL     1       5.878   3.817  14.501  0.00  0.00    +0.000 A 
ATOM     14  C   UNL     1       6.523   4.037  13.258  0.00  0.00    +0.000 A 
ATOM     15  C   UNL     1       7.497   4.978  13.495  0.00  0.00    +0.000 A 
ATOM     16  O   UNL     1       7.490   5.352  14.802  0.00  0.00    +0.000 OA
ENDBRANCH  11  12
ENDBRANCH   9  11
ENDBRANCH   6   7
BRANCH   1  17
ATOM     17  N   UNL     1       2.907   5.903  20.094  0.00  0.00    +0.000 N 
ATOM     18  H   UNL     1       3.900   5.924  20.349  0.00  0.00    +0.000 HD
BRANCH  17  19
ATOM     19  C   UNL     1       2.669   6.954  19.101  0.00  0.00    +0.000 C 
BRANCH  19  26
ATOM     20  C   UNL     1      -2.292  12.777  20.932  0.00  0.00    +0.000 C 
ATOM     21  C   UNL     1      -1.321  11.771  20.401  0.00  0.00    +0.000 A 
ATOM     22  C   UNL     1      -1.051  11.713  18.982  0.00  0.00    +0.000 A 
ATOM     23  C   UNL     1      -0.179  10.829  18.488  0.00  0.00    +0.000 A 
ATOM     24  C   UNL     1       0.503   9.863  19.392  0.00  0.00    +0.000 A 
ATOM     25  N   UNL     1       1.298   8.974  18.879  0.00  0.00    +0.000 NA
ATOM     26  C   UNL     1       1.860   8.060  19.743  0.00  0.00    +0.000 A 
ATOM     27  C   UNL     1       1.675   8.079  21.066  0.00  0.00    +0.000 A 
ATOM     28  C   UNL     1       0.851   9.141  21.656  0.00  0.00    +0.000 A 
ATOM     29  O   UNL     1       0.758   9.209  22.879  0.00  0.00    +0.000 OA
ATOM     30  N   UNL     1       0.219   9.977  20.745  0.00  0.00    +0.000 N 
ATOM     31  C   UNL     1      -0.677  10.920  21.221  0.00  0.00    +0.000 A 
ENDBRANCH  19  26
ENDBRANCH  17  19
ENDBRANCH   1  17
TORSDOF 6
ENDMDL
MODEL 5
REMARK VINA RESULT:      -8.8      1.837      2.631
REMARK  Name = 
REMARK  7 active torsions:
REMARK  status: ('A' for Active; 'I' for Inactive)
REMARK    1  A    between atoms: C_1  and  C_2
REMARK    2  A    between atoms: C_7  and  C_8
REMARK    3  A    between atoms: C_8  and  N_9
REMARK    4  A    between atoms: N_9  and  C_10
REMARK    5  A    between atoms: C_15  and  C_16
REMARK    6  A    between atoms: N_18  and  C_19
REMARK    7  A    between atoms: C_19  and  C_20
REMARK                            x       y       z     vdW  Elec       q    Type
REMARK                         _______ _______ _______ _____ _____    ______ ____
ROOT
ATOM      1  C   UNL     1       2.467   5.160  19.805  0.00  0.00    +0.000 A 
ATOM      2  C   UNL     1       1.383   4.636  20.540  0.00  0.00    +0.000 A 
ATOM      3  C   UNL     1       0.941   3.320  20.374  0.00  0.00    +0.000 A 
ATOM      4  C   UNL     1       1.557   2.495  19.445  0.00  0.00    +0.000 A 
ATOM      5  C   UNL     1       2.605   2.994  18.673  0.00  0.00    +0.000 A 
ATOM      6  C   UNL     1       3.065   4.317  18.837  0.00  0.00    +0.000 A 
ENDROOT
BRANCH   6   7
ATOM      7  C   UNL     1       4.170   4.744  17.919  0.00  0.00    +0.000 C 
ATOM      8  O   UNL     1       3.955   5.617  17.080  0.00  0.00    +0.000 OA
ATOM      9  N   UNL     1       5.385   4.108  18.034  0.00  0.00    +0.000 N 
ATOM     10  H   UNL     1       5.452   3.313  18.662  0.00  0.00    +0.000 HD
BRANCH   9  11
ATOM     11  C   UNL     1       6.492   4.433  17.163  0.00  0.00    +0.000 C 
BRANCH  11  12
ATOM     12  C   UNL     1       7.169   5.684  17.602  0.00  0.00    +0.000 A 
ATOM     13  C   UNL     1       7.839   6.051  18.754  0.00  0.00    +0.000 A 
ATOM     14  C   UNL     1       8.162   7.424  18.615  0.00  0.00    +0.000 A 
ATOM     15  C   UNL     1       7.674   7.808  17.387  0.00  0.00    +0.000 A 
ATOM     16  O   UNL     1       7.075   6.760  16.764  0.00  0.00    +0.000 OA
ENDBRANCH  11  12
ENDBRANCH   9  11
ENDBRANCH   6   7
BRANCH   1  17
ATOM     17  N   UNL     1       2.838   6.515  19.909  0.00  0.00    +0.000 N 
ATOM     18  H   UNL     1       3.851   6.592  19.775  0.00  0.00    +0.000 HD
BRANCH  17  19
ATOM     19  C   UNL     1       2.187   7.496  19.036  0.00  0.00    +0.000 C 
BRANCH  19  26
ATOM     20  C   UNL     1      -2.447  13.041  22.145  0.00  0.00    +0.000 C 
ATOM     21  C   UNL     1      -1.568  12.103  21.379  0.00  0.00    +0.000 A 
ATOM     22  C   UNL     1      -1.530  12.174  19.935  0.00  0.00    +0.000 A 
ATOM     23  C   UNL     1      -0.744  11.352  19.232  0.00  0.00    +0.000 A 
ATOM     24  C   UNL     1       0.080  10.326  19.926  0.00  0.00    +0.000 A 
ATOM     25  N   UNL     1       0.786   9.501  19.216  0.00  0.00    +0.000 NA
ATOM     26  C   UNL     1       1.486   8.526  19.895  0.00  0.00    +0.000 A 
ATOM     27  C   UNL     1       1.517   8.427  21.227  0.00  0.00    +0.000 A 
ATOM     28  C   UNL     1       0.792   9.418  22.032  0.00  0.00    +0.000 A 
ATOM     29  O   UNL     1       0.897   9.379  23.256  0.00  0.00    +0.000 OA
ATOM     30  N   UNL     1       0.017  10.317  21.312  0.00  0.00    +0.000 N 
ATOM     31  C   UNL     1      -0.796  11.197  22.006  0.00  0.00    +0.000 A 
ENDBRANCH  19  26
ENDBRANCH  17  19
ENDBRANCH   1  17
TORSDOF 6
ENDMDL
MODEL 6
REMARK VINA RESULT:      -8.8      1.518      2.020
REMARK  Name = 
REMARK  7 active torsions:
REMARK  status: ('A' for Active; 'I' for Inactive)
REMARK    1  A    between atoms: C_1  and  C_2
REMARK    2  A    between atoms: C_7  and  C_8
REMARK    3  A    between atoms: C_8  and  N_9
REMARK    4  A    between atoms: N_9  and  C_10
REMARK    5  A    between atoms: C_15  and  C_16
REMARK    6  A    between atoms: N_18  and  C_19
REMARK    7  A    between atoms: C_19  and  C_20
REMARK                            x       y       z     vdW  Elec       q    Type
REMARK                         _______ _______ _______ _____ _____    ______ ____
ROOT
ATOM      1  C   UNL     1       2.434   5.216  20.127  0.00  0.00    +0.000 A 
ATOM      2  C   UNL     1       1.237   4.598  20.547  0.00  0.00    +0.000 A 
ATOM      3  C   UNL     1       0.942   3.267  20.237  0.00  0.00    +0.000 A 
ATOM      4  C   UNL     1       1.827   2.522  19.473  0.00  0.00    +0.000 A 
ATOM      5  C   UNL     1       2.999   3.115  19.007  0.00  0.00    +0.000 A 
ATOM      6  C   UNL     1       3.313   4.454  19.320  0.00  0.00    +0.000 A 
ENDROOT
BRANCH   6   7
ATOM      7  C   UNL     1       4.581   4.985  18.725  0.00  0.00    +0.000 C 
ATOM      8  O   UNL     1       4.617   6.142  18.311  0.00  0.00    +0.000 OA
ATOM      9  N   UNL     1       5.657   4.131  18.637  0.00  0.00    +0.000 N 
ATOM     10  H   UNL     1       5.517   3.156  18.883  0.00  0.00    +0.000 HD
BRANCH   9  11
ATOM     11  C   UNL     1       6.907   4.551  18.043  0.00  0.00    +0.000 C 
BRANCH  11  12
ATOM     12  C   UNL     1       6.829   4.523  16.557  0.00  0.00    +0.000 A 
ATOM     13  C   UNL     1       7.374   5.308  15.559  0.00  0.00    +0.000 A 
ATOM     14  C   UNL     1       6.836   4.840  14.334  0.00  0.00    +0.000 A 
ATOM     15  C   UNL     1       6.000   3.797  14.660  0.00  0.00    +0.000 A 
ATOM     16  O   UNL     1       5.992   3.595  16.003  0.00  0.00    +0.000 OA
ENDBRANCH  11  12
ENDBRANCH   9  11
ENDBRANCH   6   7
BRANCH   1  17
ATOM     17  N   UNL     1       2.674   6.585  20.360  0.00  0.00    +0.000 N 
ATOM     18  H   UNL     1       3.684   6.754  20.328  0.00  0.00    +0.000 HD
BRANCH  17  19
ATOM     19  C   UNL     1       2.018   7.575  19.500  0.00  0.00    +0.000 C 
BRANCH  19  26
ATOM     20  C   UNL     1      -2.672  13.009  22.718  0.00  0.00    +0.000 C 
ATOM     21  C   UNL     1      -1.793  12.090  21.929  0.00  0.00    +0.000 A 
ATOM     22  C   UNL     1      -1.810  12.145  20.484  0.00  0.00    +0.000 A 
ATOM     23  C   UNL     1      -1.025  11.340  19.762  0.00  0.00    +0.000 A 
ATOM     24  C   UNL     1      -0.144  10.348  20.436  0.00  0.00    +0.000 A 
ATOM     25  N   UNL     1       0.562   9.537  19.710  0.00  0.00    +0.000 NA
ATOM     26  C   UNL     1       1.316   8.592  20.373  0.00  0.00    +0.000 A 
ATOM     27  C   UNL     1       1.399   8.511  21.704  0.00  0.00    +0.000 A 
ATOM     28  C   UNL     1       0.673   9.488  22.525  0.00  0.00    +0.000 A 
ATOM     29  O   UNL     1       0.824   9.466  23.744  0.00  0.00    +0.000 OA
ATOM     30  N   UNL     1      -0.155  10.354  21.824  0.00  0.00    +0.000 N 
ATOM     31  C   UNL     1      -0.970  11.216  22.538  0.00  0.00    +0.000 A 
ENDBRANCH  19  26
ENDBRANCH  17  19
ENDBRANCH   1  17
TORSDOF 6
ENDMDL
MODEL 7
REMARK VINA RESULT:      -8.7      1.116      1.197
REMARK  Name = 
REMARK  7 active torsions:
REMARK  status: ('A' for Active; 'I' for Inactive)
REMARK    1  A    between atoms: C_1  and  C_2
REMARK    2  A    between atoms: C_7  and  C_8
REMARK    3  A    between atoms: C_8  and  N_9
REMARK    4  A    between atoms: N_9  and  C_10
REMARK    5  A    between atoms: C_15  and  C_16
REMARK    6  A    between atoms: N_18  and  C_19
REMARK    7  A    between atoms: C_19  and  C_20
REMARK                            x       y       z     vdW  Elec       q    Type
REMARK                         _______ _______ _______ _____ _____    ______ ____
ROOT
ATOM      1  C   UNL     1       2.526   4.640  18.628  0.00  0.00    +0.000 A 
ATOM      2  C   UNL     1       1.304   3.967  18.836  0.00  0.00    +0.000 A 
ATOM      3  C   UNL     1       1.158   2.600  18.583  0.00  0.00    +0.000 A 
ATOM      4  C   UNL     1       2.227   1.870  18.086  0.00  0.00    +0.000 A 
ATOM      5  C   UNL     1       3.437   2.514  17.830  0.00  0.00    +0.000 A 
ATOM      6  C   UNL     1       3.600   3.890  18.090  0.00  0.00    +0.000 A 
ENDROOT
BRANCH   6   7
ATOM      7  C   UNL     1       4.934   4.470  17.734  0.00  0.00    +0.000 C 
ATOM      8  O   UNL     1       5.624   4.985  18.612  0.00  0.00    +0.000 OA
ATOM      9  N   UNL     1       5.322   4.429  16.414  0.00  0.00    +0.000 N 
ATOM     10  H   UNL     1       4.650   4.102  15.727  0.00  0.00    +0.000 HD
BRANCH   9  11
ATOM     11  C   UNL     1       6.578   4.999  15.979  0.00  0.00    +0.000 C 
BRANCH  11  12
ATOM     12  C   UNL     1       6.785   4.788  14.520  0.00  0.00    +0.000 A 
ATOM     13  C   UNL     1       6.228   3.929  13.593  0.00  0.00    +0.000 A 
ATOM     14  C   UNL     1       6.926   4.136  12.377  0.00  0.00    +0.000 A 
ATOM     15  C   UNL     1       7.861   5.110  12.636  0.00  0.00    +0.000 A 
ATOM     16  O   UNL     1       7.781   5.515  13.930  0.00  0.00    +0.000 OA
ENDBRANCH  11  12
ENDBRANCH   9  11
ENDBRANCH   6   7
BRANCH   1  17
ATOM     17  N   UNL     1       2.633   6.036  18.793  0.00  0.00    +0.000 N 
ATOM     18  H   UNL     1       1.857   6.487  18.297  0.00  0.00    +0.000 HD
BRANCH  17  19
ATOM     19  C   UNL     1       2.690   6.586  20.150  0.00  0.00    +0.000 C 
BRANCH  19  26
ATOM     20  C   UNL     1      -1.772  12.718  22.238  0.00  0.00    +0.000 C 
ATOM     21  C   UNL     1      -1.000  11.456  22.012  0.00  0.00    +0.000 A 
ATOM     22  C   UNL     1      -0.811  10.526  23.103  0.00  0.00    +0.000 A 
ATOM     23  C   UNL     1      -0.134   9.388  22.920  0.00  0.00    +0.000 A 
ATOM     24  C   UNL     1       0.468   9.078  21.594  0.00  0.00    +0.000 A 
ATOM     25  N   UNL     1       1.173   7.997  21.460  0.00  0.00    +0.000 NA
ATOM     26  C   UNL     1       1.764   7.779  20.234  0.00  0.00    +0.000 A 
ATOM     27  C   UNL     1       1.602   8.583  19.179  0.00  0.00    +0.000 A 
ATOM     28  C   UNL     1       0.729   9.757  19.305  0.00  0.00    +0.000 A 
ATOM     29  O   UNL     1       0.511  10.442  18.309  0.00  0.00    +0.000 OA
ATOM     30  N   UNL     1       0.238   9.998  20.581  0.00  0.00    +0.000 N 
ATOM     31  C   UNL     1      -0.485  11.158  20.805  0.00  0.00    +0.000 A 
ENDBRANCH  19  26
ENDBRANCH  17  19
ENDBRANCH   1  17
TORSDOF 6
ENDMDL
MODEL 8
REMARK VINA RESULT:      -8.6      1.515      2.107
REMARK  Name = 
REMARK  7 active torsions:
REMARK  status: ('A' for Active; 'I' for Inactive)
REMARK    1  A    between atoms: C_1  and  C_2
REMARK    2  A    between atoms: C_7  and  C_8
REMARK    3  A    between atoms: C_8  and  N_9
REMARK    4  A    between atoms: N_9  and  C_10
REMARK    5  A    between atoms: C_15  and  C_16
REMARK    6  A    between atoms: N_18  and  C_19
REMARK    7  A    between atoms: C_19  and  C_20
REMARK                            x       y       z     vdW  Elec       q    Type
REMARK                         _______ _______ _______ _____ _____    ______ ____
ROOT
ATOM      1  C   UNL     1       2.200   4.701  19.238  0.00  0.00    +0.000 A 
ATOM      2  C   UNL     1       1.116   4.013  19.822  0.00  0.00    +0.000 A 
ATOM      3  C   UNL     1       0.815   2.688  19.495  0.00  0.00    +0.000 A 
ATOM      4  C   UNL     1       1.577   2.019  18.550  0.00  0.00    +0.000 A 
ATOM      5  C   UNL     1       2.631   2.683  17.923  0.00  0.00    +0.000 A 
ATOM      6  C   UNL     1       2.950   4.016  18.251  0.00  0.00    +0.000 A 
ENDROOT
BRANCH   6   7
ATOM      7  C   UNL     1       4.077   4.629  17.477  0.00  0.00    +0.000 C 
ATOM      8  O   UNL     1       3.949   5.761  17.014  0.00  0.00    +0.000 OA
ATOM      9  N   UNL     1       5.212   3.873  17.288  0.00  0.00    +0.000 N 
ATOM     10  H   UNL     1       5.200   2.904  17.590  0.00  0.00    +0.000 HD
BRANCH   9  11
ATOM     11  C   UNL     1       6.332   4.374  16.522  0.00  0.00    +0.000 C 
BRANCH  11  12
ATOM     12  C   UNL     1       7.040   5.459  17.255  0.00  0.00    +0.000 A 
ATOM     13  C   UNL     1       7.648   5.533  18.494  0.00  0.00    +0.000 A 
ATOM     14  C   UNL     1       8.047   6.881  18.670  0.00  0.00    +0.000 A 
ATOM     15  C   UNL     1       7.663   7.545  17.528  0.00  0.00    +0.000 A 
ATOM     16  O   UNL     1       7.056   6.691  16.663  0.00  0.00    +0.000 OA
ENDBRANCH  11  12
ENDBRANCH   9  11
ENDBRANCH   6   7
BRANCH   1  17
ATOM     17  N   UNL     1       2.432   6.066  19.502  0.00  0.00    +0.000 N 
ATOM     18  H   UNL     1       1.912   6.627  18.820  0.00  0.00    +0.000 HD
BRANCH  17  19
ATOM     19  C   UNL     1       2.141   6.587  20.840  0.00  0.00    +0.000 C 
BRANCH  19  26
ATOM     20  C   UNL     1      -1.606  13.434  21.817  0.00  0.00    +0.000 C 
ATOM     21  C   UNL     1      -1.005  12.064  21.796  0.00  0.00    +0.000 A 
ATOM     22  C   UNL     1      -1.095  11.223  22.970  0.00  0.00    +0.000 A 
ATOM     23  C   UNL     1      -0.574   9.993  22.969  0.00  0.00    +0.000 A 
ATOM     24  C   UNL     1       0.140   9.481  21.768  0.00  0.00    +0.000 A 
ATOM     25  N   UNL     1       0.691   8.307  21.815  0.00  0.00    +0.000 NA
ATOM     26  C   UNL     1       1.396   7.897  20.704  0.00  0.00    +0.000 A 
ATOM     27  C   UNL     1       1.490   8.613  19.580  0.00  0.00    +0.000 A 
ATOM     28  C   UNL     1       0.789   9.900  19.493  0.00  0.00    +0.000 A 
ATOM     29  O   UNL     1       0.803  10.512  18.428  0.00  0.00    +0.000 OA
ATOM     30  N   UNL     1       0.180  10.324  20.666  0.00  0.00    +0.000 N 
ATOM     31  C   UNL     1      -0.389  11.586  20.700  0.00  0.00    +0.000 A 
ENDBRANCH  19  26
ENDBRANCH  17  19
ENDBRANCH   1  17
TORSDOF 6
ENDMDL
MODEL 9
REMARK VINA RESULT:      -8.6      1.550      4.592
REMARK  Name = 
REMARK  7 active torsions:
REMARK  status: ('A' for Active; 'I' for Inactive)
REMARK    1  A    between atoms: C_1  and  C_2
REMARK    2  A    between atoms: C_7  and  C_8
REMARK    3  A    between atoms: C_8  and  N_9
REMARK    4  A    between atoms: N_9  and  C_10
REMARK    5  A    between atoms: C_15  and  C_16
REMARK    6  A    between atoms: N_18  and  C_19
REMARK    7  A    between atoms: C_19  and  C_20
REMARK                            x       y       z     vdW  Elec       q    Type
REMARK                         _______ _______ _______ _____ _____    ______ ____
ROOT
ATOM      1  C   UNL     1       5.015   5.823  16.662  0.00  0.00    +0.000 A 
ATOM      2  C   UNL     1       5.295   6.226  15.339  0.00  0.00    +0.000 A 
ATOM      3  C   UNL     1       5.998   5.410  14.449  0.00  0.00    +0.000 A 
ATOM      4  C   UNL     1       6.467   4.173  14.865  0.00  0.00    +0.000 A 
ATOM      5  C   UNL     1       6.243   3.762  16.178  0.00  0.00    +0.000 A 
ATOM      6  C   UNL     1       5.527   4.572  17.084  0.00  0.00    +0.000 A 
ENDROOT
BRANCH   6   7
ATOM      7  C   UNL     1       5.390   4.035  18.475  0.00  0.00    +0.000 C 
ATOM      8  O   UNL     1       5.989   4.584  19.398  0.00  0.00    +0.000 OA
ATOM      9  N   UNL     1       4.614   2.912  18.658  0.00  0.00    +0.000 N 
ATOM     10  H   UNL     1       4.252   2.440  17.835  0.00  0.00    +0.000 HD
BRANCH   9  11
ATOM     11  C   UNL     1       4.458   2.307  19.962  0.00  0.00    +0.000 C 
BRANCH  11  12
ATOM     12  C   UNL     1       3.080   2.510  20.486  0.00  0.00    +0.000 A 
ATOM     13  C   UNL     1       1.876   2.847  19.896  0.00  0.00    +0.000 A 
ATOM     14  C   UNL     1       0.938   2.999  20.947  0.00  0.00    +0.000 A 
ATOM     15  C   UNL     1       1.624   2.742  22.111  0.00  0.00    +0.000 A 
ATOM     16  O   UNL     1       2.922   2.441  21.842  0.00  0.00    +0.000 OA
ENDBRANCH  11  12
ENDBRANCH   9  11
ENDBRANCH   6   7
BRANCH   1  17
ATOM     17  N   UNL     1       4.394   6.694  17.579  0.00  0.00    +0.000 N 
ATOM     18  H   UNL     1       4.169   7.573  17.100  0.00  0.00    +0.000 HD
BRANCH  17  19
ATOM     19  C   UNL     1       3.193   6.239  18.285  0.00  0.00    +0.000 C 
BRANCH  19  26
ATOM     20  C   UNL     1      -0.524  11.949  22.217  0.00  0.00    +0.000 C 
ATOM     21  C   UNL     1       0.099  10.731  21.610  0.00  0.00    +0.000 A 
ATOM     22  C   UNL     1       0.200   9.514  22.385  0.00  0.00    +0.000 A 
ATOM     23  C   UNL     1       0.743   8.412  21.859  0.00  0.00    +0.000 A 
ATOM     24  C   UNL     1       1.285   8.432  20.473  0.00  0.00    +0.000 A 
ATOM     25  N   UNL     1       1.863   7.367  20.008  0.00  0.00    +0.000 NA
ATOM     26  C   UNL     1       2.407   7.447  18.744  0.00  0.00    +0.000 A 
ATOM     27  C   UNL     1       2.320   8.530  17.966  0.00  0.00    +0.000 A 
ATOM     28  C   UNL     1       1.585   9.703  18.457  0.00  0.00    +0.000 A 
ATOM     29  O   UNL     1       1.429  10.662  17.705  0.00  0.00    +0.000 OA
ATOM     30  N   UNL     1       1.144   9.621  19.771  0.00  0.00    +0.000 N 
ATOM     31  C   UNL     1       0.559  10.736  20.345  0.00  0.00    +0.000 A 
ENDBRANCH  19  26
ENDBRANCH  17  19
ENDBRANCH   1  17
TORSDOF 6
ENDMDL
