MODEL 1
REMARK VINA RESULT:      -7.8      0.000      0.000
REMARK  Name = 
REMARK  6 active torsions:
REMARK  status: ('A' for Active; 'I' for Inactive)
REMARK    1  A    between atoms: C_1  and  C_2
REMARK    2  A    between atoms: N_4  and  C_5
REMARK    3  A    between atoms: C_5  and  C_6
REMARK    4  A    between atoms: C_5  and  C_24
REMARK    5  A    between atoms: C_6  and  C_7
REMARK    6  A    between atoms: C_12  and  C_13
REMARK                            x       y       z     vdW  Elec       q    Type
REMARK                         _______ _______ _______ _____ _____    ______ ____
ROOT
ATOM      1  C   UNL     1       1.881   7.831  19.801  0.00  0.00    +0.000 C 
ATOM      2  O   UNL     1       2.139   7.225  20.841  0.00  0.00    +0.000 OA
ATOM      3  N   UNL     1       0.810   8.719  19.680  0.00  0.00    +0.000 N 
ATOM      4  C   UNL     1       0.450   9.417  18.445  0.00  0.00    +0.000 C 
ATOM      5  C   UNL     1       0.894  10.875  18.525  0.00  0.00    +0.000 C 
ATOM      6  C   UNL     1       0.334  11.566  19.779  0.00  0.00    +0.000 C 
ATOM      7  C   UNL     1       0.613  10.732  21.043  0.00  0.00    +0.000 C 
ATOM      8  C   UNL     1       0.192   9.268  20.881  0.00  0.00    +0.000 C 
ENDROOT
BRANCH   6   9
ATOM      9  C   UNL     1      -1.126  11.856  19.623  0.00  0.00    +0.000 A 
ATOM     10  N   UNL     1      -1.959  12.397  20.493  0.00  0.00    +0.000 NA
ATOM     11  C   UNL     1      -3.165  12.380  19.847  0.00  0.00    +0.000 A 
ATOM     12  C   UNL     1      -4.435  12.805  20.256  0.00  0.00    +0.000 A 
ATOM     13  C   UNL     1      -5.501  12.646  19.359  0.00  0.00    +0.000 A 
ATOM     14  C   UNL     1      -5.304  12.082  18.092  0.00  0.00    +0.000 A 
ATOM     15  C   UNL     1      -4.038  11.657  17.669  0.00  0.00    +0.000 A 
ATOM     16  C   UNL     1      -3.010  11.828  18.586  0.00  0.00    +0.000 A 
ATOM     17  O   UNL     1      -1.697  11.493  18.431  0.00  0.00    +0.000 OA
ENDBRANCH   6   9
BRANCH   1  18
ATOM     18  C   UNL     1       2.703   7.670  18.541  0.00  0.00    +0.000 C 
BRANCH  18  19
ATOM     19  C   UNL     1       3.045   6.242  18.125  0.00  0.00    +0.000 C 
BRANCH  19  20
ATOM     20  C   UNL     1       4.567   6.113  18.100  0.00  0.00    +0.000 A 
ATOM     21  C   UNL     1       5.325   6.762  17.116  0.00  0.00    +0.000 A 
ATOM     22  C   UNL     1       6.723   6.713  17.150  0.00  0.00    +0.000 A 
ATOM     23  C   UNL     1       7.379   6.019  18.166  0.00  0.00    +0.000 A 
ATOM     24  C   UNL     1       6.643   5.373  19.151  0.00  0.00    +0.000 A 
ATOM     25  C   UNL     1       5.250   5.419  19.118  0.00  0.00    +0.000 A 
ENDBRANCH  19  20
BRANCH  19  29
ATOM     26  C   UNL     1       1.103   3.250  19.472  0.00  0.00    +0.000 C 
ATOM     27  C   UNL     1       1.582   4.206  18.414  0.00  0.00    +0.000 C 
ATOM     28  O   UNL     1       1.228   4.105  17.245  0.00  0.00    +0.000 OA
ATOM     29  N   UNL     1       2.445   5.159  18.897  0.00  0.00    +0.000 N 
ATOM     30  H   UNL     1       2.738   5.088  19.862  0.00  0.00    +0.000 HD
ENDBRANCH  19  29
ENDBRANCH  18  19
ENDBRANCH   1  18
TORSDOF 5
ENDMDL
MODEL 2
REMARK VINA RESULT:      -7.7      1.360      1.870
REMARK  Name = 
REMARK  6 active torsions:
REMARK  status: ('A' for Active; 'I' for Inactive)
REMARK    1  A    between atoms: C_1  and  C_2
REMARK    2  A    between atoms: N_4  and  C_5
REMARK    3  A    between atoms: C_5  and  C_6
REMARK    4  A    between atoms: C_5  and  C_24
REMARK    5  A    between atoms: C_6  and  C_7
REMARK    6  A    between atoms: C_12  and  C_13
REMARK                            x       y       z     vdW  Elec       q    Type
REMARK                         _______ _______ _______ _____ _____    ______ ____
ROOT
ATOM      1  C   UNL     1       1.830   7.397  20.112  0.00  0.00    +0.000 C 
ATOM      2  O   UNL     1       2.085   6.537  20.956  0.00  0.00    +0.000 OA
ATOM      3  N   UNL     1       0.883   8.405  20.312  0.00  0.00    +0.000 N 
ATOM      4  C   UNL     1       0.524   9.410  19.311  0.00  0.00    +0.000 C 
ATOM      5  C   UNL     1       1.166  10.748  19.668  0.00  0.00    +0.000 C 
ATOM      6  C   UNL     1       0.808  11.182  21.098  0.00  0.00    +0.000 C 
ATOM      7  C   UNL     1       1.071  10.047  22.105  0.00  0.00    +0.000 C 
ATOM      8  C   UNL     1       0.443   8.720  21.666  0.00  0.00    +0.000 C 
ENDROOT
BRANCH   6   9
ATOM      9  C   UNL     1      -0.607  11.665  21.172  0.00  0.00    +0.000 A 
ATOM     10  N   UNL     1      -1.397  12.064  20.191  0.00  0.00    +0.000 NA
ATOM     11  C   UNL     1      -2.549  12.436  20.828  0.00  0.00    +0.000 A 
ATOM     12  C   UNL     1      -3.749  12.957  20.330  0.00  0.00    +0.000 A 
ATOM     13  C   UNL     1      -4.766  13.258  21.248  0.00  0.00    +0.000 A 
ATOM     14  C   UNL     1      -4.588  13.042  22.621  0.00  0.00    +0.000 A 
ATOM     15  C   UNL     1      -3.394  12.519  23.132  0.00  0.00    +0.000 A 
ATOM     16  C   UNL     1      -2.412  12.238  22.192  0.00  0.00    +0.000 A 
ATOM     17  O   UNL     1      -1.164  11.734  22.422  0.00  0.00    +0.000 OA
ENDBRANCH   6   9
BRANCH   1  18
ATOM     18  C   UNL     1       2.518   7.446  18.767  0.00  0.00    +0.000 C 
BRANCH  18  19
ATOM     19  C   UNL     1       2.941   6.108  18.165  0.00  0.00    +0.000 C 
BRANCH  19  20
ATOM     20  C   UNL     1       4.468   6.072  18.128  0.00  0.00    +0.000 A 
ATOM     21  C   UNL     1       5.179   6.810  17.173  0.00  0.00    +0.000 A 
ATOM     22  C   UNL     1       6.578   6.843  17.199  0.00  0.00    +0.000 A 
ATOM     23  C   UNL     1       7.280   6.144  18.179  0.00  0.00    +0.000 A 
ATOM     24  C   UNL     1       6.591   5.409  19.136  0.00  0.00    +0.000 A 
ATOM     25  C   UNL     1       5.198   5.373  19.110  0.00  0.00    +0.000 A 
ENDBRANCH  19  20
BRANCH  19  29
ATOM     26  C   UNL     1       1.096   2.917  19.140  0.00  0.00    +0.000 C 
ATOM     27  C   UNL     1       1.474   4.056  18.233  0.00  0.00    +0.000 C 
ATOM     28  O   UNL     1       0.988   4.178  17.114  0.00  0.00    +0.000 OA
ATOM     29  N   UNL     1       2.408   4.899  18.784  0.00  0.00    +0.000 N 
ATOM     30  H   UNL     1       2.806   4.647  19.678  0.00  0.00    +0.000 HD
ENDBRANCH  19  29
ENDBRANCH  18  19
ENDBRANCH   1  18
TORSDOF 5
ENDMDL
MODEL 3
REMARK VINA RESULT:      -7.7      2.299      4.306
REMARK  Name = 
REMARK  6 active torsions:
REMARK  status: ('A' for Active; 'I' for Inactive)
REMARK    1  A    between atoms: C_1  and  C_2
REMARK    2  A    between atoms: N_4  and  C_5
REMARK    3  A    between atoms: C_5  and  C_6
REMARK    4  A    between atoms: C_5  and  C_24
REMARK    5  A    between atoms: C_6  and  C_7
REMARK    6  A    between atoms: C_12  and  C_13
REMARK                            x       y       z     vdW  Elec       q    Type
REMARK                         _______ _______ _______ _____ _____    ______ ____
ROOT
ATOM      1  C   UNL     1       2.243   7.890  18.706  0.00  0.00    +0.000 C 
ATOM      2  O   UNL     1       2.604   7.648  17.555  0.00  0.00    +0.000 OA
ATOM      3  N   UNL     1       1.686   9.112  19.090  0.00  0.00    +0.000 N 
ATOM      4  C   UNL     1       1.292   9.447  20.460  0.00  0.00    +0.000 C 
ATOM      5  C   UNL     1      -0.226   9.376  20.593  0.00  0.00    +0.000 C 
ATOM      6  C   UNL     1      -0.926  10.256  19.545  0.00  0.00    +0.000 C 
ATOM      7  C   UNL     1      -0.385   9.972  18.131  0.00  0.00    +0.000 C 
ATOM      8  C   UNL     1       1.146  10.008  18.074  0.00  0.00    +0.000 C 
ENDROOT
BRANCH   6   9
ATOM      9  C   UNL     1      -0.806  11.706  19.898  0.00  0.00    +0.000 A 
ATOM     10  N   UNL     1      -0.812  12.756  19.096  0.00  0.00    +0.000 NA
ATOM     11  C   UNL     1      -0.624  13.815  19.941  0.00  0.00    +0.000 A 
ATOM     12  C   UNL     1      -0.525  15.188  19.687  0.00  0.00    +0.000 A 
ATOM     13  C   UNL     1      -0.316  16.044  20.779  0.00  0.00    +0.000 A 
ATOM     14  C   UNL     1      -0.214  15.543  22.083  0.00  0.00    +0.000 A 
ATOM     15  C   UNL     1      -0.315  14.172  22.351  0.00  0.00    +0.000 A 
ATOM     16  C   UNL     1      -0.517  13.358  21.244  0.00  0.00    +0.000 A 
ATOM     17  O   UNL     1      -0.639  11.999  21.226  0.00  0.00    +0.000 OA
ENDBRANCH   6   9
BRANCH   1  18
ATOM     18  C   UNL     1       2.369   6.883  19.827  0.00  0.00    +0.000 C 
BRANCH  18  19
ATOM     19  C   UNL     1       3.370   5.749  19.619  0.00  0.00    +0.000 C 
BRANCH  19  20
ATOM     20  C   UNL     1       2.580   4.471  19.343  0.00  0.00    +0.000 A 
ATOM     21  C   UNL     1       1.523   4.087  20.179  0.00  0.00    +0.000 A 
ATOM     22  C   UNL     1       0.746   2.965  19.872  0.00  0.00    +0.000 A 
ATOM     23  C   UNL     1       1.013   2.216  18.727  0.00  0.00    +0.000 A 
ATOM     24  C   UNL     1       2.055   2.584  17.884  0.00  0.00    +0.000 A 
ATOM     25  C   UNL     1       2.831   3.701  18.190  0.00  0.00    +0.000 A 
ENDBRANCH  19  20
BRANCH  19  29
ATOM     26  C   UNL     1       6.557   6.010  17.542  0.00  0.00    +0.000 C 
ATOM     27  C   UNL     1       5.737   5.645  18.749  0.00  0.00    +0.000 C 
ATOM     28  O   UNL     1       6.239   5.118  19.736  0.00  0.00    +0.000 OA
ATOM     29  N   UNL     1       4.404   5.948  18.610  0.00  0.00    +0.000 N 
ATOM     30  H   UNL     1       4.089   6.296  17.715  0.00  0.00    +0.000 HD
ENDBRANCH  19  29
ENDBRANCH  18  19
ENDBRANCH   1  18
TORSDOF 5
ENDMDL
MODEL 4
REMARK VINA RESULT:      -7.7      2.312      4.211
REMARK  Name = 
REMARK  6 active torsions:
REMARK  status: ('A' for Active; 'I' for Inactive)
REMARK    1  A    between atoms: C_1  and  C_2
REMARK    2  A    between atoms: N_4  and  C_5
REMARK    3  A    between atoms: C_5  and  C_6
REMARK    4  A    between atoms: C_5  and  C_24
REMARK    5  A    between atoms: C_6  and  C_7
REMARK    6  A    between atoms: C_12  and  C_13
REMARK                            x       y       z     vdW  Elec       q    Type
REMARK                         _______ _______ _______ _____ _____    ______ ____
ROOT
ATOM      1  C   UNL     1       2.236   7.885  18.765  0.00  0.00    +0.000 C 
ATOM      2  O   UNL     1       2.583   7.678  17.602  0.00  0.00    +0.000 OA
ATOM      3  N   UNL     1       1.740   9.114  19.206  0.00  0.00    +0.000 N 
ATOM      4  C   UNL     1       1.365   9.404  20.591  0.00  0.00    +0.000 C 
ATOM      5  C   UNL     1      -0.155   9.401  20.727  0.00  0.00    +0.000 C 
ATOM      6  C   UNL     1      -0.813  10.360  19.722  0.00  0.00    +0.000 C 
ATOM      7  C   UNL     1      -0.289  10.114  18.295  0.00  0.00    +0.000 C 
ATOM      8  C   UNL     1       1.241  10.079  18.234  0.00  0.00    +0.000 C 
ENDROOT
BRANCH   6   9
ATOM      9  C   UNL     1      -0.623  11.785  20.140  0.00  0.00    +0.000 A 
ATOM     10  N   UNL     1      -0.476  12.278  21.356  0.00  0.00    +0.000 NA
ATOM     11  C   UNL     1      -0.391  13.628  21.155  0.00  0.00    +0.000 A 
ATOM     12  C   UNL     1      -0.242  14.686  22.060  0.00  0.00    +0.000 A 
ATOM     13  C   UNL     1      -0.196  15.990  21.545  0.00  0.00    +0.000 A 
ATOM     14  C   UNL     1      -0.292  16.228  20.168  0.00  0.00    +0.000 A 
ATOM     15  C   UNL     1      -0.437  15.178  19.251  0.00  0.00    +0.000 A 
ATOM     16  C   UNL     1      -0.482  13.904  19.801  0.00  0.00    +0.000 A 
ATOM     17  O   UNL     1      -0.627  12.720  19.138  0.00  0.00    +0.000 OA
ENDBRANCH   6   9
BRANCH   1  18
ATOM     18  C   UNL     1       2.316   6.823  19.839  0.00  0.00    +0.000 C 
BRANCH  18  19
ATOM     19  C   UNL     1       3.335   5.707  19.624  0.00  0.00    +0.000 C 
BRANCH  19  20
ATOM     20  C   UNL     1       2.566   4.419  19.332  0.00  0.00    +0.000 A 
ATOM     21  C   UNL     1       1.494   4.026  20.145  0.00  0.00    +0.000 A 
ATOM     22  C   UNL     1       0.738   2.894  19.822  0.00  0.00    +0.000 A 
ATOM     23  C   UNL     1       1.040   2.145  18.686  0.00  0.00    +0.000 A 
ATOM     24  C   UNL     1       2.098   2.523  17.868  0.00  0.00    +0.000 A 
ATOM     25  C   UNL     1       2.854   3.649  18.189  0.00  0.00    +0.000 A 
ENDBRANCH  19  20
BRANCH  19  29
ATOM     26  C   UNL     1       6.524   6.032  17.559  0.00  0.00    +0.000 C 
ATOM     27  C   UNL     1       5.705   5.640  18.758  0.00  0.00    +0.000 C 
ATOM     28  O   UNL     1       6.210   5.104  19.738  0.00  0.00    +0.000 OA
ATOM     29  N   UNL     1       4.370   5.932  18.620  0.00  0.00    +0.000 N 
ATOM     30  H   UNL     1       4.053   6.291  17.730  0.00  0.00    +0.000 HD
ENDBRANCH  19  29
ENDBRANCH  18  19
ENDBRANCH   1  18
TORSDOF 5
ENDMDL
MODEL 5
REMARK VINA RESULT:      -7.7      0.808      1.243
REMARK  Name = 
REMARK  6 active torsions:
REMARK  status: ('A' for Active; 'I' for Inactive)
REMARK    1  A    between atoms: C_1  and  C_2
REMARK    2  A    between atoms: N_4  and  C_5
REMARK    3  A    between atoms: C_5  and  C_6
REMARK    4  A    between atoms: C_5  and  C_24
REMARK    5  A    between atoms: C_6  and  C_7
REMARK    6  A    between atoms: C_12  and  C_13
REMARK                            x       y       z     vdW  Elec       q    Type
REMARK                         _______ _______ _______ _____ _____    ______ ____
ROOT
ATOM      1  C   UNL     1       2.182   7.539  19.495  0.00  0.00    +0.000 C 
ATOM      2  O   UNL     1       2.502   6.909  20.502  0.00  0.00    +0.000 OA
ATOM      3  N   UNL     1       1.116   8.443  19.466  0.00  0.00    +0.000 N 
ATOM      4  C   UNL     1       0.681   9.170  18.273  0.00  0.00    +0.000 C 
ATOM      5  C   UNL     1       1.148  10.621  18.352  0.00  0.00    +0.000 C 
ATOM      6  C   UNL     1       0.686  11.291  19.655  0.00  0.00    +0.000 C 
ATOM      7  C   UNL     1       1.040  10.429  20.880  0.00  0.00    +0.000 C 
ATOM      8  C   UNL     1       0.589   8.973  20.718  0.00  0.00    +0.000 C 
ENDROOT
BRANCH   6   9
ATOM      9  C   UNL     1      -0.778  11.602  19.606  0.00  0.00    +0.000 A 
ATOM     10  N   UNL     1      -1.655  11.306  18.664  0.00  0.00    +0.000 NA
ATOM     11  C   UNL     1      -2.820  11.867  19.111  0.00  0.00    +0.000 A 
ATOM     12  C   UNL     1      -4.100  11.905  18.545  0.00  0.00    +0.000 A 
ATOM     13  C   UNL     1      -5.109  12.578  19.250  0.00  0.00    +0.000 A 
ATOM     14  C   UNL     1      -4.847  13.190  20.482  0.00  0.00    +0.000 A 
ATOM     15  C   UNL     1      -3.572  13.156  21.061  0.00  0.00    +0.000 A 
ATOM     16  C   UNL     1      -2.601  12.484  20.331  0.00  0.00    +0.000 A 
ATOM     17  O   UNL     1      -1.287  12.313  20.661  0.00  0.00    +0.000 OA
ENDBRANCH   6   9
BRANCH   1  18
ATOM     18  C   UNL     1       2.912   7.395  18.179  0.00  0.00    +0.000 C 
BRANCH  18  19
ATOM     19  C   UNL     1       3.457   6.009  17.847  0.00  0.00    +0.000 C 
BRANCH  19  20
ATOM     20  C   UNL     1       4.975   6.048  18.018  0.00  0.00    +0.000 A 
ATOM     21  C   UNL     1       5.774   6.811  17.155  0.00  0.00    +0.000 A 
ATOM     22  C   UNL     1       7.153   6.914  17.370  0.00  0.00    +0.000 A 
ATOM     23  C   UNL     1       7.748   6.261  18.449  0.00  0.00    +0.000 A 
ATOM     24  C   UNL     1       6.970   5.503  19.316  0.00  0.00    +0.000 A 
ATOM     25  C   UNL     1       5.597   5.398  19.102  0.00  0.00    +0.000 A 
ENDBRANCH  19  20
BRANCH  19  29
ATOM     26  C   UNL     1       1.404   3.080  19.166  0.00  0.00    +0.000 C 
ATOM     27  C   UNL     1       1.769   4.165  18.191  0.00  0.00    +0.000 C 
ATOM     28  O   UNL     1       1.122   4.358  17.168  0.00  0.00    +0.000 OA
ATOM     29  N   UNL     1       2.884   4.876  18.565  0.00  0.00    +0.000 N 
ATOM     30  H   UNL     1       3.390   4.567  19.383  0.00  0.00    +0.000 HD
ENDBRANCH  19  29
ENDBRANCH  18  19
ENDBRANCH   1  18
TORSDOF 5
ENDMDL
MODEL 6
REMARK VINA RESULT:      -7.6      1.627      1.952
REMARK  Name = 
REMARK  6 active torsions:
REMARK  status: ('A' for Active; 'I' for Inactive)
REMARK    1  A    between atoms: C_1  and  C_2
REMARK    2  A    between atoms: N_4  and  C_5
REMARK    3  A    between atoms: C_5  and  C_6
REMARK    4  A    between atoms: C_5  and  C_24
REMARK    5  A    between atoms: C_6  and  C_7
REMARK    6  A    between atoms: C_12  and  C_13
REMARK                            x       y       z     vdW  Elec       q    Type
REMARK                         _______ _______ _______ _____ _____    ______ ____
ROOT
ATOM      1  C   UNL     1       2.624   6.558  19.613  0.00  0.00    +0.000 C 
ATOM      2  O   UNL     1       2.656   5.946  20.681  0.00  0.00    +0.000 OA
ATOM      3  N   UNL     1       1.617   7.469  19.285  0.00  0.00    +0.000 N 
ATOM      4  C   UNL     1       1.526   8.176  18.007  0.00  0.00    +0.000 C 
ATOM      5  C   UNL     1       1.974   9.624  18.182  0.00  0.00    +0.000 C 
ATOM      6  C   UNL     1       1.189  10.325  19.303  0.00  0.00    +0.000 C 
ATOM      7  C   UNL     1       1.192   9.484  20.592  0.00  0.00    +0.000 C 
ATOM      8  C   UNL     1       0.782   8.029  20.341  0.00  0.00    +0.000 C 
ENDROOT
BRANCH   6   9
ATOM      9  C   UNL     1      -0.204  10.646  18.859  0.00  0.00    +0.000 A 
ATOM     10  N   UNL     1      -1.134  11.341  19.489  0.00  0.00    +0.000 NA
ATOM     11  C   UNL     1      -2.215  11.277  18.654  0.00  0.00    +0.000 A 
ATOM     12  C   UNL     1      -3.505  11.806  18.776  0.00  0.00    +0.000 A 
ATOM     13  C   UNL     1      -4.417  11.559  17.740  0.00  0.00    +0.000 A 
ATOM     14  C   UNL     1      -4.049  10.809  16.615  0.00  0.00    +0.000 A 
ATOM     15  C   UNL     1      -2.761  10.277  16.479  0.00  0.00    +0.000 A 
ATOM     16  C   UNL     1      -1.890  10.541  17.527  0.00  0.00    +0.000 A 
ATOM     17  O   UNL     1      -0.592  10.135  17.648  0.00  0.00    +0.000 OA
ENDBRANCH   6   9
BRANCH   1  18
ATOM     18  C   UNL     1       3.677   6.382  18.543  0.00  0.00    +0.000 C 
BRANCH  18  19
ATOM     19  C   UNL     1       3.518   5.178  17.618  0.00  0.00    +0.000 C 
BRANCH  19  20
ATOM     20  C   UNL     1       4.839   4.978  16.877  0.00  0.00    +0.000 A 
ATOM     21  C   UNL     1       4.935   4.066  15.817  0.00  0.00    +0.000 A 
ATOM     22  C   UNL     1       6.122   3.951  15.085  0.00  0.00    +0.000 A 
ATOM     23  C   UNL     1       7.223   4.744  15.401  0.00  0.00    +0.000 A 
ATOM     24  C   UNL     1       7.145   5.655  16.447  0.00  0.00    +0.000 A 
ATOM     25  C   UNL     1       5.964   5.770  17.178  0.00  0.00    +0.000 A 
ENDBRANCH  19  20
BRANCH  19  29
ATOM     26  C   UNL     1       1.650   2.095  18.857  0.00  0.00    +0.000 C 
ATOM     27  C   UNL     1       1.822   3.366  18.073  0.00  0.00    +0.000 C 
ATOM     28  O   UNL     1       0.923   3.819  17.372  0.00  0.00    +0.000 OA
ATOM     29  N   UNL     1       3.066   3.928  18.220  0.00  0.00    +0.000 N 
ATOM     30  H   UNL     1       3.757   3.417  18.751  0.00  0.00    +0.000 HD
ENDBRANCH  19  29
ENDBRANCH  18  19
ENDBRANCH   1  18
TORSDOF 5
ENDMDL
MODEL 7
REMARK VINA RESULT:      -7.6      2.426      4.290
REMARK  Name = 
REMARK  6 active torsions:
REMARK  status: ('A' for Active; 'I' for Inactive)
REMARK    1  A    between atoms: C_1  and  C_2
REMARK    2  A    between atoms: N_4  and  C_5
REMARK    3  A    between atoms: C_5  and  C_6
REMARK    4  A    between atoms: C_5  and  C_24
REMARK    5  A    between atoms: C_6  and  C_7
REMARK    6  A    between atoms: C_12  and  C_13
REMARK                            x       y       z     vdW  Elec       q    Type
REMARK                         _______ _______ _______ _____ _____    ______ ____
ROOT
ATOM      1  C   UNL     1       2.021   8.574  18.577  0.00  0.00    +0.000 C 
ATOM      2  O   UNL     1       2.367   8.528  17.397  0.00  0.00    +0.000 OA
ATOM      3  N   UNL     1       1.402   9.689  19.148  0.00  0.00    +0.000 N 
ATOM      4  C   UNL     1       1.021   9.791  20.557  0.00  0.00    +0.000 C 
ATOM      5  C   UNL     1      -0.486   9.607  20.702  0.00  0.00    +0.000 C 
ATOM      6  C   UNL     1      -1.262  10.587  19.807  0.00  0.00    +0.000 C 
ATOM      7  C   UNL     1      -0.740  10.549  18.359  0.00  0.00    +0.000 C 
ATOM      8  C   UNL     1       0.784  10.689  18.285  0.00  0.00    +0.000 C 
ENDROOT
BRANCH   6   9
ATOM      9  C   UNL     1      -1.221  11.973  20.371  0.00  0.00    +0.000 A 
ATOM     10  N   UNL     1      -1.179  13.126  19.729  0.00  0.00    +0.000 NA
ATOM     11  C   UNL     1      -1.106  14.057  20.728  0.00  0.00    +0.000 A 
ATOM     12  C   UNL     1      -1.023  15.454  20.681  0.00  0.00    +0.000 A 
ATOM     13  C   UNL     1      -0.949  16.148  21.898  0.00  0.00    +0.000 A 
ATOM     14  C   UNL     1      -0.960  15.467  23.122  0.00  0.00    +0.000 A 
ATOM     15  C   UNL     1      -1.046  14.070  23.183  0.00  0.00    +0.000 A 
ATOM     16  C   UNL     1      -1.114  13.420  21.958  0.00  0.00    +0.000 A 
ATOM     17  O   UNL     1      -1.194  12.076  21.737  0.00  0.00    +0.000 OA
ENDBRANCH   6   9
BRANCH   1  18
ATOM     18  C   UNL     1       2.234   7.422  19.533  0.00  0.00    +0.000 C 
BRANCH  18  19
ATOM     19  C   UNL     1       3.126   6.283  19.044  0.00  0.00    +0.000 C 
BRANCH  19  20
ATOM     20  C   UNL     1       2.363   4.974  19.239  0.00  0.00    +0.000 A 
ATOM     21  C   UNL     1       1.915   4.588  20.510  0.00  0.00    +0.000 A 
ATOM     22  C   UNL     1       1.141   3.434  20.669  0.00  0.00    +0.000 A 
ATOM     23  C   UNL     1       0.803   2.654  19.564  0.00  0.00    +0.000 A 
ATOM     24  C   UNL     1       1.237   3.023  18.296  0.00  0.00    +0.000 A 
ATOM     25  C   UNL     1       2.009   4.172  18.136  0.00  0.00    +0.000 A 
ENDBRANCH  19  20
BRANCH  19  29
ATOM     26  C   UNL     1       5.190   6.427  15.842  0.00  0.00    +0.000 C 
ATOM     27  C   UNL     1       4.962   6.220  17.314  0.00  0.00    +0.000 C 
ATOM     28  O   UNL     1       5.877   5.925  18.074  0.00  0.00    +0.000 OA
ATOM     29  N   UNL     1       3.649   6.381  17.686  0.00  0.00    +0.000 N 
ATOM     30  H   UNL     1       2.966   6.533  16.957  0.00  0.00    +0.000 HD
ENDBRANCH  19  29
ENDBRANCH  18  19
ENDBRANCH   1  18
TORSDOF 5
ENDMDL
MODEL 8
REMARK VINA RESULT:      -7.6      1.388      1.479
REMARK  Name = 
REMARK  6 active torsions:
REMARK  status: ('A' for Active; 'I' for Inactive)
REMARK    1  A    between atoms: C_1  and  C_2
REMARK    2  A    between atoms: N_4  and  C_5
REMARK    3  A    between atoms: C_5  and  C_6
REMARK    4  A    between atoms: C_5  and  C_24
REMARK    5  A    between atoms: C_6  and  C_7
REMARK    6  A    between atoms: C_12  and  C_13
REMARK                            x       y       z     vdW  Elec       q    Type
REMARK                         _______ _______ _______ _____ _____    ______ ____
ROOT
ATOM      1  C   UNL     1       1.579   8.040  20.442  0.00  0.00    +0.000 C 
ATOM      2  O   UNL     1       1.825   7.719  21.604  0.00  0.00    +0.000 OA
ATOM      3  N   UNL     1       0.497   8.850  20.087  0.00  0.00    +0.000 N 
ATOM      4  C   UNL     1       0.151   9.210  18.711  0.00  0.00    +0.000 C 
ATOM      5  C   UNL     1       0.571  10.650  18.431  0.00  0.00    +0.000 C 
ATOM      6  C   UNL     1      -0.023  11.621  19.464  0.00  0.00    +0.000 C 
ATOM      7  C   UNL     1       0.243  11.135  20.901  0.00  0.00    +0.000 C 
ATOM      8  C   UNL     1      -0.153   9.669  21.103  0.00  0.00    +0.000 C 
ENDROOT
BRANCH   6   9
ATOM      9  C   UNL     1      -1.484  11.835  19.218  0.00  0.00    +0.000 A 
ATOM     10  N   UNL     1      -2.403  12.302  20.044  0.00  0.00    +0.000 NA
ATOM     11  C   UNL     1      -3.561  12.239  19.318  0.00  0.00    +0.000 A 
ATOM     12  C   UNL     1      -4.876  12.579  19.653  0.00  0.00    +0.000 A 
ATOM     13  C   UNL     1      -5.871  12.389  18.682  0.00  0.00    +0.000 A 
ATOM     14  C   UNL     1      -5.559  11.877  17.417  0.00  0.00    +0.000 A 
ATOM     15  C   UNL     1      -4.246  11.535  17.068  0.00  0.00    +0.000 A 
ATOM     16  C   UNL     1      -3.292  11.735  18.056  0.00  0.00    +0.000 A 
ATOM     17  O   UNL     1      -1.954  11.477  17.981  0.00  0.00    +0.000 OA
ENDBRANCH   6   9
BRANCH   1  18
ATOM     18  C   UNL     1       2.427   7.587  19.275  0.00  0.00    +0.000 C 
BRANCH  18  19
ATOM     19  C   UNL     1       2.418   6.092  18.964  0.00  0.00    +0.000 C 
BRANCH  19  20
ATOM     20  C   UNL     1       3.431   5.840  17.848  0.00  0.00    +0.000 A 
ATOM     21  C   UNL     1       4.166   6.898  17.294  0.00  0.00    +0.000 A 
ATOM     22  C   UNL     1       5.154   6.650  16.336  0.00  0.00    +0.000 A 
ATOM     23  C   UNL     1       5.422   5.347  15.922  0.00  0.00    +0.000 A 
ATOM     24  C   UNL     1       4.706   4.286  16.462  0.00  0.00    +0.000 A 
ATOM     25  C   UNL     1       3.719   4.531  17.415  0.00  0.00    +0.000 A 
ENDBRANCH  19  20
BRANCH  19  29
ATOM     26  C   UNL     1       2.236   3.502  21.755  0.00  0.00    +0.000 C 
ATOM     27  C   UNL     1       1.726   4.272  20.569  0.00  0.00    +0.000 C 
ATOM     28  O   UNL     1       0.608   4.077  20.104  0.00  0.00    +0.000 OA
ATOM     29  N   UNL     1       2.636   5.176  20.078  0.00  0.00    +0.000 N 
ATOM     30  H   UNL     1       3.561   5.185  20.485  0.00  0.00    +0.000 HD
ENDBRANCH  19  29
ENDBRANCH  18  19
ENDBRANCH   1  18
TORSDOF 5
ENDMDL
MODEL 9
REMARK VINA RESULT:      -7.5      1.072      1.585
REMARK  Name = 
REMARK  6 active torsions:
REMARK  status: ('A' for Active; 'I' for Inactive)
REMARK    1  A    between atoms: C_1  and  C_2
REMARK    2  A    between atoms: N_4  and  C_5
REMARK    3  A    between atoms: C_5  and  C_6
REMARK    4  A    between atoms: C_5  and  C_24
REMARK    5  A    between atoms: C_6  and  C_7
REMARK    6  A    between atoms: C_12  and  C_13
REMARK                            x       y       z     vdW  Elec       q    Type
REMARK                         _______ _______ _______ _____ _____    ______ ____
ROOT
ATOM      1  C   UNL     1       2.324   7.398  19.587  0.00  0.00    +0.000 C 
ATOM      2  O   UNL     1       2.545   6.867  20.674  0.00  0.00    +0.000 OA
ATOM      3  N   UNL     1       1.239   8.250  19.360  0.00  0.00    +0.000 N 
ATOM      4  C   UNL     1       0.923   8.859  18.068  0.00  0.00    +0.000 C 
ATOM      5  C   UNL     1       1.329  10.330  18.074  0.00  0.00    +0.000 C 
ATOM      6  C   UNL     1       0.696  11.084  19.254  0.00  0.00    +0.000 C 
ATOM      7  C   UNL     1       0.933  10.339  20.581  0.00  0.00    +0.000 C 
ATOM      8  C   UNL     1       0.553   8.858  20.494  0.00  0.00    +0.000 C 
ENDROOT
BRANCH   6   9
ATOM      9  C   UNL     1      -0.761  11.327  19.013  0.00  0.00    +0.000 A 
ATOM     10  N   UNL     1      -1.479  11.051  17.940  0.00  0.00    +0.000 NA
ATOM     11  C   UNL     1      -2.725  11.526  18.247  0.00  0.00    +0.000 A 
ATOM     12  C   UNL     1      -3.913  11.540  17.506  0.00  0.00    +0.000 A 
ATOM     13  C   UNL     1      -5.048  12.116  18.096  0.00  0.00    +0.000 A 
ATOM     14  C   UNL     1      -4.997  12.658  19.387  0.00  0.00    +0.000 A 
ATOM     15  C   UNL     1      -3.815  12.647  20.140  0.00  0.00    +0.000 A 
ATOM     16  C   UNL     1      -2.715  12.071  19.520  0.00  0.00    +0.000 A 
ATOM     17  O   UNL     1      -1.453  11.942  20.024  0.00  0.00    +0.000 OA
ENDBRANCH   6   9
BRANCH   1  18
ATOM     18  C   UNL     1       3.207   7.179  18.379  0.00  0.00    +0.000 C 
BRANCH  18  19
ATOM     19  C   UNL     1       3.288   5.753  17.840  0.00  0.00    +0.000 C 
BRANCH  19  20
ATOM     20  C   UNL     1       4.761   5.427  17.598  0.00  0.00    +0.000 A 
ATOM     21  C   UNL     1       5.686   5.466  18.650  0.00  0.00    +0.000 A 
ATOM     22  C   UNL     1       7.014   5.080  18.441  0.00  0.00    +0.000 A 
ATOM     23  C   UNL     1       7.433   4.650  17.183  0.00  0.00    +0.000 A 
ATOM     24  C   UNL     1       6.529   4.602  16.130  0.00  0.00    +0.000 A 
ATOM     25  C   UNL     1       5.205   4.988  16.336  0.00  0.00    +0.000 A 
ENDBRANCH  19  20
BRANCH  19  29
ATOM     26  C   UNL     1       1.101   2.993  19.299  0.00  0.00    +0.000 C 
ATOM     27  C   UNL     1       1.551   3.969  18.247  0.00  0.00    +0.000 C 
ATOM     28  O   UNL     1       0.981   4.061  17.166  0.00  0.00    +0.000 OA
ATOM     29  N   UNL     1       2.647   4.705  18.626  0.00  0.00    +0.000 N 
ATOM     30  H   UNL     1       3.089   4.477  19.506  0.00  0.00    +0.000 HD
ENDBRANCH  19  29
ENDBRANCH  18  19
ENDBRANCH   1  18
TORSDOF 5
ENDMDL
