MODEL 1
REMARK VINA RESULT:      -8.8      0.000      0.000
REMARK  Name = 
REMARK  5 active torsions:
REMARK  status: ('A' for Active; 'I' for Inactive)
REMARK    1  A    between atoms: C_2  and  C_3
REMARK    2  A    between atoms: C_3  and  O_4
REMARK    3  A    between atoms: O_4  and  C_5
REMARK    4  A    between atoms: C_5  and  C_7
REMARK    5  A    between atoms: N_16  and  C_17
REMARK                            x       y       z     vdW  Elec       q    Type
REMARK                         _______ _______ _______ _____ _____    ______ ____
ROOT
ATOM      1  O   UNL     1       1.728   5.222  18.683  0.00  0.00    +0.000 OA
ATOM      2  C   UNL     1       2.262   5.520  19.749  0.00  0.00    +0.000 C 
ATOM      3  N   UNL     1       2.371   6.793  20.296  0.00  0.00    +0.000 N 
ATOM      4  H   UNL     1       2.973   6.868  21.105  0.00  0.00    +0.000 HD
ENDROOT
BRANCH   3   5
ATOM      5  C   UNL     1       1.880   8.005  19.731  0.00  0.00    +0.000 A 
ATOM      6  C   UNL     1       2.194   8.344  18.407  0.00  0.00    +0.000 A 
ATOM      7  C   UNL     1       1.791   9.555  17.855  0.00  0.00    +0.000 A 
ATOM      8  C   UNL     1       1.047  10.446  18.613  0.00  0.00    +0.000 A 
ATOM      9  C   UNL     1       0.661  10.124  19.919  0.00  0.00    +0.000 A 
ATOM     10  C   UNL     1      -0.119  11.042  20.640  0.00  0.00    +0.000 A 
ATOM     11  C   UNL     1      -0.539  10.763  21.936  0.00  0.00    +0.000 A 
ATOM     12  C   UNL     1      -0.178   9.562  22.529  0.00  0.00    +0.000 A 
ATOM     13  C   UNL     1       0.612   8.642  21.829  0.00  0.00    +0.000 A 
ATOM     14  C   UNL     1       1.059   8.888  20.504  0.00  0.00    +0.000 A 
ENDBRANCH   3   5
BRANCH   2  15
ATOM     15  C   UNL     1       2.820   4.417  20.648  0.00  0.00    +0.000 C 
BRANCH  15  16
ATOM     16  O   UNL     1       2.997   3.160  20.000  0.00  0.00    +0.000 OA
BRANCH  16  17
ATOM     17  C   UNL     1       4.294   2.879  19.661  0.00  0.00    +0.000 C 
ATOM     18  O   UNL     1       5.021   2.130  20.299  0.00  0.00    +0.000 OA
BRANCH  17  19
ATOM     19  C   UNL     1       4.699   3.563  18.441  0.00  0.00    +0.000 A 
ATOM     20  C   UNL     1       4.194   3.332  17.172  0.00  0.00    +0.000 A 
ATOM     21  N   UNL     1       4.821   4.174  16.295  0.00  0.00    +0.000 N 
ATOM     22  C   UNL     1       5.747   4.944  16.955  0.00  0.00    +0.000 A 
ATOM     23  C   UNL     1       6.624   5.916  16.460  0.00  0.00    +0.000 A 
ATOM     24  C   UNL     1       7.480   6.542  17.370  0.00  0.00    +0.000 A 
ATOM     25  C   UNL     1       7.449   6.217  18.723  0.00  0.00    +0.000 A 
ATOM     26  C   UNL     1       6.558   5.250  19.203  0.00  0.00    +0.000 A 
ATOM     27  C   UNL     1       5.691   4.591  18.305  0.00  0.00    +0.000 A 
ATOM     28  H   UNL     1       4.641   4.224  15.301  0.00  0.00    +0.000 HD
ENDBRANCH  17  19
ENDBRANCH  16  17
ENDBRANCH  15  16
ENDBRANCH   2  15
TORSDOF 5
ENDMDL
MODEL 2
REMARK VINA RESULT:      -8.5      3.482      8.398
REMARK  Name = 
REMARK  5 active torsions:
REMARK  status: ('A' for Active; 'I' for Inactive)
REMARK    1  A    between atoms: C_2  and  C_3
REMARK    2  A    between atoms: C_3  and  O_4
REMARK    3  A    between atoms: O_4  and  C_5
REMARK    4  A    between atoms: C_5  and  C_7
REMARK    5  A    between atoms: N_16  and  C_17
REMARK                            x       y       z     vdW  Elec       q    Type
REMARK                         _______ _______ _______ _____ _____    ______ ____
ROOT
ATOM      1  O   UNL     1       1.488   8.468  17.872  0.00  0.00    +0.000 OA
ATOM      2  C   UNL     1       1.721   8.166  19.041  0.00  0.00    +0.000 C 
ATOM      3  N   UNL     1       2.385   7.031  19.488  0.00  0.00    +0.000 N 
ATOM      4  H   UNL     1       2.353   6.874  20.487  0.00  0.00    +0.000 HD
ENDROOT
BRANCH   3   5
ATOM      5  C   UNL     1       2.934   5.995  18.679  0.00  0.00    +0.000 A 
ATOM      6  C   UNL     1       4.013   6.263  17.825  0.00  0.00    +0.000 A 
ATOM      7  C   UNL     1       4.518   5.290  16.970  0.00  0.00    +0.000 A 
ATOM      8  C   UNL     1       3.965   4.019  16.966  0.00  0.00    +0.000 A 
ATOM      9  C   UNL     1       2.926   3.689  17.843  0.00  0.00    +0.000 A 
ATOM     10  C   UNL     1       2.417   2.381  17.829  0.00  0.00    +0.000 A 
ATOM     11  C   UNL     1       1.393   2.001  18.690  0.00  0.00    +0.000 A 
ATOM     12  C   UNL     1       0.863   2.928  19.574  0.00  0.00    +0.000 A 
ATOM     13  C   UNL     1       1.349   4.242  19.591  0.00  0.00    +0.000 A 
ATOM     14  C   UNL     1       2.394   4.669  18.731  0.00  0.00    +0.000 A 
ENDBRANCH   3   5
BRANCH   2  15
ATOM     15  C   UNL     1       1.329   9.129  20.162  0.00  0.00    +0.000 C 
BRANCH  15  16
ATOM     16  O   UNL     1       0.012   9.661  20.050  0.00  0.00    +0.000 OA
BRANCH  16  17
ATOM     17  C   UNL     1      -0.032  10.990  19.722  0.00  0.00    +0.000 C 
ATOM     18  O   UNL     1       0.934  11.739  19.772  0.00  0.00    +0.000 OA
BRANCH  17  19
ATOM     19  C   UNL     1      -1.360  11.402  19.287  0.00  0.00    +0.000 A 
ATOM     20  C   UNL     1      -2.200  12.277  19.956  0.00  0.00    +0.000 A 
ATOM     21  N   UNL     1      -3.351  12.415  19.230  0.00  0.00    +0.000 N 
ATOM     22  C   UNL     1      -3.298  11.631  18.104  0.00  0.00    +0.000 A 
ATOM     23  C   UNL     1      -4.249  11.444  17.094  0.00  0.00    +0.000 A 
ATOM     24  C   UNL     1      -3.931  10.563  16.057  0.00  0.00    +0.000 A 
ATOM     25  C   UNL     1      -2.704   9.907  16.026  0.00  0.00    +0.000 A 
ATOM     26  C   UNL     1      -1.759  10.114  17.038  0.00  0.00    +0.000 A 
ATOM     27  C   UNL     1      -2.059  10.987  18.105  0.00  0.00    +0.000 A 
ATOM     28  H   UNL     1      -4.135  13.001  19.482  0.00  0.00    +0.000 HD
ENDBRANCH  17  19
ENDBRANCH  16  17
ENDBRANCH  15  16
ENDBRANCH   2  15
TORSDOF 5
ENDMDL
MODEL 3
REMARK VINA RESULT:      -8.3      2.665      4.628
REMARK  Name = 
REMARK  5 active torsions:
REMARK  status: ('A' for Active; 'I' for Inactive)
REMARK    1  A    between atoms: C_2  and  C_3
REMARK    2  A    between atoms: C_3  and  O_4
REMARK    3  A    between atoms: O_4  and  C_5
REMARK    4  A    between atoms: C_5  and  C_7
REMARK    5  A    between atoms: N_16  and  C_17
REMARK                            x       y       z     vdW  Elec       q    Type
REMARK                         _______ _______ _______ _____ _____    ______ ____
ROOT
ATOM      1  O   UNL     1       1.394   8.405  19.695  0.00  0.00    +0.000 OA
ATOM      2  C   UNL     1       1.607   8.825  18.559  0.00  0.00    +0.000 C 
ATOM      3  N   UNL     1       1.013   9.928  17.957  0.00  0.00    +0.000 N 
ATOM      4  H   UNL     1       1.198  10.035  16.969  0.00  0.00    +0.000 HD
ENDROOT
BRANCH   3   5
ATOM      5  C   UNL     1       0.043  10.793  18.540  0.00  0.00    +0.000 A 
ATOM      6  C   UNL     1       0.420  11.707  19.535  0.00  0.00    +0.000 A 
ATOM      7  C   UNL     1      -0.518  12.510  20.173  0.00  0.00    +0.000 A 
ATOM      8  C   UNL     1      -1.855  12.428  19.815  0.00  0.00    +0.000 A 
ATOM      9  C   UNL     1      -2.269  11.573  18.788  0.00  0.00    +0.000 A 
ATOM     10  C   UNL     1      -3.628  11.545  18.436  0.00  0.00    +0.000 A 
ATOM     11  C   UNL     1      -4.086  10.722  17.413  0.00  0.00    +0.000 A 
ATOM     12  C   UNL     1      -3.189   9.912  16.732  0.00  0.00    +0.000 A 
ATOM     13  C   UNL     1      -1.833   9.916  17.081  0.00  0.00    +0.000 A 
ATOM     14  C   UNL     1      -1.325  10.743  18.117  0.00  0.00    +0.000 A 
ENDBRANCH   3   5
BRANCH   2  15
ATOM     15  C   UNL     1       2.674   8.155  17.694  0.00  0.00    +0.000 C 
BRANCH  15  16
ATOM     16  O   UNL     1       3.615   7.368  18.419  0.00  0.00    +0.000 OA
BRANCH  16  17
ATOM     17  C   UNL     1       4.150   6.330  17.704  0.00  0.00    +0.000 C 
ATOM     18  O   UNL     1       4.532   6.423  16.546  0.00  0.00    +0.000 OA
BRANCH  17  19
ATOM     19  C   UNL     1       4.228   5.107  18.491  0.00  0.00    +0.000 A 
ATOM     20  C   UNL     1       5.315   4.250  18.557  0.00  0.00    +0.000 A 
ATOM     21  N   UNL     1       5.006   3.221  19.404  0.00  0.00    +0.000 N 
ATOM     22  C   UNL     1       3.727   3.369  19.884  0.00  0.00    +0.000 A 
ATOM     23  C   UNL     1       2.993   2.553  20.752  0.00  0.00    +0.000 A 
ATOM     24  C   UNL     1       1.689   2.944  21.065  0.00  0.00    +0.000 A 
ATOM     25  C   UNL     1       1.146   4.113  20.539  0.00  0.00    +0.000 A 
ATOM     26  C   UNL     1       1.898   4.924  19.681  0.00  0.00    +0.000 A 
ATOM     27  C   UNL     1       3.213   4.547  19.337  0.00  0.00    +0.000 A 
ATOM     28  H   UNL     1       5.620   2.454  19.642  0.00  0.00    +0.000 HD
ENDBRANCH  17  19
ENDBRANCH  16  17
ENDBRANCH  15  16
ENDBRANCH   2  15
TORSDOF 5
ENDMDL
MODEL 4
REMARK VINA RESULT:      -8.3      3.395      8.222
REMARK  Name = 
REMARK  5 active torsions:
REMARK  status: ('A' for Active; 'I' for Inactive)
REMARK    1  A    between atoms: C_2  and  C_3
REMARK    2  A    between atoms: C_3  and  O_4
REMARK    3  A    between atoms: O_4  and  C_5
REMARK    4  A    between atoms: C_5  and  C_7
REMARK    5  A    between atoms: N_16  and  C_17
REMARK                            x       y       z     vdW  Elec       q    Type
REMARK                         _______ _______ _______ _____ _____    ______ ____
ROOT
ATOM      1  O   UNL     1       1.622   9.199  19.183  0.00  0.00    +0.000 OA
ATOM      2  C   UNL     1       1.544   8.563  20.232  0.00  0.00    +0.000 C 
ATOM      3  N   UNL     1       1.921   7.241  20.433  0.00  0.00    +0.000 N 
ATOM      4  H   UNL     1       1.645   6.841  21.320  0.00  0.00    +0.000 HD
ENDROOT
BRANCH   3   5
ATOM      5  C   UNL     1       2.479   6.361  19.462  0.00  0.00    +0.000 A 
ATOM      6  C   UNL     1       3.426   6.834  18.543  0.00  0.00    +0.000 A 
ATOM      7  C   UNL     1       3.931   6.017  17.537  0.00  0.00    +0.000 A 
ATOM      8  C   UNL     1       3.510   4.699  17.442  0.00  0.00    +0.000 A 
ATOM      9  C   UNL     1       2.611   4.168  18.373  0.00  0.00    +0.000 A 
ATOM     10  C   UNL     1       2.236   2.819  18.259  0.00  0.00    +0.000 A 
ATOM     11  C   UNL     1       1.356   2.241  19.167  0.00  0.00    +0.000 A 
ATOM     12  C   UNL     1       0.834   3.008  20.198  0.00  0.00    +0.000 A 
ATOM     13  C   UNL     1       1.186   4.358  20.318  0.00  0.00    +0.000 A 
ATOM     14  C   UNL     1       2.083   4.985  19.414  0.00  0.00    +0.000 A 
ENDBRANCH   3   5
BRANCH   2  15
ATOM     15  C   UNL     1       1.056   9.261  21.502  0.00  0.00    +0.000 C 
BRANCH  15  16
ATOM     16  O   UNL     1      -0.219   9.885  21.381  0.00  0.00    +0.000 OA
BRANCH  16  17
ATOM     17  C   UNL     1      -0.169  11.202  21.012  0.00  0.00    +0.000 C 
ATOM     18  O   UNL     1       0.771  11.946  21.258  0.00  0.00    +0.000 OA
BRANCH  17  19
ATOM     19  C   UNL     1      -1.357  11.609  20.275  0.00  0.00    +0.000 A 
ATOM     20  C   UNL     1      -2.288  12.549  20.686  0.00  0.00    +0.000 A 
ATOM     21  N   UNL     1      -3.251  12.657  19.721  0.00  0.00    +0.000 N 
ATOM     22  C   UNL     1      -2.988  11.791  18.688  0.00  0.00    +0.000 A 
ATOM     23  C   UNL     1      -3.708  11.550  17.512  0.00  0.00    +0.000 A 
ATOM     24  C   UNL     1      -3.207  10.589  16.629  0.00  0.00    +0.000 A 
ATOM     25  C   UNL     1      -2.026   9.907  16.908  0.00  0.00    +0.000 A 
ATOM     26  C   UNL     1      -1.313  10.168  18.083  0.00  0.00    +0.000 A 
ATOM     27  C   UNL     1      -1.802  11.124  19.000  0.00  0.00    +0.000 A 
ATOM     28  H   UNL     1      -4.050  13.276  19.758  0.00  0.00    +0.000 HD
ENDBRANCH  17  19
ENDBRANCH  16  17
ENDBRANCH  15  16
ENDBRANCH   2  15
TORSDOF 5
ENDMDL
MODEL 5
REMARK VINA RESULT:      -8.2      2.576      4.397
REMARK  Name = 
REMARK  5 active torsions:
REMARK  status: ('A' for Active; 'I' for Inactive)
REMARK    1  A    between atoms: C_2  and  C_3
REMARK    2  A    between atoms: C_3  and  O_4
REMARK    3  A    between atoms: O_4  and  C_5
REMARK    4  A    between atoms: C_5  and  C_7
REMARK    5  A    between atoms: N_16  and  C_17
REMARK                            x       y       z     vdW  Elec       q    Type
REMARK                         _______ _______ _______ _____ _____    ______ ____
ROOT
ATOM      1  O   UNL     1       2.348   9.926  17.471  0.00  0.00    +0.000 OA
ATOM      2  C   UNL     1       1.984   8.984  18.173  0.00  0.00    +0.000 C 
ATOM      3  N   UNL     1       0.964   8.997  19.116  0.00  0.00    +0.000 N 
ATOM      4  H   UNL     1       0.905   8.176  19.704  0.00  0.00    +0.000 HD
ENDROOT
BRANCH   3   5
ATOM      5  C   UNL     1       0.132  10.104  19.452  0.00  0.00    +0.000 A 
ATOM      6  C   UNL     1       0.443  10.910  20.557  0.00  0.00    +0.000 A 
ATOM      7  C   UNL     1      -0.392  11.949  20.952  0.00  0.00    +0.000 A 
ATOM      8  C   UNL     1      -1.549  12.216  20.236  0.00  0.00    +0.000 A 
ATOM      9  C   UNL     1      -1.868  11.475  19.093  0.00  0.00    +0.000 A 
ATOM     10  C   UNL     1      -3.033  11.800  18.379  0.00  0.00    +0.000 A 
ATOM     11  C   UNL     1      -3.387  11.102  17.230  0.00  0.00    +0.000 A 
ATOM     12  C   UNL     1      -2.581  10.066  16.783  0.00  0.00    +0.000 A 
ATOM     13  C   UNL     1      -1.424   9.719  17.491  0.00  0.00    +0.000 A 
ATOM     14  C   UNL     1      -1.026  10.408  18.667  0.00  0.00    +0.000 A 
ENDBRANCH   3   5
BRANCH   2  15
ATOM     15  C   UNL     1       2.632   7.612  17.990  0.00  0.00    +0.000 C 
BRANCH  15  16
ATOM     16  O   UNL     1       4.049   7.642  17.838  0.00  0.00    +0.000 OA
BRANCH  16  17
ATOM     17  C   UNL     1       4.557   6.616  17.088  0.00  0.00    +0.000 C 
ATOM     18  O   UNL     1       4.809   6.702  15.894  0.00  0.00    +0.000 OA
BRANCH  17  19
ATOM     19  C   UNL     1       4.779   5.416  17.882  0.00  0.00    +0.000 A 
ATOM     20  C   UNL     1       5.912   5.133  18.629  0.00  0.00    +0.000 A 
ATOM     21  N   UNL     1       5.740   3.919  19.235  0.00  0.00    +0.000 N 
ATOM     22  C   UNL     1       4.524   3.383  18.888  0.00  0.00    +0.000 A 
ATOM     23  C   UNL     1       3.944   2.163  19.253  0.00  0.00    +0.000 A 
ATOM     24  C   UNL     1       2.681   1.863  18.733  0.00  0.00    +0.000 A 
ATOM     25  C   UNL     1       2.022   2.756  17.893  0.00  0.00    +0.000 A 
ATOM     26  C   UNL     1       2.613   3.977  17.548  0.00  0.00    +0.000 A 
ATOM     27  C   UNL     1       3.892   4.301  18.046  0.00  0.00    +0.000 A 
ATOM     28  H   UNL     1       6.409   3.470  19.846  0.00  0.00    +0.000 HD
ENDBRANCH  17  19
ENDBRANCH  16  17
ENDBRANCH  15  16
ENDBRANCH   2  15
TORSDOF 5
ENDMDL
MODEL 6
REMARK VINA RESULT:      -8.1      5.912      8.439
REMARK  Name = 
REMARK  5 active torsions:
REMARK  status: ('A' for Active; 'I' for Inactive)
REMARK    1  A    between atoms: C_2  and  C_3
REMARK    2  A    between atoms: C_3  and  O_4
REMARK    3  A    between atoms: O_4  and  C_5
REMARK    4  A    between atoms: C_5  and  C_7
REMARK    5  A    between atoms: N_16  and  C_17
REMARK                            x       y       z     vdW  Elec       q    Type
REMARK                         _______ _______ _______ _____ _____    ______ ____
ROOT
ATOM      1  O   UNL     1       8.234   7.018  18.634  0.00  0.00    +0.000 OA
ATOM      2  C   UNL     1       7.739   7.760  17.788  0.00  0.00    +0.000 C 
ATOM      3  N   UNL     1       6.786   7.416  16.837  0.00  0.00    +0.000 N 
ATOM      4  H   UNL     1       6.606   8.115  16.129  0.00  0.00    +0.000 HD
ENDROOT
BRANCH   3   5
ATOM      5  C   UNL     1       6.188   6.135  16.659  0.00  0.00    +0.000 A 
ATOM      6  C   UNL     1       6.886   5.117  15.994  0.00  0.00    +0.000 A 
ATOM      7  C   UNL     1       6.298   3.883  15.740  0.00  0.00    +0.000 A 
ATOM      8  C   UNL     1       5.002   3.635  16.164  0.00  0.00    +0.000 A 
ATOM      9  C   UNL     1       4.288   4.601  16.883  0.00  0.00    +0.000 A 
ATOM     10  C   UNL     1       2.990   4.296  17.322  0.00  0.00    +0.000 A 
ATOM     11  C   UNL     1       2.245   5.217  18.050  0.00  0.00    +0.000 A 
ATOM     12  C   UNL     1       2.790   6.458  18.345  0.00  0.00    +0.000 A 
ATOM     13  C   UNL     1       4.078   6.783  17.902  0.00  0.00    +0.000 A 
ATOM     14  C   UNL     1       4.871   5.871  17.158  0.00  0.00    +0.000 A 
ENDBRANCH   3   5
BRANCH   2  15
ATOM     15  C   UNL     1       8.115   9.241  17.771  0.00  0.00    +0.000 C 
BRANCH  15  16
ATOM     16  O   UNL     1       8.731   9.709  18.968  0.00  0.00    +0.000 OA
BRANCH  16  17
ATOM     17  C   UNL     1       9.545  10.795  18.795  0.00  0.00    +0.000 C 
ATOM     18  O   UNL     1      10.143  11.042  17.757  0.00  0.00    +0.000 OA
BRANCH  17  19
ATOM     19  C   UNL     1       9.601  11.632  19.985  0.00  0.00    +0.000 A 
ATOM     20  C   UNL     1       9.246  11.247  21.268  0.00  0.00    +0.000 A 
ATOM     21  N   UNL     1       9.443  12.307  22.110  0.00  0.00    +0.000 N 
ATOM     22  C   UNL     1       9.902  13.394  21.406  0.00  0.00    +0.000 A 
ATOM     23  C   UNL     1      10.216  14.683  21.849  0.00  0.00    +0.000 A 
ATOM     24  C   UNL     1      10.655  15.608  20.897  0.00  0.00    +0.000 A 
ATOM     25  C   UNL     1      10.787  15.250  19.559  0.00  0.00    +0.000 A 
ATOM     26  C   UNL     1      10.479  13.952  19.135  0.00  0.00    +0.000 A 
ATOM     27  C   UNL     1      10.020  13.001  20.071  0.00  0.00    +0.000 A 
ATOM     28  H   UNL     1       9.271  12.303  23.106  0.00  0.00    +0.000 HD
ENDBRANCH  17  19
ENDBRANCH  16  17
ENDBRANCH  15  16
ENDBRANCH   2  15
TORSDOF 5
ENDMDL
MODEL 7
REMARK VINA RESULT:      -8.1      5.844      8.423
REMARK  Name = 
REMARK  5 active torsions:
REMARK  status: ('A' for Active; 'I' for Inactive)
REMARK    1  A    between atoms: C_2  and  C_3
REMARK    2  A    between atoms: C_3  and  O_4
REMARK    3  A    between atoms: O_4  and  C_5
REMARK    4  A    between atoms: C_5  and  C_7
REMARK    5  A    between atoms: N_16  and  C_17
REMARK                            x       y       z     vdW  Elec       q    Type
REMARK                         _______ _______ _______ _____ _____    ______ ____
ROOT
ATOM      1  O   UNL     1       6.909   8.420  16.889  0.00  0.00    +0.000 OA
ATOM      2  C   UNL     1       7.589   7.821  17.720  0.00  0.00    +0.000 C 
ATOM      3  N   UNL     1       7.575   6.455  17.975  0.00  0.00    +0.000 N 
ATOM      4  H   UNL     1       8.090   6.161  18.795  0.00  0.00    +0.000 HD
ENDROOT
BRANCH   3   5
ATOM      5  C   UNL     1       6.775   5.477  17.319  0.00  0.00    +0.000 A 
ATOM      6  C   UNL     1       7.216   4.891  16.124  0.00  0.00    +0.000 A 
ATOM      7  C   UNL     1       6.421   3.990  15.423  0.00  0.00    +0.000 A 
ATOM      8  C   UNL     1       5.173   3.642  15.915  0.00  0.00    +0.000 A 
ATOM      9  C   UNL     1       4.716   4.157  17.133  0.00  0.00    +0.000 A 
ATOM     10  C   UNL     1       3.460   3.752  17.611  0.00  0.00    +0.000 A 
ATOM     11  C   UNL     1       2.967   4.226  18.822  0.00  0.00    +0.000 A 
ATOM     12  C   UNL     1       3.726   5.114  19.569  0.00  0.00    +0.000 A 
ATOM     13  C   UNL     1       4.975   5.539  19.100  0.00  0.00    +0.000 A 
ATOM     14  C   UNL     1       5.514   5.078  17.871  0.00  0.00    +0.000 A 
ENDBRANCH   3   5
BRANCH   2  15
ATOM     15  C   UNL     1       8.626   8.588  18.542  0.00  0.00    +0.000 C 
BRANCH  15  16
ATOM     16  O   UNL     1       8.643   9.993  18.308  0.00  0.00    +0.000 OA
BRANCH  16  17
ATOM     17  C   UNL     1       9.422  10.700  19.184  0.00  0.00    +0.000 C 
ATOM     18  O   UNL     1       9.372  10.573  20.400  0.00  0.00    +0.000 OA
BRANCH  17  19
ATOM     19  C   UNL     1      10.332  11.606  18.497  0.00  0.00    +0.000 A 
ATOM     20  C   UNL     1      11.590  11.285  18.014  0.00  0.00    +0.000 A 
ATOM     21  N   UNL     1      12.129  12.398  17.429  0.00  0.00    +0.000 N 
ATOM     22  C   UNL     1      11.260  13.457  17.535  0.00  0.00    +0.000 A 
ATOM     23  C   UNL     1      11.400  14.780  17.102  0.00  0.00    +0.000 A 
ATOM     24  C   UNL     1      10.347  15.663  17.358  0.00  0.00    +0.000 A 
ATOM     25  C   UNL     1       9.194  15.232  18.009  0.00  0.00    +0.000 A 
ATOM     26  C   UNL     1       9.066  13.902  18.425  0.00  0.00    +0.000 A 
ATOM     27  C   UNL     1      10.119  12.992  18.193  0.00  0.00    +0.000 A 
ATOM     28  H   UNL     1      13.037  12.447  16.988  0.00  0.00    +0.000 HD
ENDBRANCH  17  19
ENDBRANCH  16  17
ENDBRANCH  15  16
ENDBRANCH   2  15
TORSDOF 5
ENDMDL
MODEL 8
REMARK VINA RESULT:      -8.0      5.466      7.956
REMARK  Name = 
REMARK  5 active torsions:
REMARK  status: ('A' for Active; 'I' for Inactive)
REMARK    1  A    between atoms: C_2  and  C_3
REMARK    2  A    between atoms: C_3  and  O_4
REMARK    3  A    between atoms: O_4  and  C_5
REMARK    4  A    between atoms: C_5  and  C_7
REMARK    5  A    between atoms: N_16  and  C_17
REMARK                            x       y       z     vdW  Elec       q    Type
REMARK                         _______ _______ _______ _____ _____    ______ ____
ROOT
ATOM      1  O   UNL     1       7.873  10.501  17.699  0.00  0.00    +0.000 OA
ATOM      2  C   UNL     1       8.445   9.613  18.328  0.00  0.00    +0.000 C 
ATOM      3  N   UNL     1       9.277   9.778  19.428  0.00  0.00    +0.000 N 
ATOM      4  H   UNL     1       9.777   8.950  19.723  0.00  0.00    +0.000 HD
ENDROOT
BRANCH   3   5
ATOM      5  C   UNL     1       9.626  11.011  20.051  0.00  0.00    +0.000 A 
ATOM      6  C   UNL     1       9.074  11.356  21.293  0.00  0.00    +0.000 A 
ATOM      7  C   UNL     1       9.338  12.585  21.887  0.00  0.00    +0.000 A 
ATOM      8  C   UNL     1      10.178  13.489  21.256  0.00  0.00    +0.000 A 
ATOM      9  C   UNL     1      10.798  13.165  20.045  0.00  0.00    +0.000 A 
ATOM     10  C   UNL     1      11.667  14.098  19.457  0.00  0.00    +0.000 A 
ATOM     11  C   UNL     1      12.317  13.817  18.260  0.00  0.00    +0.000 A 
ATOM     12  C   UNL     1      12.101  12.599  17.633  0.00  0.00    +0.000 A 
ATOM     13  C   UNL     1      11.225  11.663  18.198  0.00  0.00    +0.000 A 
ATOM     14  C   UNL     1      10.545  11.910  19.419  0.00  0.00    +0.000 A 
ENDBRANCH   3   5
BRANCH   2  15
ATOM     15  C   UNL     1       8.203   8.149  17.956  0.00  0.00    +0.000 C 
BRANCH  15  16
ATOM     16  O   UNL     1       7.015   7.919  17.204  0.00  0.00    +0.000 OA
BRANCH  16  17
ATOM     17  C   UNL     1       6.654   6.602  17.113  0.00  0.00    +0.000 C 
ATOM     18  O   UNL     1       7.406   5.711  16.743  0.00  0.00    +0.000 OA
BRANCH  17  19
ATOM     19  C   UNL     1       5.274   6.383  17.526  0.00  0.00    +0.000 A 
ATOM     20  C   UNL     1       4.209   7.238  17.291  0.00  0.00    +0.000 A 
ATOM     21  N   UNL     1       3.080   6.682  17.825  0.00  0.00    +0.000 N 
ATOM     22  C   UNL     1       3.380   5.485  18.429  0.00  0.00    +0.000 A 
ATOM     23  C   UNL     1       2.548   4.591  19.113  0.00  0.00    +0.000 A 
ATOM     24  C   UNL     1       3.133   3.438  19.645  0.00  0.00    +0.000 A 
ATOM     25  C   UNL     1       4.492   3.185  19.485  0.00  0.00    +0.000 A 
ATOM     26  C   UNL     1       5.307   4.085  18.787  0.00  0.00    +0.000 A 
ATOM     27  C   UNL     1       4.747   5.264  18.251  0.00  0.00    +0.000 A 
ATOM     28  H   UNL     1       2.155   7.090  17.794  0.00  0.00    +0.000 HD
ENDBRANCH  17  19
ENDBRANCH  16  17
ENDBRANCH  15  16
ENDBRANCH   2  15
TORSDOF 5
ENDMDL
MODEL 9
REMARK VINA RESULT:      -8.0      5.548      8.021
REMARK  Name = 
REMARK  5 active torsions:
REMARK  status: ('A' for Active; 'I' for Inactive)
REMARK    1  A    between atoms: C_2  and  C_3
REMARK    2  A    between atoms: C_3  and  O_4
REMARK    3  A    between atoms: O_4  and  C_5
REMARK    4  A    between atoms: C_5  and  C_7
REMARK    5  A    between atoms: N_16  and  C_17
REMARK                            x       y       z     vdW  Elec       q    Type
REMARK                         _______ _______ _______ _____ _____    ______ ____
ROOT
ATOM      1  O   UNL     1       7.898  10.468  17.739  0.00  0.00    +0.000 OA
ATOM      2  C   UNL     1       8.530   9.620  18.365  0.00  0.00    +0.000 C 
ATOM      3  N   UNL     1       9.365   9.842  19.453  0.00  0.00    +0.000 N 
ATOM      4  H   UNL     1       9.917   9.047  19.746  0.00  0.00    +0.000 HD
ENDROOT
BRANCH   3   5
ATOM      5  C   UNL     1       9.650  11.098  20.062  0.00  0.00    +0.000 A 
ATOM      6  C   UNL     1       9.033  11.453  21.270  0.00  0.00    +0.000 A 
ATOM      7  C   UNL     1       9.235  12.702  21.847  0.00  0.00    +0.000 A 
ATOM      8  C   UNL     1      10.075  13.618  21.233  0.00  0.00    +0.000 A 
ATOM      9  C   UNL     1      10.757  13.286  20.057  0.00  0.00    +0.000 A 
ATOM     10  C   UNL     1      11.623  14.233  19.487  0.00  0.00    +0.000 A 
ATOM     11  C   UNL     1      12.333  13.946  18.326  0.00  0.00    +0.000 A 
ATOM     12  C   UNL     1      12.181  12.709  17.719  0.00  0.00    +0.000 A 
ATOM     13  C   UNL     1      11.310  11.759  18.266  0.00  0.00    +0.000 A 
ATOM     14  C   UNL     1      10.569  12.011  19.450  0.00  0.00    +0.000 A 
ENDBRANCH   3   5
BRANCH   2  15
ATOM     15  C   UNL     1       8.369   8.142  18.007  0.00  0.00    +0.000 C 
BRANCH  15  16
ATOM     16  O   UNL     1       7.097   7.800  17.465  0.00  0.00    +0.000 OA
BRANCH  16  17
ATOM     17  C   UNL     1       7.018   6.523  16.977  0.00  0.00    +0.000 C 
ATOM     18  O   UNL     1       7.424   6.187  15.873  0.00  0.00    +0.000 OA
BRANCH  17  19
ATOM     19  C   UNL     1       6.412   5.609  17.935  0.00  0.00    +0.000 A 
ATOM     20  C   UNL     1       6.834   5.397  19.237  0.00  0.00    +0.000 A 
ATOM     21  N   UNL     1       6.009   4.473  19.817  0.00  0.00    +0.000 N 
ATOM     22  C   UNL     1       5.061   4.052  18.916  0.00  0.00    +0.000 A 
ATOM     23  C   UNL     1       4.036   3.112  19.065  0.00  0.00    +0.000 A 
ATOM     24  C   UNL     1       3.213   2.867  17.962  0.00  0.00    +0.000 A 
ATOM     25  C   UNL     1       3.403   3.548  16.763  0.00  0.00    +0.000 A 
ATOM     26  C   UNL     1       4.426   4.494  16.635  0.00  0.00    +0.000 A 
ATOM     27  C   UNL     1       5.280   4.752  17.728  0.00  0.00    +0.000 A 
ATOM     28  H   UNL     1       6.084   4.136  20.767  0.00  0.00    +0.000 HD
ENDBRANCH  17  19
ENDBRANCH  16  17
ENDBRANCH  15  16
ENDBRANCH   2  15
TORSDOF 5
ENDMDL
