MODEL 1
REMARK VINA RESULT:      -9.7      0.000      0.000
REMARK  Name = 
REMARK  5 active torsions:
REMARK  status: ('A' for Active; 'I' for Inactive)
REMARK    1  A    between atoms: C_1  and  C_2
REMARK    2  A    between atoms: C_6  and  C_7
REMARK    3  A    between atoms: C_10  and  C_11
REMARK    4  A    between atoms: C_11  and  C_12
REMARK    5  A    between atoms: C_16  and  C_17
REMARK                            x       y       z     vdW  Elec       q    Type
REMARK                         _______ _______ _______ _____ _____    ______ ____
ROOT
ATOM      1  C   UNL     1       3.517   4.669  18.418  0.00  0.00    +0.000 C 
ATOM      2  C   UNL     1       3.649   3.963  19.799  0.00  0.00    +0.000 C 
ATOM      3  C   UNL     1       3.743   2.428  19.662  0.00  0.00    +0.000 C 
ATOM      4  O   UNL     1       2.638   1.884  18.945  0.00  0.00    +0.000 OA
ATOM      5  C   UNL     1       2.566   2.392  17.621  0.00  0.00    +0.000 C 
ATOM      6  C   UNL     1       2.361   3.891  17.684  0.00  0.00    +0.000 C 
ENDROOT
BRANCH   1   7
ATOM      7  C   UNL     1       4.875   4.661  17.665  0.00  0.00    +0.000 A 
ATOM      8  C   UNL     1       6.110   4.717  18.335  0.00  0.00    +0.000 A 
ATOM      9  C   UNL     1       7.322   4.681  17.639  0.00  0.00    +0.000 A 
ATOM     10  C   UNL     1       7.336   4.538  16.258  0.00  0.00    +0.000 A 
ATOM     11  C   UNL     1       6.134   4.424  15.553  0.00  0.00    +0.000 A 
ATOM     12  C   UNL     1       4.917   4.502  16.262  0.00  0.00    +0.000 A 
BRANCH  11  13
ATOM     13  C   UNL     1       6.135   4.182  14.061  0.00  0.00    +0.000 C 
ATOM     14  F   UNL     1       6.490   2.913  13.712  0.00  0.00    +0.000 F 
ATOM     15  F   UNL     1       4.911   4.392  13.502  0.00  0.00    +0.000 F 
ATOM     16  F   UNL     1       6.994   5.005  13.399  0.00  0.00    +0.000 F 
ENDBRANCH  11  13
ENDBRANCH   1   7
BRANCH   1  20
ATOM     17  C   UNL     1       2.061   7.970  18.997  0.00  0.00    +0.000 A 
ATOM     18  N   UNL     1       2.860   8.228  17.982  0.00  0.00    +0.000 NA
ATOM     19  N   UNL     1       3.465   7.063  17.637  0.00  0.00    +0.000 NA
ATOM     20  C   UNL     1       3.006   6.120  18.442  0.00  0.00    +0.000 A 
ATOM     21  O   UNL     1       2.092   6.623  19.363  0.00  0.00    +0.000 OA
BRANCH  17  27
ATOM     22  C   UNL     1       0.016   9.477  23.303  0.00  0.00    +0.000 C 
ATOM     23  C   UNL     1       0.214   9.690  21.829  0.00  0.00    +0.000 A 
ATOM     24  C   UNL     1      -0.370  10.768  21.168  0.00  0.00    +0.000 A 
ATOM     25  C   UNL     1      -0.175  10.952  19.797  0.00  0.00    +0.000 A 
ATOM     26  C   UNL     1       0.615  10.054  19.060  0.00  0.00    +0.000 A 
ATOM     27  C   UNL     1       1.224   8.960  19.691  0.00  0.00    +0.000 A 
ATOM     28  C   UNL     1       1.005   8.799  21.079  0.00  0.00    +0.000 A 
ENDBRANCH  17  27
ENDBRANCH   1  20
TORSDOF 4
ENDMDL
MODEL 2
REMARK VINA RESULT:      -9.6      0.887      1.706
REMARK  Name = 
REMARK  5 active torsions:
REMARK  status: ('A' for Active; 'I' for Inactive)
REMARK    1  A    between atoms: C_1  and  C_2
REMARK    2  A    between atoms: C_6  and  C_7
REMARK    3  A    between atoms: C_10  and  C_11
REMARK    4  A    between atoms: C_11  and  C_12
REMARK    5  A    between atoms: C_16  and  C_17
REMARK                            x       y       z     vdW  Elec       q    Type
REMARK                         _______ _______ _______ _____ _____    ______ ____
ROOT
ATOM      1  C   UNL     1       3.141   4.836  18.919  0.00  0.00    +0.000 C 
ATOM      2  C   UNL     1       3.169   3.927  20.182  0.00  0.00    +0.000 C 
ATOM      3  C   UNL     1       3.369   2.438  19.825  0.00  0.00    +0.000 C 
ATOM      4  O   UNL     1       2.380   1.967  18.913  0.00  0.00    +0.000 OA
ATOM      5  C   UNL     1       2.417   2.674  17.682  0.00  0.00    +0.000 C 
ATOM      6  C   UNL     1       2.117   4.134  17.948  0.00  0.00    +0.000 C 
ENDROOT
BRANCH   1   7
ATOM      7  C   UNL     1       4.569   5.004  18.332  0.00  0.00    +0.000 A 
ATOM      8  C   UNL     1       5.693   5.252  19.140  0.00  0.00    +0.000 A 
ATOM      9  C   UNL     1       6.974   5.373  18.594  0.00  0.00    +0.000 A 
ATOM     10  C   UNL     1       7.177   5.202  17.231  0.00  0.00    +0.000 A 
ATOM     11  C   UNL     1       6.098   4.902  16.395  0.00  0.00    +0.000 A 
ATOM     12  C   UNL     1       4.804   4.821  16.951  0.00  0.00    +0.000 A 
BRANCH  11  13
ATOM     13  C   UNL     1       6.315   4.629  14.924  0.00  0.00    +0.000 C 
ATOM     14  F   UNL     1       5.331   5.125  14.123  0.00  0.00    +0.000 F 
ATOM     15  F   UNL     1       7.477   5.172  14.463  0.00  0.00    +0.000 F 
ATOM     16  F   UNL     1       6.389   3.299  14.644  0.00  0.00    +0.000 F 
ENDBRANCH  11  13
ENDBRANCH   1   7
BRANCH   1  20
ATOM     17  C   UNL     1       1.621   8.004  19.920  0.00  0.00    +0.000 A 
ATOM     18  N   UNL     1       2.141   8.338  18.757  0.00  0.00    +0.000 NA
ATOM     19  N   UNL     1       2.733   7.228  18.246  0.00  0.00    +0.000 NA
ATOM     20  C   UNL     1       2.545   6.242  19.105  0.00  0.00    +0.000 A 
ATOM     21  O   UNL     1       1.835   6.659  20.227  0.00  0.00    +0.000 OA
BRANCH  17  27
ATOM     22  C   UNL     1      -1.234  12.083  20.373  0.00  0.00    +0.000 C 
ATOM     23  C   UNL     1      -0.511  10.940  21.028  0.00  0.00    +0.000 A 
ATOM     24  C   UNL     1      -0.533  10.764  22.409  0.00  0.00    +0.000 A 
ATOM     25  C   UNL     1       0.144   9.695  23.001  0.00  0.00    +0.000 A 
ATOM     26  C   UNL     1       0.857   8.776  22.213  0.00  0.00    +0.000 A 
ATOM     27  C   UNL     1       0.898   8.915  20.819  0.00  0.00    +0.000 A 
ATOM     28  C   UNL     1       0.205  10.010  20.250  0.00  0.00    +0.000 A 
ENDBRANCH  17  27
ENDBRANCH   1  20
TORSDOF 4
ENDMDL
MODEL 3
REMARK VINA RESULT:      -9.5      3.352      4.649
REMARK  Name = 
REMARK  5 active torsions:
REMARK  status: ('A' for Active; 'I' for Inactive)
REMARK    1  A    between atoms: C_1  and  C_2
REMARK    2  A    between atoms: C_6  and  C_7
REMARK    3  A    between atoms: C_10  and  C_11
REMARK    4  A    between atoms: C_11  and  C_12
REMARK    5  A    between atoms: C_16  and  C_17
REMARK                            x       y       z     vdW  Elec       q    Type
REMARK                         _______ _______ _______ _____ _____    ______ ____
ROOT
ATOM      1  C   UNL     1       4.197   5.674  17.724  0.00  0.00    +0.000 C 
ATOM      2  C   UNL     1       4.831   5.393  16.331  0.00  0.00    +0.000 C 
ATOM      3  C   UNL     1       6.006   4.394  16.414  0.00  0.00    +0.000 C 
ATOM      4  O   UNL     1       7.014   4.826  17.325  0.00  0.00    +0.000 OA
ATOM      5  C   UNL     1       6.512   4.953  18.647  0.00  0.00    +0.000 C 
ATOM      6  C   UNL     1       5.423   6.005  18.657  0.00  0.00    +0.000 C 
ENDROOT
BRANCH   1   7
ATOM      7  C   UNL     1       3.343   4.464  18.193  0.00  0.00    +0.000 A 
ATOM      8  C   UNL     1       2.883   3.476  17.306  0.00  0.00    +0.000 A 
ATOM      9  C   UNL     1       2.139   2.380  17.752  0.00  0.00    +0.000 A 
ATOM     10  C   UNL     1       1.874   2.215  19.106  0.00  0.00    +0.000 A 
ATOM     11  C   UNL     1       2.357   3.143  20.032  0.00  0.00    +0.000 A 
ATOM     12  C   UNL     1       3.073   4.266  19.566  0.00  0.00    +0.000 A 
BRANCH  11  13
ATOM     13  C   UNL     1       2.151   2.931  21.515  0.00  0.00    +0.000 C 
ATOM     14  F   UNL     1       2.333   4.058  22.259  0.00  0.00    +0.000 F 
ATOM     15  F   UNL     1       0.893   2.495  21.805  0.00  0.00    +0.000 F 
ATOM     16  F   UNL     1       2.998   2.000  22.033  0.00  0.00    +0.000 F 
ENDBRANCH  11  13
ENDBRANCH   1   7
BRANCH   1  20
ATOM     17  C   UNL     1       2.023   8.495  18.541  0.00  0.00    +0.000 A 
ATOM     18  N   UNL     1       2.515   8.889  17.384  0.00  0.00    +0.000 NA
ATOM     19  N   UNL     1       3.341   7.908  16.940  0.00  0.00    +0.000 NA
ATOM     20  C   UNL     1       3.320   6.933  17.832  0.00  0.00    +0.000 A 
ATOM     21  O   UNL     1       2.493   7.232  18.909  0.00  0.00    +0.000 OA
BRANCH  17  27
ATOM     22  C   UNL     1       0.211   9.381  23.116  0.00  0.00    +0.000 C 
ATOM     23  C   UNL     1       0.200   9.691  21.646  0.00  0.00    +0.000 A 
ATOM     24  C   UNL     1      -0.650  10.658  21.115  0.00  0.00    +0.000 A 
ATOM     25  C   UNL     1      -0.646  10.934  19.746  0.00  0.00    +0.000 A 
ATOM     26  C   UNL     1       0.217  10.244  18.879  0.00  0.00    +0.000 A 
ATOM     27  C   UNL     1       1.092   9.267  19.375  0.00  0.00    +0.000 A 
ATOM     28  C   UNL     1       1.062   9.008  20.766  0.00  0.00    +0.000 A 
ENDBRANCH  17  27
ENDBRANCH   1  20
TORSDOF 4
ENDMDL
MODEL 4
REMARK VINA RESULT:      -9.4      0.840      1.071
REMARK  Name = 
REMARK  5 active torsions:
REMARK  status: ('A' for Active; 'I' for Inactive)
REMARK    1  A    between atoms: C_1  and  C_2
REMARK    2  A    between atoms: C_6  and  C_7
REMARK    3  A    between atoms: C_10  and  C_11
REMARK    4  A    between atoms: C_11  and  C_12
REMARK    5  A    between atoms: C_16  and  C_17
REMARK                            x       y       z     vdW  Elec       q    Type
REMARK                         _______ _______ _______ _____ _____    ______ ____
ROOT
ATOM      1  C   UNL     1       3.097   5.238  18.729  0.00  0.00    +0.000 C 
ATOM      2  C   UNL     1       3.026   4.557  20.126  0.00  0.00    +0.000 C 
ATOM      3  C   UNL     1       3.122   3.019  20.032  0.00  0.00    +0.000 C 
ATOM      4  O   UNL     1       2.123   2.470  19.176  0.00  0.00    +0.000 OA
ATOM      5  C   UNL     1       2.243   2.953  17.847  0.00  0.00    +0.000 C 
ATOM      6  C   UNL     1       2.047   4.454  17.853  0.00  0.00    +0.000 C 
ENDROOT
BRANCH   1   7
ATOM      7  C   UNL     1       4.547   5.204  18.174  0.00  0.00    +0.000 A 
ATOM      8  C   UNL     1       5.675   5.320  19.005  0.00  0.00    +0.000 A 
ATOM      9  C   UNL     1       6.973   5.260  18.489  0.00  0.00    +0.000 A 
ATOM     10  C   UNL     1       7.182   5.034  17.135  0.00  0.00    +0.000 A 
ATOM     11  C   UNL     1       6.091   4.859  16.278  0.00  0.00    +0.000 A 
ATOM     12  C   UNL     1       4.786   4.962  16.803  0.00  0.00    +0.000 A 
BRANCH  11  13
ATOM     13  C   UNL     1       6.303   4.527  14.819  0.00  0.00    +0.000 C 
ATOM     14  F   UNL     1       7.446   5.056  14.298  0.00  0.00    +0.000 F 
ATOM     15  F   UNL     1       6.382   3.185  14.599  0.00  0.00    +0.000 F 
ATOM     16  F   UNL     1       5.290   4.975  14.028  0.00  0.00    +0.000 F 
ENDBRANCH  11  13
ENDBRANCH   1   7
BRANCH   1  20
ATOM     17  C   UNL     1       1.759   8.616  19.118  0.00  0.00    +0.000 A 
ATOM     18  N   UNL     1       2.401   8.736  17.974  0.00  0.00    +0.000 NA
ATOM     19  N   UNL     1       2.943   7.524  17.686  0.00  0.00    +0.000 NA
ATOM     20  C   UNL     1       2.603   6.693  18.655  0.00  0.00    +0.000 A 
ATOM     21  O   UNL     1       1.836   7.320  19.632  0.00  0.00    +0.000 OA
BRANCH  17  27
ATOM     22  C   UNL     1      -0.737  10.092  23.191  0.00  0.00    +0.000 C 
ATOM     23  C   UNL     1      -0.200  10.413  21.824  0.00  0.00    +0.000 A 
ATOM     24  C   UNL     1      -0.384  11.668  21.250  0.00  0.00    +0.000 A 
ATOM     25  C   UNL     1       0.122  11.949  19.978  0.00  0.00    +0.000 A 
ATOM     26  C   UNL     1       0.828  10.972  19.257  0.00  0.00    +0.000 A 
ATOM     27  C   UNL     1       1.037   9.698  19.803  0.00  0.00    +0.000 A 
ATOM     28  C   UNL     1       0.510   9.442  21.091  0.00  0.00    +0.000 A 
ENDBRANCH  17  27
ENDBRANCH   1  20
TORSDOF 4
ENDMDL
MODEL 5
REMARK VINA RESULT:      -9.4      2.358      3.139
REMARK  Name = 
REMARK  5 active torsions:
REMARK  status: ('A' for Active; 'I' for Inactive)
REMARK    1  A    between atoms: C_1  and  C_2
REMARK    2  A    between atoms: C_6  and  C_7
REMARK    3  A    between atoms: C_10  and  C_11
REMARK    4  A    between atoms: C_11  and  C_12
REMARK    5  A    between atoms: C_16  and  C_17
REMARK                            x       y       z     vdW  Elec       q    Type
REMARK                         _______ _______ _______ _____ _____    ______ ____
ROOT
ATOM      1  C   UNL     1       2.450   4.879  19.868  0.00  0.00    +0.000 C 
ATOM      2  C   UNL     1       2.815   4.241  21.239  0.00  0.00    +0.000 C 
ATOM      3  C   UNL     1       2.807   2.698  21.186  0.00  0.00    +0.000 C 
ATOM      4  O   UNL     1       1.559   2.183  20.731  0.00  0.00    +0.000 OA
ATOM      5  C   UNL     1       1.254   2.622  19.415  0.00  0.00    +0.000 C 
ATOM      6  C   UNL     1       1.137   4.131  19.420  0.00  0.00    +0.000 C 
ENDROOT
BRANCH   1   7
ATOM      7  C   UNL     1       3.634   4.750  18.870  0.00  0.00    +0.000 A 
ATOM      8  C   UNL     1       3.453   4.361  17.531  0.00  0.00    +0.000 A 
ATOM      9  C   UNL     1       4.529   4.278  16.642  0.00  0.00    +0.000 A 
ATOM     10  C   UNL     1       5.809   4.628  17.052  0.00  0.00    +0.000 A 
ATOM     11  C   UNL     1       6.028   5.072  18.359  0.00  0.00    +0.000 A 
ATOM     12  C   UNL     1       4.942   5.113  19.259  0.00  0.00    +0.000 A 
BRANCH  11  13
ATOM     13  C   UNL     1       7.399   5.537  18.795  0.00  0.00    +0.000 C 
ATOM     14  F   UNL     1       7.542   5.630  20.146  0.00  0.00    +0.000 F 
ATOM     15  F   UNL     1       8.388   4.700  18.374  0.00  0.00    +0.000 F 
ATOM     16  F   UNL     1       7.715   6.766  18.301  0.00  0.00    +0.000 F 
ENDBRANCH  11  13
ENDBRANCH   1   7
BRANCH   1  20
ATOM     17  C   UNL     1       1.257   8.276  20.488  0.00  0.00    +0.000 A 
ATOM     18  N   UNL     1       1.928   8.452  19.369  0.00  0.00    +0.000 NA
ATOM     19  N   UNL     1       2.421   7.242  18.999  0.00  0.00    +0.000 NA
ATOM     20  C   UNL     1       2.023   6.356  19.896  0.00  0.00    +0.000 A 
ATOM     21  O   UNL     1       1.265   6.943  20.904  0.00  0.00    +0.000 OA
BRANCH  17  27
ATOM     22  C   UNL     1       0.108  13.130  20.832  0.00  0.00    +0.000 C 
ATOM     23  C   UNL     1       0.013  11.742  21.401  0.00  0.00    +0.000 A 
ATOM     24  C   UNL     1      -0.688  11.487  22.576  0.00  0.00    +0.000 A 
ATOM     25  C   UNL     1      -0.767  10.191  23.091  0.00  0.00    +0.000 A 
ATOM     26  C   UNL     1      -0.142   9.120  22.430  0.00  0.00    +0.000 A 
ATOM     27  C   UNL     1       0.569   9.336  21.242  0.00  0.00    +0.000 A 
ATOM     28  C   UNL     1       0.634  10.660  20.747  0.00  0.00    +0.000 A 
ENDBRANCH  17  27
ENDBRANCH   1  20
TORSDOF 4
ENDMDL
MODEL 6
REMARK VINA RESULT:      -9.3      3.347      4.822
REMARK  Name = 
REMARK  5 active torsions:
REMARK  status: ('A' for Active; 'I' for Inactive)
REMARK    1  A    between atoms: C_1  and  C_2
REMARK    2  A    between atoms: C_6  and  C_7
REMARK    3  A    between atoms: C_10  and  C_11
REMARK    4  A    between atoms: C_11  and  C_12
REMARK    5  A    between atoms: C_16  and  C_17
REMARK                            x       y       z     vdW  Elec       q    Type
REMARK                         _______ _______ _______ _____ _____    ______ ____
ROOT
ATOM      1  C   UNL     1       4.267   5.647  17.668  0.00  0.00    +0.000 C 
ATOM      2  C   UNL     1       4.883   5.381  16.264  0.00  0.00    +0.000 C 
ATOM      3  C   UNL     1       6.065   4.388  16.323  0.00  0.00    +0.000 C 
ATOM      4  O   UNL     1       7.082   4.819  17.223  0.00  0.00    +0.000 OA
ATOM      5  C   UNL     1       6.598   4.933  18.553  0.00  0.00    +0.000 C 
ATOM      6  C   UNL     1       5.504   5.978  18.587  0.00  0.00    +0.000 C 
ENDROOT
BRANCH   1   7
ATOM      7  C   UNL     1       3.427   4.429  18.138  0.00  0.00    +0.000 A 
ATOM      8  C   UNL     1       3.010   3.414  17.259  0.00  0.00    +0.000 A 
ATOM      9  C   UNL     1       2.277   2.312  17.708  0.00  0.00    +0.000 A 
ATOM     10  C   UNL     1       1.981   2.166  19.057  0.00  0.00    +0.000 A 
ATOM     11  C   UNL     1       2.421   3.122  19.977  0.00  0.00    +0.000 A 
ATOM     12  C   UNL     1       3.125   4.251  19.507  0.00  0.00    +0.000 A 
BRANCH  11  13
ATOM     13  C   UNL     1       2.182   2.934  21.458  0.00  0.00    +0.000 C 
ATOM     14  F   UNL     1       0.928   2.492  21.758  0.00  0.00    +0.000 F 
ATOM     15  F   UNL     1       3.036   2.027  22.009  0.00  0.00    +0.000 F 
ATOM     16  F   UNL     1       2.351   4.085  22.165  0.00  0.00    +0.000 F 
ENDBRANCH  11  13
ENDBRANCH   1   7
BRANCH   1  20
ATOM     17  C   UNL     1       2.084   8.445  18.535  0.00  0.00    +0.000 A 
ATOM     18  N   UNL     1       2.567   8.859  17.382  0.00  0.00    +0.000 NA
ATOM     19  N   UNL     1       3.396   7.888  16.919  0.00  0.00    +0.000 NA
ATOM     20  C   UNL     1       3.385   6.900  17.797  0.00  0.00    +0.000 A 
ATOM     21  O   UNL     1       2.561   7.180  18.883  0.00  0.00    +0.000 OA
BRANCH  17  27
ATOM     22  C   UNL     1      -1.452  11.970  18.808  0.00  0.00    +0.000 C 
ATOM     23  C   UNL     1      -0.593  10.952  19.505  0.00  0.00    +0.000 A 
ATOM     24  C   UNL     1      -0.684  10.747  20.879  0.00  0.00    +0.000 A 
ATOM     25  C   UNL     1       0.121   9.796  21.511  0.00  0.00    +0.000 A 
ATOM     26  C   UNL     1       1.035   9.028  20.771  0.00  0.00    +0.000 A 
ATOM     27  C   UNL     1       1.152   9.201  19.385  0.00  0.00    +0.000 A 
ATOM     28  C   UNL     1       0.325  10.174  18.774  0.00  0.00    +0.000 A 
ENDBRANCH  17  27
ENDBRANCH   1  20
TORSDOF 4
ENDMDL
MODEL 7
REMARK VINA RESULT:      -9.3      4.057      7.895
REMARK  Name = 
REMARK  5 active torsions:
REMARK  status: ('A' for Active; 'I' for Inactive)
REMARK    1  A    between atoms: C_1  and  C_2
REMARK    2  A    between atoms: C_6  and  C_7
REMARK    3  A    between atoms: C_10  and  C_11
REMARK    4  A    between atoms: C_11  and  C_12
REMARK    5  A    between atoms: C_16  and  C_17
REMARK                            x       y       z     vdW  Elec       q    Type
REMARK                         _______ _______ _______ _____ _____    ______ ____
ROOT
ATOM      1  C   UNL     1       2.981   4.719  18.842  0.00  0.00    +0.000 C 
ATOM      2  C   UNL     1       1.766   3.838  18.431  0.00  0.00    +0.000 C 
ATOM      3  C   UNL     1       0.737   3.694  19.573  0.00  0.00    +0.000 C 
ATOM      4  O   UNL     1       1.326   3.178  20.764  0.00  0.00    +0.000 OA
ATOM      5  C   UNL     1       2.346   4.031  21.261  0.00  0.00    +0.000 C 
ATOM      6  C   UNL     1       3.448   4.129  20.227  0.00  0.00    +0.000 C 
ENDROOT
BRANCH   1   7
ATOM      7  C   UNL     1       2.583   6.219  18.885  0.00  0.00    +0.000 A 
ATOM      8  C   UNL     1       2.734   7.072  17.778  0.00  0.00    +0.000 A 
ATOM      9  C   UNL     1       2.343   8.414  17.829  0.00  0.00    +0.000 A 
ATOM     10  C   UNL     1       1.745   8.929  18.972  0.00  0.00    +0.000 A 
ATOM     11  C   UNL     1       1.525   8.104  20.080  0.00  0.00    +0.000 A 
ATOM     12  C   UNL     1       1.960   6.763  20.031  0.00  0.00    +0.000 A 
BRANCH  11  13
ATOM     13  C   UNL     1       0.799   8.628  21.298  0.00  0.00    +0.000 C 
ATOM     14  F   UNL     1       0.358   9.910  21.163  0.00  0.00    +0.000 F 
ATOM     15  F   UNL     1      -0.304   7.887  21.601  0.00  0.00    +0.000 F 
ATOM     16  F   UNL     1       1.576   8.615  22.415  0.00  0.00    +0.000 F 
ENDBRANCH  11  13
ENDBRANCH   1   7
BRANCH   1  20
ATOM     17  C   UNL     1       5.601   4.526  16.301  0.00  0.00    +0.000 A 
ATOM     18  N   UNL     1       6.326   4.583  17.399  0.00  0.00    +0.000 NA
ATOM     19  N   UNL     1       5.467   4.637  18.449  0.00  0.00    +0.000 NA
ATOM     20  C   UNL     1       4.239   4.596  17.964  0.00  0.00    +0.000 A 
ATOM     21  O   UNL     1       4.231   4.529  16.574  0.00  0.00    +0.000 OA
BRANCH  17  27
ATOM     22  C   UNL     1       5.099   2.746  11.656  0.00  0.00    +0.000 C 
ATOM     23  C   UNL     1       5.876   3.576  12.639  0.00  0.00    +0.000 A 
ATOM     24  C   UNL     1       7.036   4.248  12.262  0.00  0.00    +0.000 A 
ATOM     25  C   UNL     1       7.746   5.016  13.189  0.00  0.00    +0.000 A 
ATOM     26  C   UNL     1       7.301   5.127  14.517  0.00  0.00    +0.000 A 
ATOM     27  C   UNL     1       6.135   4.469  14.933  0.00  0.00    +0.000 A 
ATOM     28  C   UNL     1       5.440   3.697  13.973  0.00  0.00    +0.000 A 
ENDBRANCH  17  27
ENDBRANCH   1  20
TORSDOF 4
ENDMDL
MODEL 8
REMARK VINA RESULT:      -9.3      4.112      8.107
REMARK  Name = 
REMARK  5 active torsions:
REMARK  status: ('A' for Active; 'I' for Inactive)
REMARK    1  A    between atoms: C_1  and  C_2
REMARK    2  A    between atoms: C_6  and  C_7
REMARK    3  A    between atoms: C_10  and  C_11
REMARK    4  A    between atoms: C_11  and  C_12
REMARK    5  A    between atoms: C_16  and  C_17
REMARK                            x       y       z     vdW  Elec       q    Type
REMARK                         _______ _______ _______ _____ _____    ______ ____
ROOT
ATOM      1  C   UNL     1       6.796   5.581  16.966  0.00  0.00    +0.000 C 
ATOM      2  C   UNL     1       7.642   4.780  17.997  0.00  0.00    +0.000 C 
ATOM      3  C   UNL     1       7.835   5.553  19.320  0.00  0.00    +0.000 C 
ATOM      4  O   UNL     1       8.417   6.837  19.111  0.00  0.00    +0.000 OA
ATOM      5  C   UNL     1       7.601   7.660  18.292  0.00  0.00    +0.000 C 
ATOM      6  C   UNL     1       7.461   7.010  16.932  0.00  0.00    +0.000 C 
ENDROOT
BRANCH   1   7
ATOM      7  C   UNL     1       5.296   5.582  17.368  0.00  0.00    +0.000 A 
ATOM      8  C   UNL     1       4.501   6.740  17.317  0.00  0.00    +0.000 A 
ATOM      9  C   UNL     1       3.145   6.713  17.657  0.00  0.00    +0.000 A 
ATOM     10  C   UNL     1       2.533   5.518  18.011  0.00  0.00    +0.000 A 
ATOM     11  C   UNL     1       3.271   4.330  18.024  0.00  0.00    +0.000 A 
ATOM     12  C   UNL     1       4.647   4.377  17.718  0.00  0.00    +0.000 A 
BRANCH  11  13
ATOM     13  C   UNL     1       2.599   3.010  18.324  0.00  0.00    +0.000 C 
ATOM     14  F   UNL     1       2.627   2.132  17.283  0.00  0.00    +0.000 F 
ATOM     15  F   UNL     1       3.179   2.360  19.372  0.00  0.00    +0.000 F 
ATOM     16  F   UNL     1       1.287   3.154  18.656  0.00  0.00    +0.000 F 
ENDBRANCH  11  13
ENDBRANCH   1   7
BRANCH   1  20
ATOM     17  C   UNL     1       6.488   4.209  13.593  0.00  0.00    +0.000 A 
ATOM     18  N   UNL     1       7.488   5.049  13.426  0.00  0.00    +0.000 NA
ATOM     19  N   UNL     1       7.734   5.629  14.629  0.00  0.00    +0.000 NA
ATOM     20  C   UNL     1       6.886   5.115  15.502  0.00  0.00    +0.000 A 
ATOM     21  O   UNL     1       6.034   4.186  14.913  0.00  0.00    +0.000 OA
BRANCH  17  27
ATOM     22  C   UNL     1       2.856   3.684  10.198  0.00  0.00    +0.000 C 
ATOM     23  C   UNL     1       4.084   3.131  10.863  0.00  0.00    +0.000 A 
ATOM     24  C   UNL     1       4.617   1.899  10.492  0.00  0.00    +0.000 A 
ATOM     25  C   UNL     1       5.761   1.400  11.121  0.00  0.00    +0.000 A 
ATOM     26  C   UNL     1       6.395   2.133  12.138  0.00  0.00    +0.000 A 
ATOM     27  C   UNL     1       5.892   3.379  12.536  0.00  0.00    +0.000 A 
ATOM     28  C   UNL     1       4.731   3.856  11.883  0.00  0.00    +0.000 A 
ENDBRANCH  17  27
ENDBRANCH   1  20
TORSDOF 4
ENDMDL
MODEL 9
REMARK VINA RESULT:      -9.2      2.246      2.714
REMARK  Name = 
REMARK  5 active torsions:
REMARK  status: ('A' for Active; 'I' for Inactive)
REMARK    1  A    between atoms: C_1  and  C_2
REMARK    2  A    between atoms: C_6  and  C_7
REMARK    3  A    between atoms: C_10  and  C_11
REMARK    4  A    between atoms: C_11  and  C_12
REMARK    5  A    between atoms: C_16  and  C_17
REMARK                            x       y       z     vdW  Elec       q    Type
REMARK                         _______ _______ _______ _____ _____    ______ ____
ROOT
ATOM      1  C   UNL     1       2.742   5.000  18.992  0.00  0.00    +0.000 C 
ATOM      2  C   UNL     1       2.766   4.419  20.435  0.00  0.00    +0.000 C 
ATOM      3  C   UNL     1       2.733   2.875  20.444  0.00  0.00    +0.000 C 
ATOM      4  O   UNL     1       1.610   2.359  19.734  0.00  0.00    +0.000 OA
ATOM      5  C   UNL     1       1.626   2.743  18.368  0.00  0.00    +0.000 C 
ATOM      6  C   UNL     1       1.549   4.253  18.284  0.00  0.00    +0.000 C 
ENDROOT
BRANCH   1   7
ATOM      7  C   UNL     1       4.119   4.808  18.300  0.00  0.00    +0.000 A 
ATOM      8  C   UNL     1       4.242   4.344  16.979  0.00  0.00    +0.000 A 
ATOM      9  C   UNL     1       5.490   4.204  16.365  0.00  0.00    +0.000 A 
ATOM     10  C   UNL     1       6.649   4.573  17.036  0.00  0.00    +0.000 A 
ATOM     11  C   UNL     1       6.573   5.091  18.332  0.00  0.00    +0.000 A 
ATOM     12  C   UNL     1       5.311   5.189  18.956  0.00  0.00    +0.000 A 
BRANCH  11  13
ATOM     13  C   UNL     1       7.816   5.575  19.043  0.00  0.00    +0.000 C 
ATOM     14  F   UNL     1       8.884   4.741  18.907  0.00  0.00    +0.000 F 
ATOM     15  F   UNL     1       8.233   6.789  18.586  0.00  0.00    +0.000 F 
ATOM     16  F   UNL     1       7.627   5.726  20.382  0.00  0.00    +0.000 F 
ENDBRANCH  11  13
ENDBRANCH   1   7
BRANCH   1  20
ATOM     17  C   UNL     1       1.682   8.486  19.257  0.00  0.00    +0.000 A 
ATOM     18  N   UNL     1       2.283   8.501  18.085  0.00  0.00    +0.000 NA
ATOM     19  N   UNL     1       2.719   7.238  17.839  0.00  0.00    +0.000 NA
ATOM     20  C   UNL     1       2.357   6.483  18.862  0.00  0.00    +0.000 A 
ATOM     21  O   UNL     1       1.682   7.215  19.834  0.00  0.00    +0.000 OA
BRANCH  17  27
ATOM     22  C   UNL     1      -0.852  10.264  23.183  0.00  0.00    +0.000 C 
ATOM     23  C   UNL     1      -0.186  10.518  21.860  0.00  0.00    +0.000 A 
ATOM     24  C   UNL     1      -0.153  11.791  21.298  0.00  0.00    +0.000 A 
ATOM     25  C   UNL     1       0.472  12.009  20.067  0.00  0.00    +0.000 A 
ATOM     26  C   UNL     1       1.081  10.948  19.377  0.00  0.00    +0.000 A 
ATOM     27  C   UNL     1       1.074   9.653  19.913  0.00  0.00    +0.000 A 
ATOM     28  C   UNL     1       0.431   9.464  21.158  0.00  0.00    +0.000 A 
ENDBRANCH  17  27
ENDBRANCH   1  20
TORSDOF 4
ENDMDL
