MODEL 1
REMARK VINA RESULT:      -9.4      0.000      0.000
REMARK  Name = 
REMARK  4 active torsions:
REMARK  status: ('A' for Active; 'I' for Inactive)
REMARK    1  A    between atoms: C_2  and  C_20
REMARK    2  A    between atoms: N_3  and  C_4
REMARK    3  A    between atoms: C_8  and  C_9
REMARK    4  A    between atoms: C_24  and  N_25
REMARK                            x       y       z     vdW  Elec       q    Type
REMARK                         _______ _______ _______ _____ _____    ______ ____
ROOT
ATOM      1  C   UNL     1       0.832   9.910  18.167  0.00  0.00    +0.000 A 
ATOM      2  C   UNL     1       1.422  10.980  18.838  0.00  0.00    +0.000 A 
ATOM      3  C   UNL     1       0.685  12.128  19.130  0.00  0.00    +0.000 A 
ATOM      4  C   UNL     1      -0.655  12.210  18.758  0.00  0.00    +0.000 A 
ATOM      5  C   UNL     1      -1.269  11.155  18.073  0.00  0.00    +0.000 A 
ATOM      6  C   UNL     1      -0.500  10.024  17.752  0.00  0.00    +0.000 A 
ENDROOT
BRANCH   5   7
ATOM      7  C   UNL     1      -2.675  11.285  17.679  0.00  0.00    +0.000 A 
ATOM      8  N   UNL     1      -3.127  11.116  16.451  0.00  0.00    +0.000 NA
ATOM      9  N   UNL     1      -4.488  11.256  16.460  0.00  0.00    +0.000 NA
ATOM     10  C   UNL     1      -4.866  11.539  17.688  0.00  0.00    +0.000 A 
ATOM     11  N   UNL     1      -3.745  11.630  18.482  0.00  0.00    +0.000 N 
ATOM     12  C   UNL     1      -3.690  12.050  19.867  0.00  0.00    +0.000 C 
ATOM     13  C   UNL     1      -4.684  13.141  20.242  0.00  0.00    +0.000 C 
ATOM     14  C   UNL     1      -6.098  12.621  20.496  0.00  0.00    +0.000 C 
ATOM     15  C   UNL     1      -6.556  11.486  19.581  0.00  0.00    +0.000 C 
ATOM     16  C   UNL     1      -6.282  11.752  18.106  0.00  0.00    +0.000 C 
ENDBRANCH   5   7
BRANCH   1  19
ATOM     17  O   UNL     1       1.920   7.908  20.041  0.00  0.00    +0.000 OA
ATOM     18  C   UNL     1       1.992   7.804  18.823  0.00  0.00    +0.000 C 
ATOM     19  N   UNL     1       1.504   8.695  17.884  0.00  0.00    +0.000 N 
ATOM     20  H   UNL     1       1.507   8.404  16.917  0.00  0.00    +0.000 HD
BRANCH  18  21
ATOM     21  C   UNL     1       2.597   6.557  18.282  0.00  0.00    +0.000 A 
ATOM     22  C   UNL     1       1.823   5.390  18.338  0.00  0.00    +0.000 A 
ATOM     23  C   UNL     1       2.336   4.182  17.872  0.00  0.00    +0.000 A 
ATOM     24  C   UNL     1       3.623   4.131  17.338  0.00  0.00    +0.000 A 
ATOM     25  C   UNL     1       4.404   5.295  17.271  0.00  0.00    +0.000 A 
ATOM     26  C   UNL     1       3.895   6.511  17.762  0.00  0.00    +0.000 A 
BRANCH  25  27
ATOM     27  N   UNL     1       5.695   5.260  16.694  0.00  0.00    +0.000 N 
ATOM     28  C   UNL     1       6.708   4.351  16.872  0.00  0.00    +0.000 A 
ATOM     29  N   UNL     1       7.720   4.671  16.101  0.00  0.00    +0.000 NA
ATOM     30  N   UNL     1       7.333   5.802  15.431  0.00  0.00    +0.000 NA
ATOM     31  N   UNL     1       6.107   6.166  15.778  0.00  0.00    +0.000 NA
ENDBRANCH  25  27
ENDBRANCH  18  21
ENDBRANCH   1  19
TORSDOF 4
ENDMDL
MODEL 2
REMARK VINA RESULT:      -9.3      2.929      5.448
REMARK  Name = 
REMARK  4 active torsions:
REMARK  status: ('A' for Active; 'I' for Inactive)
REMARK    1  A    between atoms: C_2  and  C_20
REMARK    2  A    between atoms: N_3  and  C_4
REMARK    3  A    between atoms: C_8  and  C_9
REMARK    4  A    between atoms: C_24  and  N_25
REMARK                            x       y       z     vdW  Elec       q    Type
REMARK                         _______ _______ _______ _____ _____    ______ ____
ROOT
ATOM      1  C   UNL     1       0.864   9.724  18.348  0.00  0.00    +0.000 A 
ATOM      2  C   UNL     1      -0.459  10.014  18.015  0.00  0.00    +0.000 A 
ATOM      3  C   UNL     1      -1.031  11.234  18.373  0.00  0.00    +0.000 A 
ATOM      4  C   UNL     1      -0.278  12.181  19.064  0.00  0.00    +0.000 A 
ATOM      5  C   UNL     1       1.049  11.912  19.422  0.00  0.00    +0.000 A 
ATOM      6  C   UNL     1       1.595  10.662  19.087  0.00  0.00    +0.000 A 
ENDROOT
BRANCH   5   7
ATOM      7  C   UNL     1       1.805  12.924  20.165  0.00  0.00    +0.000 A 
ATOM      8  N   UNL     1       1.594  13.236  21.430  0.00  0.00    +0.000 NA
ATOM      9  N   UNL     1       2.514  14.174  21.811  0.00  0.00    +0.000 NA
ATOM     10  C   UNL     1       3.270  14.457  20.773  0.00  0.00    +0.000 A 
ATOM     11  N   UNL     1       2.817  13.736  19.691  0.00  0.00    +0.000 N 
ATOM     12  C   UNL     1       3.274  13.840  18.320  0.00  0.00    +0.000 C 
ATOM     13  C   UNL     1       3.661  15.247  17.884  0.00  0.00    +0.000 C 
ATOM     14  C   UNL     1       5.057  15.668  18.341  0.00  0.00    +0.000 C 
ATOM     15  C   UNL     1       5.467  15.187  19.732  0.00  0.00    +0.000 C 
ATOM     16  C   UNL     1       4.401  15.429  20.793  0.00  0.00    +0.000 C 
ENDBRANCH   5   7
BRANCH   1  19
ATOM     17  O   UNL     1       2.087   7.659  20.062  0.00  0.00    +0.000 OA
ATOM     18  C   UNL     1       2.078   7.604  18.838  0.00  0.00    +0.000 C 
ATOM     19  N   UNL     1       1.524   8.529  17.971  0.00  0.00    +0.000 N 
ATOM     20  H   UNL     1       1.464   8.277  16.995  0.00  0.00    +0.000 HD
BRANCH  18  21
ATOM     21  C   UNL     1       2.654   6.386  18.208  0.00  0.00    +0.000 A 
ATOM     22  C   UNL     1       1.863   5.230  18.202  0.00  0.00    +0.000 A 
ATOM     23  C   UNL     1       2.349   4.047  17.650  0.00  0.00    +0.000 A 
ATOM     24  C   UNL     1       3.626   4.011  17.093  0.00  0.00    +0.000 A 
ATOM     25  C   UNL     1       4.424   5.165  17.086  0.00  0.00    +0.000 A 
ATOM     26  C   UNL     1       3.943   6.355  17.663  0.00  0.00    +0.000 A 
BRANCH  25  27
ATOM     27  N   UNL     1       5.705   5.148  16.486  0.00  0.00    +0.000 N 
ATOM     28  C   UNL     1       6.844   4.491  16.876  0.00  0.00    +0.000 A 
ATOM     29  N   UNL     1       7.796   4.710  15.999  0.00  0.00    +0.000 NA
ATOM     30  N   UNL     1       7.239   5.522  15.045  0.00  0.00    +0.000 NA
ATOM     31  N   UNL     1       5.973   5.791  15.327  0.00  0.00    +0.000 NA
ENDBRANCH  25  27
ENDBRANCH  18  21
ENDBRANCH   1  19
TORSDOF 4
ENDMDL
MODEL 3
REMARK VINA RESULT:      -9.3      3.666     10.816
REMARK  Name = 
REMARK  4 active torsions:
REMARK  status: ('A' for Active; 'I' for Inactive)
REMARK    1  A    between atoms: C_2  and  C_20
REMARK    2  A    between atoms: N_3  and  C_4
REMARK    3  A    between atoms: C_8  and  C_9
REMARK    4  A    between atoms: C_24  and  N_25
REMARK                            x       y       z     vdW  Elec       q    Type
REMARK                         _______ _______ _______ _____ _____    ______ ____
ROOT
ATOM      1  C   UNL     1       5.109   6.207  17.732  0.00  0.00    +0.000 A 
ATOM      2  C   UNL     1       5.733   5.430  18.708  0.00  0.00    +0.000 A 
ATOM      3  C   UNL     1       6.788   4.581  18.374  0.00  0.00    +0.000 A 
ATOM      4  C   UNL     1       7.233   4.509  17.056  0.00  0.00    +0.000 A 
ATOM      5  C   UNL     1       6.617   5.267  16.053  0.00  0.00    +0.000 A 
ATOM      6  C   UNL     1       5.530   6.087  16.402  0.00  0.00    +0.000 A 
ENDROOT
BRANCH   5   7
ATOM      7  C   UNL     1       7.098   5.150  14.674  0.00  0.00    +0.000 A 
ATOM      8  N   UNL     1       8.081   5.867  14.161  0.00  0.00    +0.000 NA
ATOM      9  N   UNL     1       8.300   5.457  12.875  0.00  0.00    +0.000 NA
ATOM     10  C   UNL     1       7.433   4.509  12.590  0.00  0.00    +0.000 A 
ATOM     11  N   UNL     1       6.611   4.326  13.678  0.00  0.00    +0.000 N 
ATOM     12  C   UNL     1       5.440   3.476  13.753  0.00  0.00    +0.000 C 
ATOM     13  C   UNL     1       4.628   3.397  12.467  0.00  0.00    +0.000 C 
ATOM     14  C   UNL     1       5.211   2.436  11.433  0.00  0.00    +0.000 C 
ATOM     15  C   UNL     1       6.737   2.409  11.346  0.00  0.00    +0.000 C 
ATOM     16  C   UNL     1       7.363   3.797  11.282  0.00  0.00    +0.000 C 
ENDBRANCH   5   7
BRANCH   1  19
ATOM     17  O   UNL     1       2.623   5.794  19.265  0.00  0.00    +0.000 OA
ATOM     18  C   UNL     1       2.923   6.857  18.738  0.00  0.00    +0.000 C 
ATOM     19  N   UNL     1       4.068   7.126  18.009  0.00  0.00    +0.000 N 
ATOM     20  H   UNL     1       4.248   8.089  17.760  0.00  0.00    +0.000 HD
BRANCH  18  21
ATOM     21  C   UNL     1       2.007   8.009  18.958  0.00  0.00    +0.000 A 
ATOM     22  C   UNL     1       1.573   8.711  17.826  0.00  0.00    +0.000 A 
ATOM     23  C   UNL     1       0.734   9.815  17.961  0.00  0.00    +0.000 A 
ATOM     24  C   UNL     1       0.316  10.221  19.227  0.00  0.00    +0.000 A 
ATOM     25  C   UNL     1       0.738   9.521  20.367  0.00  0.00    +0.000 A 
ATOM     26  C   UNL     1       1.604   8.419  20.234  0.00  0.00    +0.000 A 
BRANCH  25  27
ATOM     27  N   UNL     1       0.286   9.902  21.652  0.00  0.00    +0.000 N 
ATOM     28  C   UNL     1      -0.680  10.809  22.005  0.00  0.00    +0.000 A 
ATOM     29  N   UNL     1      -0.818  10.814  23.310  0.00  0.00    +0.000 NA
ATOM     30  N   UNL     1       0.083   9.894  23.781  0.00  0.00    +0.000 NA
ATOM     31  N   UNL     1       0.754   9.332  22.786  0.00  0.00    +0.000 NA
ENDBRANCH  25  27
ENDBRANCH  18  21
ENDBRANCH   1  19
TORSDOF 4
ENDMDL
MODEL 4
REMARK VINA RESULT:      -9.3      1.323      1.394
REMARK  Name = 
REMARK  4 active torsions:
REMARK  status: ('A' for Active; 'I' for Inactive)
REMARK    1  A    between atoms: C_2  and  C_20
REMARK    2  A    between atoms: N_3  and  C_4
REMARK    3  A    between atoms: C_8  and  C_9
REMARK    4  A    between atoms: C_24  and  N_25
REMARK                            x       y       z     vdW  Elec       q    Type
REMARK                         _______ _______ _______ _____ _____    ______ ____
ROOT
ATOM      1  C   UNL     1       0.344  10.192  19.591  0.00  0.00    +0.000 A 
ATOM      2  C   UNL     1       0.634  11.174  20.537  0.00  0.00    +0.000 A 
ATOM      3  C   UNL     1      -0.233  12.248  20.735  0.00  0.00    +0.000 A 
ATOM      4  C   UNL     1      -1.406  12.344  19.990  0.00  0.00    +0.000 A 
ATOM      5  C   UNL     1      -1.717  11.379  19.025  0.00  0.00    +0.000 A 
ATOM      6  C   UNL     1      -0.812  10.325  18.811  0.00  0.00    +0.000 A 
ENDROOT
BRANCH   5   7
ATOM      7  C   UNL     1      -2.950  11.523  18.246  0.00  0.00    +0.000 A 
ATOM      8  N   UNL     1      -3.039  11.333  16.943  0.00  0.00    +0.000 NA
ATOM      9  N   UNL     1      -4.342  11.496  16.562  0.00  0.00    +0.000 NA
ATOM     10  C   UNL     1      -5.047  11.814  17.626  0.00  0.00    +0.000 A 
ATOM     11  N   UNL     1      -4.196  11.905  18.704  0.00  0.00    +0.000 N 
ATOM     12  C   UNL     1      -4.527  12.356  20.041  0.00  0.00    +0.000 C 
ATOM     13  C   UNL     1      -5.561  13.472  20.098  0.00  0.00    +0.000 C 
ATOM     14  C   UNL     1      -7.000  12.982  19.949  0.00  0.00    +0.000 C 
ATOM     15  C   UNL     1      -7.206  11.834  18.961  0.00  0.00    +0.000 C 
ATOM     16  C   UNL     1      -6.518  12.061  17.621  0.00  0.00    +0.000 C 
ENDBRANCH   5   7
BRANCH   1  19
ATOM     17  O   UNL     1       2.182   9.614  17.358  0.00  0.00    +0.000 OA
ATOM     18  C   UNL     1       1.992   8.846  18.293  0.00  0.00    +0.000 C 
ATOM     19  N   UNL     1       1.151   9.049  19.373  0.00  0.00    +0.000 N 
ATOM     20  H   UNL     1       1.209   8.393  20.140  0.00  0.00    +0.000 HD
BRANCH  18  21
ATOM     21  C   UNL     1       2.797   7.596  18.321  0.00  0.00    +0.000 A 
ATOM     22  C   UNL     1       2.504   6.665  19.326  0.00  0.00    +0.000 A 
ATOM     23  C   UNL     1       3.236   5.484  19.428  0.00  0.00    +0.000 A 
ATOM     24  C   UNL     1       4.260   5.219  18.521  0.00  0.00    +0.000 A 
ATOM     25  C   UNL     1       4.558   6.141  17.506  0.00  0.00    +0.000 A 
ATOM     26  C   UNL     1       3.835   7.345  17.416  0.00  0.00    +0.000 A 
BRANCH  25  27
ATOM     27  N   UNL     1       5.569   5.862  16.557  0.00  0.00    +0.000 N 
ATOM     28  C   UNL     1       5.455   5.448  15.254  0.00  0.00    +0.000 A 
ATOM     29  N   UNL     1       6.650   5.360  14.718  0.00  0.00    +0.000 NA
ATOM     30  N   UNL     1       7.526   5.723  15.708  0.00  0.00    +0.000 NA
ATOM     31  N   UNL     1       6.884   6.033  16.824  0.00  0.00    +0.000 NA
ENDBRANCH  25  27
ENDBRANCH  18  21
ENDBRANCH   1  19
TORSDOF 4
ENDMDL
MODEL 5
REMARK VINA RESULT:      -9.3      1.142      2.042
REMARK  Name = 
REMARK  4 active torsions:
REMARK  status: ('A' for Active; 'I' for Inactive)
REMARK    1  A    between atoms: C_2  and  C_20
REMARK    2  A    between atoms: N_3  and  C_4
REMARK    3  A    between atoms: C_8  and  C_9
REMARK    4  A    between atoms: C_24  and  N_25
REMARK                            x       y       z     vdW  Elec       q    Type
REMARK                         _______ _______ _______ _____ _____    ______ ____
ROOT
ATOM      1  C   UNL     1       1.838  10.525  18.110  0.00  0.00    +0.000 A 
ATOM      2  C   UNL     1       2.584  11.676  17.862  0.00  0.00    +0.000 A 
ATOM      3  C   UNL     1       2.080  12.935  18.187  0.00  0.00    +0.000 A 
ATOM      4  C   UNL     1       0.822  13.052  18.774  0.00  0.00    +0.000 A 
ATOM      5  C   UNL     1       0.045  11.914  19.023  0.00  0.00    +0.000 A 
ATOM      6  C   UNL     1       0.553  10.658  18.653  0.00  0.00    +0.000 A 
ENDROOT
BRANCH   5   7
ATOM      7  C   UNL     1      -1.282  12.076  19.624  0.00  0.00    +0.000 A 
ATOM      8  N   UNL     1      -1.500  12.357  20.895  0.00  0.00    +0.000 NA
ATOM      9  N   UNL     1      -2.846  12.491  21.092  0.00  0.00    +0.000 NA
ATOM     10  C   UNL     1      -3.456  12.264  19.949  0.00  0.00    +0.000 A 
ATOM     11  N   UNL     1      -2.510  11.934  19.005  0.00  0.00    +0.000 N 
ATOM     12  C   UNL     1      -2.750  11.482  17.650  0.00  0.00    +0.000 C 
ATOM     13  C   UNL     1      -3.982  10.604  17.481  0.00  0.00    +0.000 C 
ATOM     14  C   UNL     1      -5.290  11.389  17.410  0.00  0.00    +0.000 C 
ATOM     15  C   UNL     1      -5.374  12.612  18.323  0.00  0.00    +0.000 C 
ATOM     16  C   UNL     1      -4.933  12.328  19.754  0.00  0.00    +0.000 C 
ENDBRANCH   5   7
BRANCH   1  19
ATOM     17  O   UNL     1       1.729   8.141  19.842  0.00  0.00    +0.000 OA
ATOM     18  C   UNL     1       2.224   8.141  18.722  0.00  0.00    +0.000 C 
ATOM     19  N   UNL     1       2.308   9.214  17.854  0.00  0.00    +0.000 N 
ATOM     20  H   UNL     1       2.609   9.028  16.907  0.00  0.00    +0.000 HD
BRANCH  18  21
ATOM     21  C   UNL     1       2.722   6.840  18.198  0.00  0.00    +0.000 A 
ATOM     22  C   UNL     1       1.854   5.743  18.270  0.00  0.00    +0.000 A 
ATOM     23  C   UNL     1       2.264   4.490  17.821  0.00  0.00    +0.000 A 
ATOM     24  C   UNL     1       3.541   4.324  17.288  0.00  0.00    +0.000 A 
ATOM     25  C   UNL     1       4.416   5.418  17.204  0.00  0.00    +0.000 A 
ATOM     26  C   UNL     1       4.011   6.680  17.678  0.00  0.00    +0.000 A 
BRANCH  25  27
ATOM     27  N   UNL     1       5.699   5.268  16.628  0.00  0.00    +0.000 N 
ATOM     28  C   UNL     1       6.760   4.503  17.043  0.00  0.00    +0.000 A 
ATOM     29  N   UNL     1       7.743   4.619  16.182  0.00  0.00    +0.000 NA
ATOM     30  N   UNL     1       7.289   5.475  15.213  0.00  0.00    +0.000 NA
ATOM     31  N   UNL     1       6.051   5.872  15.470  0.00  0.00    +0.000 NA
ENDBRANCH  25  27
ENDBRANCH  18  21
ENDBRANCH   1  19
TORSDOF 4
ENDMDL
MODEL 6
REMARK VINA RESULT:      -9.3      2.525      3.115
REMARK  Name = 
REMARK  4 active torsions:
REMARK  status: ('A' for Active; 'I' for Inactive)
REMARK    1  A    between atoms: C_2  and  C_20
REMARK    2  A    between atoms: N_3  and  C_4
REMARK    3  A    between atoms: C_8  and  C_9
REMARK    4  A    between atoms: C_24  and  N_25
REMARK                            x       y       z     vdW  Elec       q    Type
REMARK                         _______ _______ _______ _____ _____    ______ ____
ROOT
ATOM      1  C   UNL     1       0.299  10.139  19.601  0.00  0.00    +0.000 A 
ATOM      2  C   UNL     1       0.630  11.139  20.515  0.00  0.00    +0.000 A 
ATOM      3  C   UNL     1      -0.205  12.242  20.695  0.00  0.00    +0.000 A 
ATOM      4  C   UNL     1      -1.386  12.348  19.963  0.00  0.00    +0.000 A 
ATOM      5  C   UNL     1      -1.736  11.366  19.030  0.00  0.00    +0.000 A 
ATOM      6  C   UNL     1      -0.863  10.282  18.834  0.00  0.00    +0.000 A 
ENDROOT
BRANCH   5   7
ATOM      7  C   UNL     1      -2.976  11.521  18.264  0.00  0.00    +0.000 A 
ATOM      8  N   UNL     1      -3.081  11.328  16.962  0.00  0.00    +0.000 NA
ATOM      9  N   UNL     1      -4.386  11.506  16.595  0.00  0.00    +0.000 NA
ATOM     10  C   UNL     1      -5.076  11.835  17.666  0.00  0.00    +0.000 A 
ATOM     11  N   UNL     1      -4.212  11.920  18.734  0.00  0.00    +0.000 N 
ATOM     12  C   UNL     1      -4.523  12.380  20.073  0.00  0.00    +0.000 C 
ATOM     13  C   UNL     1      -5.544  13.509  20.137  0.00  0.00    +0.000 C 
ATOM     14  C   UNL     1      -6.990  13.035  20.005  0.00  0.00    +0.000 C 
ATOM     15  C   UNL     1      -7.220  11.886  19.024  0.00  0.00    +0.000 C 
ATOM     16  C   UNL     1      -6.544  12.099  17.675  0.00  0.00    +0.000 C 
ENDBRANCH   5   7
BRANCH   1  19
ATOM     17  O   UNL     1       2.172   9.494  17.416  0.00  0.00    +0.000 OA
ATOM     18  C   UNL     1       1.932   8.735  18.347  0.00  0.00    +0.000 C 
ATOM     19  N   UNL     1       1.072   8.969  19.405  0.00  0.00    +0.000 N 
ATOM     20  H   UNL     1       1.088   8.313  20.174  0.00  0.00    +0.000 HD
BRANCH  18  21
ATOM     21  C   UNL     1       2.694   7.458  18.397  0.00  0.00    +0.000 A 
ATOM     22  C   UNL     1       3.704   7.274  17.444  0.00  0.00    +0.000 A 
ATOM     23  C   UNL     1       4.440   6.091  17.418  0.00  0.00    +0.000 A 
ATOM     24  C   UNL     1       4.179   5.087  18.348  0.00  0.00    +0.000 A 
ATOM     25  C   UNL     1       3.174   5.264  19.313  0.00  0.00    +0.000 A 
ATOM     26  C   UNL     1       2.415   6.449  19.326  0.00  0.00    +0.000 A 
BRANCH  25  27
ATOM     27  N   UNL     1       2.930   4.267  20.286  0.00  0.00    +0.000 N 
ATOM     28  C   UNL     1       3.440   2.997  20.383  0.00  0.00    +0.000 A 
ATOM     29  N   UNL     1       2.986   2.428  21.475  0.00  0.00    +0.000 NA
ATOM     30  N   UNL     1       2.175   3.360  22.069  0.00  0.00    +0.000 NA
ATOM     31  N   UNL     1       2.137   4.480  21.360  0.00  0.00    +0.000 NA
ENDBRANCH  25  27
ENDBRANCH  18  21
ENDBRANCH   1  19
TORSDOF 4
ENDMDL
MODEL 7
REMARK VINA RESULT:      -9.3      1.210      1.261
REMARK  Name = 
REMARK  4 active torsions:
REMARK  status: ('A' for Active; 'I' for Inactive)
REMARK    1  A    between atoms: C_2  and  C_20
REMARK    2  A    between atoms: N_3  and  C_4
REMARK    3  A    between atoms: C_8  and  C_9
REMARK    4  A    between atoms: C_24  and  N_25
REMARK                            x       y       z     vdW  Elec       q    Type
REMARK                         _______ _______ _______ _____ _____    ______ ____
ROOT
ATOM      1  C   UNL     1       0.511  10.368  19.138  0.00  0.00    +0.000 A 
ATOM      2  C   UNL     1       1.004  11.576  19.630  0.00  0.00    +0.000 A 
ATOM      3  C   UNL     1       0.230  12.735  19.577  0.00  0.00    +0.000 A 
ATOM      4  C   UNL     1      -1.053  12.692  19.036  0.00  0.00    +0.000 A 
ATOM      5  C   UNL     1      -1.569  11.496  18.523  0.00  0.00    +0.000 A 
ATOM      6  C   UNL     1      -0.760  10.347  18.550  0.00  0.00    +0.000 A 
ENDROOT
BRANCH   5   7
ATOM      7  C   UNL     1      -2.915  11.492  17.944  0.00  0.00    +0.000 A 
ATOM      8  N   UNL     1      -3.187  11.210  16.683  0.00  0.00    +0.000 NA
ATOM      9  N   UNL     1      -4.542  11.247  16.506  0.00  0.00    +0.000 NA
ATOM     10  C   UNL     1      -5.100  11.579  17.651  0.00  0.00    +0.000 A 
ATOM     11  N   UNL     1      -4.104  11.807  18.573  0.00  0.00    +0.000 N 
ATOM     12  C   UNL     1      -4.263  12.318  19.920  0.00  0.00    +0.000 C 
ATOM     13  C   UNL     1      -5.369  13.353  20.081  0.00  0.00    +0.000 C 
ATOM     14  C   UNL     1      -6.766  12.744  20.188  0.00  0.00    +0.000 C 
ATOM     15  C   UNL     1      -7.021  11.521  19.309  0.00  0.00    +0.000 C 
ATOM     16  C   UNL     1      -6.570  11.710  17.866  0.00  0.00    +0.000 C 
ENDBRANCH   5   7
BRANCH   1  19
ATOM     17  O   UNL     1       2.247   9.113  17.112  0.00  0.00    +0.000 OA
ATOM     18  C   UNL     1       2.018   8.616  18.207  0.00  0.00    +0.000 C 
ATOM     19  N   UNL     1       1.221   9.145  19.207  0.00  0.00    +0.000 N 
ATOM     20  H   UNL     1       1.244   8.694  20.111  0.00  0.00    +0.000 HD
BRANCH  18  21
ATOM     21  C   UNL     1       2.723   7.349  18.541  0.00  0.00    +0.000 A 
ATOM     22  C   UNL     1       2.269   6.635  19.657  0.00  0.00    +0.000 A 
ATOM     23  C   UNL     1       2.899   5.453  20.042  0.00  0.00    +0.000 A 
ATOM     24  C   UNL     1       3.982   4.971  19.310  0.00  0.00    +0.000 A 
ATOM     25  C   UNL     1       4.440   5.674  18.185  0.00  0.00    +0.000 A 
ATOM     26  C   UNL     1       3.820   6.879  17.809  0.00  0.00    +0.000 A 
BRANCH  25  27
ATOM     27  N   UNL     1       5.513   5.171  17.412  0.00  0.00    +0.000 N 
ATOM     28  C   UNL     1       6.865   5.325  17.588  0.00  0.00    +0.000 A 
ATOM     29  N   UNL     1       7.505   4.643  16.667  0.00  0.00    +0.000 NA
ATOM     30  N   UNL     1       6.533   4.055  15.900  0.00  0.00    +0.000 NA
ATOM     31  N   UNL     1       5.323   4.363  16.344  0.00  0.00    +0.000 NA
ENDBRANCH  25  27
ENDBRANCH  18  21
ENDBRANCH   1  19
TORSDOF 4
ENDMDL
MODEL 8
REMARK VINA RESULT:      -9.2      3.686     10.335
REMARK  Name = 
REMARK  4 active torsions:
REMARK  status: ('A' for Active; 'I' for Inactive)
REMARK    1  A    between atoms: C_2  and  C_20
REMARK    2  A    between atoms: N_3  and  C_4
REMARK    3  A    between atoms: C_8  and  C_9
REMARK    4  A    between atoms: C_24  and  N_25
REMARK                            x       y       z     vdW  Elec       q    Type
REMARK                         _______ _______ _______ _____ _____    ______ ____
ROOT
ATOM      1  C   UNL     1       1.909   5.761  20.625  0.00  0.00    +0.000 A 
ATOM      2  C   UNL     1       1.253   4.533  20.695  0.00  0.00    +0.000 A 
ATOM      3  C   UNL     1       1.859   3.374  20.209  0.00  0.00    +0.000 A 
ATOM      4  C   UNL     1       3.135   3.435  19.654  0.00  0.00    +0.000 A 
ATOM      5  C   UNL     1       3.812   4.656  19.559  0.00  0.00    +0.000 A 
ATOM      6  C   UNL     1       3.170   5.819  20.018  0.00  0.00    +0.000 A 
ENDROOT
BRANCH   5   7
ATOM      7  C   UNL     1       5.145   4.686  18.952  0.00  0.00    +0.000 A 
ATOM      8  N   UNL     1       6.278   4.628  19.627  0.00  0.00    +0.000 NA
ATOM      9  N   UNL     1       7.319   4.621  18.741  0.00  0.00    +0.000 NA
ATOM     10  C   UNL     1       6.827   4.704  17.524  0.00  0.00    +0.000 A 
ATOM     11  N   UNL     1       5.458   4.812  17.611  0.00  0.00    +0.000 N 
ATOM     12  C   UNL     1       4.531   5.056  16.525  0.00  0.00    +0.000 C 
ATOM     13  C   UNL     1       5.057   5.980  15.435  0.00  0.00    +0.000 C 
ATOM     14  C   UNL     1       5.983   5.286  14.438  0.00  0.00    +0.000 C 
ATOM     15  C   UNL     1       6.920   4.234  15.031  0.00  0.00    +0.000 C 
ATOM     16  C   UNL     1       7.650   4.712  16.280  0.00  0.00    +0.000 C 
ENDBRANCH   5   7
BRANCH   1  19
ATOM     17  O   UNL     1       1.779   8.427  19.369  0.00  0.00    +0.000 OA
ATOM     18  C   UNL     1       1.354   8.187  20.492  0.00  0.00    +0.000 C 
ATOM     19  N   UNL     1       1.377   6.966  21.144  0.00  0.00    +0.000 N 
ATOM     20  H   UNL     1       0.857   6.887  22.007  0.00  0.00    +0.000 HD
BRANCH  18  21
ATOM     21  C   UNL     1       0.673   9.296  21.213  0.00  0.00    +0.000 A 
ATOM     22  C   UNL     1      -0.108   8.955  22.325  0.00  0.00    +0.000 A 
ATOM     23  C   UNL     1      -0.795   9.940  23.032  0.00  0.00    +0.000 A 
ATOM     24  C   UNL     1      -0.700  11.273  22.639  0.00  0.00    +0.000 A 
ATOM     25  C   UNL     1       0.086  11.627  21.532  0.00  0.00    +0.000 A 
ATOM     26  C   UNL     1       0.762  10.631  20.803  0.00  0.00    +0.000 A 
BRANCH  25  27
ATOM     27  N   UNL     1       0.221  12.983  21.151  0.00  0.00    +0.000 N 
ATOM     28  C   UNL     1      -0.570  13.742  20.326  0.00  0.00    +0.000 A 
ATOM     29  N   UNL     1      -0.109  14.970  20.289  0.00  0.00    +0.000 NA
ATOM     30  N   UNL     1       0.993  14.976  21.104  0.00  0.00    +0.000 NA
ATOM     31  N   UNL     1       1.200  13.780  21.635  0.00  0.00    +0.000 NA
ENDBRANCH  25  27
ENDBRANCH  18  21
ENDBRANCH   1  19
TORSDOF 4
ENDMDL
MODEL 9
REMARK VINA RESULT:      -9.1      3.161      5.217
REMARK  Name = 
REMARK  4 active torsions:
REMARK  status: ('A' for Active; 'I' for Inactive)
REMARK    1  A    between atoms: C_2  and  C_20
REMARK    2  A    between atoms: N_3  and  C_4
REMARK    3  A    between atoms: C_8  and  C_9
REMARK    4  A    between atoms: C_24  and  N_25
REMARK                            x       y       z     vdW  Elec       q    Type
REMARK                         _______ _______ _______ _____ _____    ______ ____
ROOT
ATOM      1  C   UNL     1       0.573  10.010  19.427  0.00  0.00    +0.000 A 
ATOM      2  C   UNL     1      -0.704  10.111  18.876  0.00  0.00    +0.000 A 
ATOM      3  C   UNL     1      -1.421  11.305  18.957  0.00  0.00    +0.000 A 
ATOM      4  C   UNL     1      -0.860  12.414  19.586  0.00  0.00    +0.000 A 
ATOM      5  C   UNL     1       0.415  12.337  20.159  0.00  0.00    +0.000 A 
ATOM      6  C   UNL     1       1.106  11.115  20.102  0.00  0.00    +0.000 A 
ENDROOT
BRANCH   5   7
ATOM      7  C   UNL     1       0.966  13.518  20.830  0.00  0.00    +0.000 A 
ATOM      8  N   UNL     1       0.707  13.859  22.078  0.00  0.00    +0.000 NA
ATOM      9  N   UNL     1       1.431  14.977  22.389  0.00  0.00    +0.000 NA
ATOM     10  C   UNL     1       2.112  15.337  21.323  0.00  0.00    +0.000 A 
ATOM     11  N   UNL     1       1.800  14.480  20.293  0.00  0.00    +0.000 N 
ATOM     12  C   UNL     1       2.221  14.588  18.911  0.00  0.00    +0.000 C 
ATOM     13  C   UNL     1       2.327  16.014  18.387  0.00  0.00    +0.000 C 
ATOM     14  C   UNL     1       3.618  16.722  18.795  0.00  0.00    +0.000 C 
ATOM     15  C   UNL     1       4.121  16.413  20.205  0.00  0.00    +0.000 C 
ATOM     16  C   UNL     1       3.034  16.508  21.269  0.00  0.00    +0.000 C 
ENDBRANCH   5   7
BRANCH   1  19
ATOM     17  O   UNL     1       2.231   9.069  17.177  0.00  0.00    +0.000 OA
ATOM     18  C   UNL     1       2.129   8.468  18.239  0.00  0.00    +0.000 C 
ATOM     19  N   UNL     1       1.376   8.848  19.336  0.00  0.00    +0.000 N 
ATOM     20  H   UNL     1       1.506   8.329  20.194  0.00  0.00    +0.000 HD
BRANCH  18  21
ATOM     21  C   UNL     1       2.952   7.241  18.408  0.00  0.00    +0.000 A 
ATOM     22  C   UNL     1       2.567   6.342  19.411  0.00  0.00    +0.000 A 
ATOM     23  C   UNL     1       3.308   5.185  19.642  0.00  0.00    +0.000 A 
ATOM     24  C   UNL     1       4.434   4.912  18.867  0.00  0.00    +0.000 A 
ATOM     25  C   UNL     1       4.824   5.802  17.854  0.00  0.00    +0.000 A 
ATOM     26  C   UNL     1       4.090   6.983  17.635  0.00  0.00    +0.000 A 
BRANCH  25  27
ATOM     27  N   UNL     1       5.942   5.513  17.037  0.00  0.00    +0.000 N 
ATOM     28  C   UNL     1       6.901   4.543  17.179  0.00  0.00    +0.000 A 
ATOM     29  N   UNL     1       7.728   4.596  16.161  0.00  0.00    +0.000 NA
ATOM     30  N   UNL     1       7.278   5.621  15.371  0.00  0.00    +0.000 NA
ATOM     31  N   UNL     1       6.194   6.181  15.888  0.00  0.00    +0.000 NA
ENDBRANCH  25  27
ENDBRANCH  18  21
ENDBRANCH   1  19
TORSDOF 4
ENDMDL
