MODEL 1
REMARK VINA RESULT:      -8.5      0.000      0.000
REMARK  Name = 
REMARK  4 active torsions:
REMARK  status: ('A' for Active; 'I' for Inactive)
REMARK    1  A    between atoms: C_1  and  C_2
REMARK    2  A    between atoms: C_4  and  C_5
REMARK    3  A    between atoms: C_10  and  C_11
REMARK    4  A    between atoms: N_13  and  C_14
REMARK                            x       y       z     vdW  Elec       q    Type
REMARK                         _______ _______ _______ _____ _____    ______ ____
ROOT
ATOM      1  C   UNL     1       1.128  11.142  18.662  0.00  0.00    +0.000 C 
ATOM      2  O   UNL     1      -0.028  11.544  18.731  0.00  0.00    +0.000 OA
ATOM      3  N   UNL     1       2.202  11.939  18.316  0.00  0.00    +0.000 N 
ATOM      4  H   UNL     1       3.140  11.569  18.382  0.00  0.00    +0.000 HD
ENDROOT
BRANCH   1  14
ATOM      5  C   UNL     1       2.362   2.783  21.690  0.00  0.00    +0.000 C 
ATOM      6  C   UNL     1       2.592   3.797  20.633  0.00  0.00    +0.000 A 
ATOM      7  C   UNL     1       3.253   3.621  19.407  0.00  0.00    +0.000 A 
ATOM      8  C   UNL     1       3.207   4.849  18.782  0.00  0.00    +0.000 A 
ATOM      9  C   UNL     1       3.778   5.252  17.473  0.00  0.00    +0.000 C 
ATOM     10  N   UNL     1       2.503   5.697  19.632  0.00  0.00    +0.000 N 
ATOM     11  C   UNL     1       2.138   7.072  19.415  0.00  0.00    +0.000 A 
ATOM     12  C   UNL     1       1.478   7.774  20.427  0.00  0.00    +0.000 A 
ATOM     13  C   UNL     1       1.125   9.114  20.213  0.00  0.00    +0.000 A 
ATOM     14  C   UNL     1       1.431   9.724  18.995  0.00  0.00    +0.000 A 
ATOM     15  C   UNL     1       2.094   8.955  18.048  0.00  0.00    +0.000 A 
ATOM     16  N   UNL     1       2.445   7.656  18.227  0.00  0.00    +0.000 NA
ATOM     17  N   UNL     1       2.150   5.050  20.785  0.00  0.00    +0.000 NA
ENDBRANCH   1  14
BRANCH   3  18
ATOM     18  C   UNL     1       2.067  13.328  17.972  0.00  0.00    +0.000 C 
ATOM     19  C   UNL     1       3.231  14.238  18.294  0.00  0.00    +0.000 C 
ATOM     20  C   UNL     1       3.663  15.345  17.372  0.00  0.00    +0.000 C 
ATOM     21  C   UNL     1       3.369  16.702  18.025  0.00  0.00    +0.000 C 
ATOM     22  C   UNL     1       1.876  16.838  18.226  0.00  0.00    +0.000 A 
ATOM     23  C   UNL     1       1.223  18.042  17.936  0.00  0.00    +0.000 A 
ATOM     24  C   UNL     1      -0.161  18.121  18.066  0.00  0.00    +0.000 A 
ATOM     25  C   UNL     1      -0.886  17.015  18.498  0.00  0.00    +0.000 A 
ATOM     26  C   UNL     1      -0.232  15.820  18.814  0.00  0.00    +0.000 A 
ATOM     27  C   UNL     1       1.158  15.707  18.689  0.00  0.00    +0.000 A 
ATOM     28  C   UNL     1       1.902  14.418  19.008  0.00  0.00    +0.000 C 
ENDBRANCH   3  18
TORSDOF 2
ENDMDL
MODEL 2
REMARK VINA RESULT:      -8.4      6.382     11.304
REMARK  Name = 
REMARK  4 active torsions:
REMARK  status: ('A' for Active; 'I' for Inactive)
REMARK    1  A    between atoms: C_1  and  C_2
REMARK    2  A    between atoms: C_4  and  C_5
REMARK    3  A    between atoms: C_10  and  C_11
REMARK    4  A    between atoms: N_13  and  C_14
REMARK                            x       y       z     vdW  Elec       q    Type
REMARK                         _______ _______ _______ _____ _____    ______ ____
ROOT
ATOM      1  C   UNL     1       8.170   8.527  18.288  0.00  0.00    +0.000 C 
ATOM      2  O   UNL     1       8.762   7.700  18.973  0.00  0.00    +0.000 OA
ATOM      3  N   UNL     1       7.044   8.243  17.540  0.00  0.00    +0.000 N 
ATOM      4  H   UNL     1       6.545   8.995  17.083  0.00  0.00    +0.000 HD
ENDROOT
BRANCH   1  14
ATOM      5  C   UNL     1      10.101  17.252  17.448  0.00  0.00    +0.000 C 
ATOM      6  C   UNL     1      10.458  15.920  17.992  0.00  0.00    +0.000 A 
ATOM      7  C   UNL     1      11.536  15.599  18.833  0.00  0.00    +0.000 A 
ATOM      8  C   UNL     1      11.439  14.241  19.056  0.00  0.00    +0.000 A 
ATOM      9  C   UNL     1      12.333  13.360  19.847  0.00  0.00    +0.000 C 
ATOM     10  N   UNL     1      10.304  13.810  18.376  0.00  0.00    +0.000 N 
ATOM     11  C   UNL     1       9.739  12.487  18.337  0.00  0.00    +0.000 A 
ATOM     12  C   UNL     1       8.619  12.244  17.537  0.00  0.00    +0.000 A 
ATOM     13  C   UNL     1       8.072  10.953  17.500  0.00  0.00    +0.000 A 
ATOM     14  C   UNL     1       8.647   9.935  18.264  0.00  0.00    +0.000 A 
ATOM     15  C   UNL     1       9.762  10.263  19.024  0.00  0.00    +0.000 A 
ATOM     16  N   UNL     1      10.310  11.504  19.082  0.00  0.00    +0.000 NA
ATOM     17  N   UNL     1       9.719  14.845  17.697  0.00  0.00    +0.000 NA
ENDBRANCH   1  14
BRANCH   3  18
ATOM     18  C   UNL     1       6.463   6.930  17.466  0.00  0.00    +0.000 C 
ATOM     19  C   UNL     1       6.630   6.170  16.170  0.00  0.00    +0.000 C 
ATOM     20  C   UNL     1       6.888   4.689  16.136  0.00  0.00    +0.000 C 
ATOM     21  C   UNL     1       5.666   3.967  15.552  0.00  0.00    +0.000 C 
ATOM     22  C   UNL     1       4.478   4.198  16.458  0.00  0.00    +0.000 A 
ATOM     23  C   UNL     1       3.607   3.149  16.775  0.00  0.00    +0.000 A 
ATOM     24  C   UNL     1       2.559   3.370  17.665  0.00  0.00    +0.000 A 
ATOM     25  C   UNL     1       2.371   4.632  18.221  0.00  0.00    +0.000 A 
ATOM     26  C   UNL     1       3.225   5.688  17.885  0.00  0.00    +0.000 A 
ATOM     27  C   UNL     1       4.291   5.495  16.997  0.00  0.00    +0.000 A 
ATOM     28  C   UNL     1       5.249   6.616  16.621  0.00  0.00    +0.000 C 
ENDBRANCH   3  18
TORSDOF 2
ENDMDL
MODEL 3
REMARK VINA RESULT:      -8.4      5.615     11.331
REMARK  Name = 
REMARK  4 active torsions:
REMARK  status: ('A' for Active; 'I' for Inactive)
REMARK    1  A    between atoms: C_1  and  C_2
REMARK    2  A    between atoms: C_4  and  C_5
REMARK    3  A    between atoms: C_10  and  C_11
REMARK    4  A    between atoms: N_13  and  C_14
REMARK                            x       y       z     vdW  Elec       q    Type
REMARK                         _______ _______ _______ _____ _____    ______ ____
ROOT
ATOM      1  C   UNL     1       8.317   8.843  18.228  0.00  0.00    +0.000 C 
ATOM      2  O   UNL     1       8.860   8.091  19.030  0.00  0.00    +0.000 OA
ATOM      3  N   UNL     1       7.244   8.480  17.437  0.00  0.00    +0.000 N 
ATOM      4  H   UNL     1       6.778   9.180  16.876  0.00  0.00    +0.000 HD
ENDROOT
BRANCH   1  14
ATOM      5  C   UNL     1      12.324  16.837  17.455  0.00  0.00    +0.000 C 
ATOM      6  C   UNL     1      11.072  16.050  17.560  0.00  0.00    +0.000 A 
ATOM      7  C   UNL     1       9.753  16.527  17.506  0.00  0.00    +0.000 A 
ATOM      8  C   UNL     1       8.950  15.415  17.653  0.00  0.00    +0.000 A 
ATOM      9  C   UNL     1       7.469  15.333  17.703  0.00  0.00    +0.000 C 
ATOM     10  N   UNL     1       9.807  14.323  17.758  0.00  0.00    +0.000 N 
ATOM     11  C   UNL     1       9.463  12.931  17.874  0.00  0.00    +0.000 A 
ATOM     12  C   UNL     1      10.479  11.985  18.032  0.00  0.00    +0.000 A 
ATOM     13  C   UNL     1      10.140  10.628  18.146  0.00  0.00    +0.000 A 
ATOM     14  C   UNL     1       8.798  10.244  18.095  0.00  0.00    +0.000 A 
ATOM     15  C   UNL     1       7.853  11.250  17.944  0.00  0.00    +0.000 A 
ATOM     16  N   UNL     1       8.153  12.569  17.827  0.00  0.00    +0.000 NA
ATOM     17  N   UNL     1      11.115  14.724  17.729  0.00  0.00    +0.000 NA
ENDBRANCH   1  14
BRANCH   3  18
ATOM     18  C   UNL     1       6.666   7.164  17.456  0.00  0.00    +0.000 C 
ATOM     19  C   UNL     1       6.946   6.267  16.271  0.00  0.00    +0.000 C 
ATOM     20  C   UNL     1       7.201   4.792  16.424  0.00  0.00    +0.000 C 
ATOM     21  C   UNL     1       6.034   4.004  15.815  0.00  0.00    +0.000 C 
ATOM     22  C   UNL     1       4.770   4.326  16.579  0.00  0.00    +0.000 A 
ATOM     23  C   UNL     1       3.869   3.313  16.929  0.00  0.00    +0.000 A 
ATOM     24  C   UNL     1       2.746   3.625  17.692  0.00  0.00    +0.000 A 
ATOM     25  C   UNL     1       2.513   4.938  18.086  0.00  0.00    +0.000 A 
ATOM     26  C   UNL     1       3.398   5.956  17.714  0.00  0.00    +0.000 A 
ATOM     27  C   UNL     1       4.539   5.674  16.953  0.00  0.00    +0.000 A 
ATOM     28  C   UNL     1       5.532   6.752  16.544  0.00  0.00    +0.000 C 
ENDBRANCH   3  18
TORSDOF 2
ENDMDL
MODEL 4
REMARK VINA RESULT:      -8.3      3.168      9.708
REMARK  Name = 
REMARK  4 active torsions:
REMARK  status: ('A' for Active; 'I' for Inactive)
REMARK    1  A    between atoms: C_1  and  C_2
REMARK    2  A    between atoms: C_4  and  C_5
REMARK    3  A    between atoms: C_10  and  C_11
REMARK    4  A    between atoms: N_13  and  C_14
REMARK                            x       y       z     vdW  Elec       q    Type
REMARK                         _______ _______ _______ _____ _____    ______ ____
ROOT
ATOM      1  C   UNL     1       1.871   9.018  18.232  0.00  0.00    +0.000 C 
ATOM      2  O   UNL     1       2.194   9.284  17.080  0.00  0.00    +0.000 OA
ATOM      3  N   UNL     1       2.016   7.769  18.805  0.00  0.00    +0.000 N 
ATOM      4  H   UNL     1       1.829   7.646  19.790  0.00  0.00    +0.000 HD
ENDROOT
BRANCH   1  14
ATOM      5  C   UNL     1      -0.884  16.245  22.787  0.00  0.00    +0.000 C 
ATOM      6  C   UNL     1      -0.878  14.771  22.628  0.00  0.00    +0.000 A 
ATOM      7  C   UNL     1      -1.577  13.824  23.395  0.00  0.00    +0.000 A 
ATOM      8  C   UNL     1      -1.243  12.597  22.861  0.00  0.00    +0.000 A 
ATOM      9  C   UNL     1      -1.667  11.243  23.297  0.00  0.00    +0.000 C 
ATOM     10  N   UNL     1      -0.393  12.852  21.789  0.00  0.00    +0.000 N 
ATOM     11  C   UNL     1       0.191  11.909  20.873  0.00  0.00    +0.000 A 
ATOM     12  C   UNL     1       1.077  12.364  19.892  0.00  0.00    +0.000 A 
ATOM     13  C   UNL     1       1.646  11.442  19.002  0.00  0.00    +0.000 A 
ATOM     14  C   UNL     1       1.316  10.088  19.103  0.00  0.00    +0.000 A 
ATOM     15  C   UNL     1       0.433   9.723  20.111  0.00  0.00    +0.000 A 
ATOM     16  N   UNL     1      -0.134  10.594  20.983  0.00  0.00    +0.000 NA
ATOM     17  N   UNL     1      -0.148  14.193  21.668  0.00  0.00    +0.000 NA
ENDBRANCH   1  14
BRANCH   3  18
ATOM     18  C   UNL     1       2.541   6.637  18.091  0.00  0.00    +0.000 C 
ATOM     19  C   UNL     1       2.942   5.429  18.906  0.00  0.00    +0.000 C 
ATOM     20  C   UNL     1       2.690   4.023  18.433  0.00  0.00    +0.000 C 
ATOM     21  C   UNL     1       4.028   3.341  18.117  0.00  0.00    +0.000 C 
ATOM     22  C   UNL     1       4.704   4.083  16.986  0.00  0.00    +0.000 A 
ATOM     23  C   UNL     1       5.325   3.386  15.944  0.00  0.00    +0.000 A 
ATOM     24  C   UNL     1       5.882   4.091  14.880  0.00  0.00    +0.000 A 
ATOM     25  C   UNL     1       5.836   5.482  14.865  0.00  0.00    +0.000 A 
ATOM     26  C   UNL     1       5.240   6.182  15.920  0.00  0.00    +0.000 A 
ATOM     27  C   UNL     1       4.667   5.500  17.001  0.00  0.00    +0.000 A 
ATOM     28  C   UNL     1       3.996   6.227  18.157  0.00  0.00    +0.000 C 
ENDBRANCH   3  18
TORSDOF 2
ENDMDL
MODEL 5
REMARK VINA RESULT:      -8.3      3.117      9.639
REMARK  Name = 
REMARK  4 active torsions:
REMARK  status: ('A' for Active; 'I' for Inactive)
REMARK    1  A    between atoms: C_1  and  C_2
REMARK    2  A    between atoms: C_4  and  C_5
REMARK    3  A    between atoms: C_10  and  C_11
REMARK    4  A    between atoms: N_13  and  C_14
REMARK                            x       y       z     vdW  Elec       q    Type
REMARK                         _______ _______ _______ _____ _____    ______ ____
ROOT
ATOM      1  C   UNL     1       1.632   9.243  18.550  0.00  0.00    +0.000 C 
ATOM      2  O   UNL     1       1.931   9.643  17.430  0.00  0.00    +0.000 OA
ATOM      3  N   UNL     1       1.877   7.961  19.001  0.00  0.00    +0.000 N 
ATOM      4  H   UNL     1       1.702   7.729  19.970  0.00  0.00    +0.000 HD
ENDROOT
BRANCH   1  14
ATOM      5  C   UNL     1      -2.967  13.989  24.624  0.00  0.00    +0.000 C 
ATOM      6  C   UNL     1      -1.868  13.924  23.631  0.00  0.00    +0.000 A 
ATOM      7  C   UNL     1      -0.931  14.924  23.325  0.00  0.00    +0.000 A 
ATOM      8  C   UNL     1      -0.125  14.387  22.343  0.00  0.00    +0.000 A 
ATOM      9  C   UNL     1       1.013  15.013  21.624  0.00  0.00    +0.000 C 
ATOM     10  N   UNL     1      -0.583  13.092  22.122  0.00  0.00    +0.000 N 
ATOM     11  C   UNL     1      -0.045  12.097  21.232  0.00  0.00    +0.000 A 
ATOM     12  C   UNL     1      -0.693  10.866  21.108  0.00  0.00    +0.000 A 
ATOM     13  C   UNL     1      -0.167   9.899  20.238  0.00  0.00    +0.000 A 
ATOM     14  C   UNL     1       0.996  10.178  19.516  0.00  0.00    +0.000 A 
ATOM     15  C   UNL     1       1.570  11.429  19.694  0.00  0.00    +0.000 A 
ATOM     16  N   UNL     1       1.085  12.381  20.531  0.00  0.00    +0.000 NA
ATOM     17  N   UNL     1      -1.677  12.821  22.900  0.00  0.00    +0.000 NA
ENDBRANCH   1  14
BRANCH   3  18
ATOM     18  C   UNL     1       2.488   6.947  18.185  0.00  0.00    +0.000 C 
ATOM     19  C   UNL     1       2.302   5.508  18.611  0.00  0.00    +0.000 C 
ATOM     20  C   UNL     1       2.079   4.401  17.618  0.00  0.00    +0.000 C 
ATOM     21  C   UNL     1       3.300   3.471  17.603  0.00  0.00    +0.000 C 
ATOM     22  C   UNL     1       4.509   4.255  17.143  0.00  0.00    +0.000 A 
ATOM     23  C   UNL     1       5.416   3.699  16.232  0.00  0.00    +0.000 A 
ATOM     24  C   UNL     1       6.484   4.465  15.772  0.00  0.00    +0.000 A 
ATOM     25  C   UNL     1       6.657   5.767  16.230  0.00  0.00    +0.000 A 
ATOM     26  C   UNL     1       5.768   6.314  17.161  0.00  0.00    +0.000 A 
ATOM     27  C   UNL     1       4.681   5.571  17.638  0.00  0.00    +0.000 A 
ATOM     28  C   UNL     1       3.684   6.139  18.638  0.00  0.00    +0.000 C 
ENDBRANCH   3  18
TORSDOF 2
ENDMDL
MODEL 6
REMARK VINA RESULT:      -8.3      4.129      9.589
REMARK  Name = 
REMARK  4 active torsions:
REMARK  status: ('A' for Active; 'I' for Inactive)
REMARK    1  A    between atoms: C_1  and  C_2
REMARK    2  A    between atoms: C_4  and  C_5
REMARK    3  A    between atoms: C_10  and  C_11
REMARK    4  A    between atoms: N_13  and  C_14
REMARK                            x       y       z     vdW  Elec       q    Type
REMARK                         _______ _______ _______ _____ _____    ______ ____
ROOT
ATOM      1  C   UNL     1       1.548   9.134  18.444  0.00  0.00    +0.000 C 
ATOM      2  O   UNL     1       2.053   9.607  17.432  0.00  0.00    +0.000 OA
ATOM      3  N   UNL     1       1.736   7.831  18.862  0.00  0.00    +0.000 N 
ATOM      4  H   UNL     1       1.377   7.538  19.761  0.00  0.00    +0.000 HD
ENDROOT
BRANCH   1  14
ATOM      5  C   UNL     1      -2.643  14.289  24.480  0.00  0.00    +0.000 C 
ATOM      6  C   UNL     1      -2.659  13.607  23.163  0.00  0.00    +0.000 A 
ATOM      7  C   UNL     1      -3.668  13.652  22.187  0.00  0.00    +0.000 A 
ATOM      8  C   UNL     1      -3.219  12.858  21.153  0.00  0.00    +0.000 A 
ATOM      9  C   UNL     1      -3.893  12.520  19.875  0.00  0.00    +0.000 C 
ATOM     10  N   UNL     1      -1.960  12.398  21.529  0.00  0.00    +0.000 N 
ATOM     11  C   UNL     1      -1.051  11.577  20.773  0.00  0.00    +0.000 A 
ATOM     12  C   UNL     1       0.151  11.169  21.358  0.00  0.00    +0.000 A 
ATOM     13  C   UNL     1       1.034  10.368  20.619  0.00  0.00    +0.000 A 
ATOM     14  C   UNL     1       0.704   9.997  19.314  0.00  0.00    +0.000 A 
ATOM     15  C   UNL     1      -0.512  10.441  18.814  0.00  0.00    +0.000 A 
ATOM     16  N   UNL     1      -1.384  11.219  19.505  0.00  0.00    +0.000 NA
ATOM     17  N   UNL     1      -1.632  12.840  22.782  0.00  0.00    +0.000 NA
ENDBRANCH   1  14
BRANCH   3  18
ATOM     18  C   UNL     1       2.527   6.880  18.130  0.00  0.00    +0.000 C 
ATOM     19  C   UNL     1       2.418   5.428  18.537  0.00  0.00    +0.000 C 
ATOM     20  C   UNL     1       2.415   4.311  17.529  0.00  0.00    +0.000 C 
ATOM     21  C   UNL     1       3.706   3.493  17.665  0.00  0.00    +0.000 C 
ATOM     22  C   UNL     1       4.888   4.382  17.350  0.00  0.00    +0.000 A 
ATOM     23  C   UNL     1       5.942   3.914  16.557  0.00  0.00    +0.000 A 
ATOM     24  C   UNL     1       6.987   4.773  16.225  0.00  0.00    +0.000 A 
ATOM     25  C   UNL     1       6.988   6.083  16.695  0.00  0.00    +0.000 A 
ATOM     26  C   UNL     1       5.949   6.544  17.510  0.00  0.00    +0.000 A 
ATOM     27  C   UNL     1       4.882   5.706  17.857  0.00  0.00    +0.000 A 
ATOM     28  C   UNL     1       3.726   6.177  18.727  0.00  0.00    +0.000 C 
ENDBRANCH   3  18
TORSDOF 2
ENDMDL
MODEL 7
REMARK VINA RESULT:      -8.3      2.855     10.100
REMARK  Name = 
REMARK  4 active torsions:
REMARK  status: ('A' for Active; 'I' for Inactive)
REMARK    1  A    between atoms: C_1  and  C_2
REMARK    2  A    between atoms: C_4  and  C_5
REMARK    3  A    between atoms: C_10  and  C_11
REMARK    4  A    between atoms: N_13  and  C_14
REMARK                            x       y       z     vdW  Elec       q    Type
REMARK                         _______ _______ _______ _____ _____    ______ ____
ROOT
ATOM      1  C   UNL     1       1.360   8.684  20.373  0.00  0.00    +0.000 C 
ATOM      2  O   UNL     1       1.168   7.915  21.308  0.00  0.00    +0.000 OA
ATOM      3  N   UNL     1       2.043   8.342  19.222  0.00  0.00    +0.000 N 
ATOM      4  H   UNL     1       2.073   8.990  18.447  0.00  0.00    +0.000 HD
ENDROOT
BRANCH   1  14
ATOM      5  C   UNL     1      -1.744  17.068  19.569  0.00  0.00    +0.000 C 
ATOM      6  C   UNL     1      -1.435  15.906  20.438  0.00  0.00    +0.000 A 
ATOM      7  C   UNL     1      -1.675  15.779  21.815  0.00  0.00    +0.000 A 
ATOM      8  C   UNL     1      -1.212  14.526  22.158  0.00  0.00    +0.000 A 
ATOM      9  C   UNL     1      -1.183  13.874  23.490  0.00  0.00    +0.000 C 
ATOM     10  N   UNL     1      -0.748  13.944  20.982  0.00  0.00    +0.000 N 
ATOM     11  C   UNL     1      -0.214  12.620  20.795  0.00  0.00    +0.000 A 
ATOM     12  C   UNL     1       0.260  12.244  19.536  0.00  0.00    +0.000 A 
ATOM     13  C   UNL     1       0.781  10.954  19.358  0.00  0.00    +0.000 A 
ATOM     14  C   UNL     1       0.812  10.065  20.435  0.00  0.00    +0.000 A 
ATOM     15  C   UNL     1       0.327  10.524  21.652  0.00  0.00    +0.000 A 
ATOM     16  N   UNL     1      -0.185  11.765  21.852  0.00  0.00    +0.000 NA
ATOM     17  N   UNL     1      -0.861  14.811  19.929  0.00  0.00    +0.000 NA
ENDBRANCH   1  14
BRANCH   3  18
ATOM     18  C   UNL     1       2.626   7.044  19.014  0.00  0.00    +0.000 C 
ATOM     19  C   UNL     1       3.508   6.867  17.799  0.00  0.00    +0.000 C 
ATOM     20  C   UNL     1       4.765   6.041  17.834  0.00  0.00    +0.000 C 
ATOM     21  C   UNL     1       4.578   4.784  16.974  0.00  0.00    +0.000 C 
ATOM     22  C   UNL     1       3.469   3.944  17.565  0.00  0.00    +0.000 A 
ATOM     23  C   UNL     1       3.601   2.554  17.665  0.00  0.00    +0.000 A 
ATOM     24  C   UNL     1       2.595   1.809  18.275  0.00  0.00    +0.000 A 
ATOM     25  C   UNL     1       1.457   2.443  18.764  0.00  0.00    +0.000 A 
ATOM     26  C   UNL     1       1.311   3.829  18.641  0.00  0.00    +0.000 A 
ATOM     27  C   UNL     1       2.308   4.606  18.038  0.00  0.00    +0.000 A 
ATOM     28  C   UNL     1       2.191   6.117  17.901  0.00  0.00    +0.000 C 
ENDBRANCH   3  18
TORSDOF 2
ENDMDL
MODEL 8
REMARK VINA RESULT:      -8.3      2.691      9.892
REMARK  Name = 
REMARK  4 active torsions:
REMARK  status: ('A' for Active; 'I' for Inactive)
REMARK    1  A    between atoms: C_1  and  C_2
REMARK    2  A    between atoms: C_4  and  C_5
REMARK    3  A    between atoms: C_10  and  C_11
REMARK    4  A    between atoms: N_13  and  C_14
REMARK                            x       y       z     vdW  Elec       q    Type
REMARK                         _______ _______ _______ _____ _____    ______ ____
ROOT
ATOM      1  C   UNL     1       1.242   8.519  20.643  0.00  0.00    +0.000 C 
ATOM      2  O   UNL     1       1.074   7.651  21.493  0.00  0.00    +0.000 OA
ATOM      3  N   UNL     1       1.945   8.323  19.470  0.00  0.00    +0.000 N 
ATOM      4  H   UNL     1       1.954   9.048  18.766  0.00  0.00    +0.000 HD
ENDROOT
BRANCH   1  14
ATOM      5  C   UNL     1      -2.761  16.229  22.900  0.00  0.00    +0.000 C 
ATOM      6  C   UNL     1      -1.996  15.440  21.905  0.00  0.00    +0.000 A 
ATOM      7  C   UNL     1      -1.511  15.871  20.659  0.00  0.00    +0.000 A 
ATOM      8  C   UNL     1      -0.874  14.777  20.111  0.00  0.00    +0.000 A 
ATOM      9  C   UNL     1      -0.204  14.651  18.793  0.00  0.00    +0.000 C 
ATOM     10  N   UNL     1      -0.973  13.754  21.049  0.00  0.00    +0.000 N 
ATOM     11  C   UNL     1      -0.423  12.426  20.978  0.00  0.00    +0.000 A 
ATOM     12  C   UNL     1      -0.689  11.518  22.006  0.00  0.00    +0.000 A 
ATOM     13  C   UNL     1      -0.153  10.224  21.933  0.00  0.00    +0.000 A 
ATOM     14  C   UNL     1       0.640   9.864  20.841  0.00  0.00    +0.000 A 
ATOM     15  C   UNL     1       0.847  10.826  19.862  0.00  0.00    +0.000 A 
ATOM     16  N   UNL     1       0.344  12.086  19.909  0.00  0.00    +0.000 NA
ATOM     17  N   UNL     1      -1.691  14.160  22.142  0.00  0.00    +0.000 NA
ENDBRANCH   1  14
BRANCH   3  18
ATOM     18  C   UNL     1       2.580   7.077  19.137  0.00  0.00    +0.000 C 
ATOM     19  C   UNL     1       3.405   7.036  17.871  0.00  0.00    +0.000 C 
ATOM     20  C   UNL     1       4.701   6.278  17.782  0.00  0.00    +0.000 C 
ATOM     21  C   UNL     1       4.532   5.079  16.840  0.00  0.00    +0.000 C 
ATOM     22  C   UNL     1       3.498   4.140  17.419  0.00  0.00    +0.000 A 
ATOM     23  C   UNL     1       3.704   2.755  17.406  0.00  0.00    +0.000 A 
ATOM     24  C   UNL     1       2.769   1.915  18.006  0.00  0.00    +0.000 A 
ATOM     25  C   UNL     1       1.628   2.451  18.597  0.00  0.00    +0.000 A 
ATOM     26  C   UNL     1       1.408   3.832  18.586  0.00  0.00    +0.000 A 
ATOM     27  C   UNL     1       2.332   4.703  17.996  0.00  0.00    +0.000 A 
ATOM     28  C   UNL     1       2.134   6.212  17.979  0.00  0.00    +0.000 C 
ENDBRANCH   3  18
TORSDOF 2
ENDMDL
MODEL 9
REMARK VINA RESULT:      -8.2      3.258      9.569
REMARK  Name = 
REMARK  4 active torsions:
REMARK  status: ('A' for Active; 'I' for Inactive)
REMARK    1  A    between atoms: C_1  and  C_2
REMARK    2  A    between atoms: C_4  and  C_5
REMARK    3  A    between atoms: C_10  and  C_11
REMARK    4  A    between atoms: N_13  and  C_14
REMARK                            x       y       z     vdW  Elec       q    Type
REMARK                         _______ _______ _______ _____ _____    ______ ____
ROOT
ATOM      1  C   UNL     1       1.643   9.076  18.569  0.00  0.00    +0.000 C 
ATOM      2  O   UNL     1       2.202   9.602  17.613  0.00  0.00    +0.000 OA
ATOM      3  N   UNL     1       1.778   7.742  18.902  0.00  0.00    +0.000 N 
ATOM      4  H   UNL     1       1.375   7.399  19.763  0.00  0.00    +0.000 HD
ENDROOT
BRANCH   1  14
ATOM      5  C   UNL     1      -3.667  13.060  24.610  0.00  0.00    +0.000 C 
ATOM      6  C   UNL     1      -2.877  13.151  23.358  0.00  0.00    +0.000 A 
ATOM      7  C   UNL     1      -2.663  14.287  22.562  0.00  0.00    +0.000 A 
ATOM      8  C   UNL     1      -1.871  13.861  21.515  0.00  0.00    +0.000 A 
ATOM      9  C   UNL     1      -1.362  14.635  20.355  0.00  0.00    +0.000 C 
ATOM     10  N   UNL     1      -1.619  12.511  21.737  0.00  0.00    +0.000 N 
ATOM     11  C   UNL     1      -0.799  11.619  20.960  0.00  0.00    +0.000 A 
ATOM     12  C   UNL     1      -0.724  10.271  21.318  0.00  0.00    +0.000 A 
ATOM     13  C   UNL     1       0.075   9.404  20.557  0.00  0.00    +0.000 A 
ATOM     14  C   UNL     1       0.784   9.901  19.461  0.00  0.00    +0.000 A 
ATOM     15  C   UNL     1       0.646  11.252  19.172  0.00  0.00    +0.000 A 
ATOM     16  N   UNL     1      -0.117  12.113  19.893  0.00  0.00    +0.000 NA
ATOM     17  N   UNL     1      -2.266  12.071  22.860  0.00  0.00    +0.000 NA
ENDBRANCH   1  14
BRANCH   3  18
ATOM     18  C   UNL     1       2.576   6.821  18.139  0.00  0.00    +0.000 C 
ATOM     19  C   UNL     1       2.484   5.357  18.504  0.00  0.00    +0.000 C 
ATOM     20  C   UNL     1       2.488   4.270  17.465  0.00  0.00    +0.000 C 
ATOM     21  C   UNL     1       3.788   3.462  17.570  0.00  0.00    +0.000 C 
ATOM     22  C   UNL     1       4.959   4.373  17.275  0.00  0.00    +0.000 A 
ATOM     23  C   UNL     1       6.014   3.939  16.464  0.00  0.00    +0.000 A 
ATOM     24  C   UNL     1       7.048   4.819  16.152  0.00  0.00    +0.000 A 
ATOM     25  C   UNL     1       7.038   6.115  16.659  0.00  0.00    +0.000 A 
ATOM     26  C   UNL     1       5.998   6.541  17.492  0.00  0.00    +0.000 A 
ATOM     27  C   UNL     1       4.942   5.681  17.820  0.00  0.00    +0.000 A 
ATOM     28  C   UNL     1       3.786   6.115  18.709  0.00  0.00    +0.000 C 
ENDBRANCH   3  18
TORSDOF 2
ENDMDL
