MODEL 1
REMARK VINA RESULT:      -8.8      0.000      0.000
REMARK  Name = 
REMARK  6 active torsions:
REMARK  status: ('A' for Active; 'I' for Inactive)
REMARK    1  A    between atoms: C_1  and  N_2
REMARK    2  A    between atoms: C_6  and  C_7
REMARK    3  A    between atoms: C_7  and  C_10
REMARK    4  A    between atoms: C_10  and  C_11
REMARK    5  A    between atoms: C_11  and  C_12
REMARK    6  A    between atoms: C_16  and  N_17
REMARK                            x       y       z     vdW  Elec       q    Type
REMARK                         _______ _______ _______ _____ _____    ______ ____
ROOT
ATOM      1  C   UNL     1       4.263   6.462  16.860  0.00  0.00    +0.000 A 
ATOM      2  C   UNL     1       5.149   6.395  15.776  0.00  0.00    +0.000 A 
ATOM      3  C   UNL     1       5.470   5.170  15.202  0.00  0.00    +0.000 A 
ATOM      4  C   UNL     1       4.992   3.994  15.769  0.00  0.00    +0.000 A 
ATOM      5  C   UNL     1       4.322   4.043  17.002  0.00  0.00    +0.000 A 
ATOM      6  C   UNL     1       3.830   5.273  17.460  0.00  0.00    +0.000 A 
ENDROOT
BRANCH   5   7
ATOM      7  N   UNL     1       4.564   2.991  17.985  0.00  0.00    +0.000 N 
ATOM      8  C   UNL     1       3.401   2.071  18.020  0.00  0.00    +0.000 C 
ATOM      9  C   UNL     1       2.552   2.711  19.066  0.00  0.00    +0.000 A 
ATOM     10  C   UNL     1       1.197   2.926  19.083  0.00  0.00    +0.000 A 
ATOM     11  F   UNL     1       0.408   2.407  18.135  0.00  0.00    +0.000 F 
ATOM     12  C   UNL     1       0.661   3.806  20.023  0.00  0.00    +0.000 A 
ATOM     13  C   UNL     1       1.498   4.451  20.953  0.00  0.00    +0.000 A 
ATOM     14  C   UNL     1       2.882   4.249  20.922  0.00  0.00    +0.000 A 
ATOM     15  C   UNL     1       3.379   3.393  19.954  0.00  0.00    +0.000 A 
ATOM     16  C   UNL     1       4.725   3.439  19.331  0.00  0.00    +0.000 C 
ATOM     17  O   UNL     1       5.696   3.965  19.844  0.00  0.00    +0.000 OA
ENDBRANCH   5   7
BRANCH   1  18
ATOM     18  C   UNL     1       3.801   7.811  17.363  0.00  0.00    +0.000 C 
BRANCH  18  19
ATOM     19  C   UNL     1       2.538   7.628  18.204  0.00  0.00    +0.000 C 
BRANCH  19  20
ATOM     20  C   UNL     1       1.722   8.905  18.352  0.00  0.00    +0.000 C 
ATOM     21  F   UNL     1       0.669   8.869  17.487  0.00  0.00    +0.000 F 
ATOM     22  F   UNL     1       2.477   9.971  17.965  0.00  0.00    +0.000 F 
BRANCH  20  28
ATOM     23  C   UNL     1      -0.026  11.246  19.436  0.00  0.00    +0.000 C 
ATOM     24  N   UNL     1       0.468  10.129  20.195  0.00  0.00    +0.000 N 
ATOM     25  C   UNL     1       0.250   9.910  21.520  0.00  0.00    +0.000 A 
ATOM     26  N   UNL     1       0.839   8.798  21.885  0.00  0.00    +0.000 NA
ATOM     27  N   UNL     1       1.458   8.276  20.778  0.00  0.00    +0.000 NA
ATOM     28  C   UNL     1       1.242   9.078  19.755  0.00  0.00    +0.000 A 
ENDBRANCH  20  28
ENDBRANCH  19  20
ENDBRANCH  18  19
ENDBRANCH   1  18
TORSDOF 5
ENDMDL
MODEL 2
REMARK VINA RESULT:      -8.8      1.641      2.057
REMARK  Name = 
REMARK  6 active torsions:
REMARK  status: ('A' for Active; 'I' for Inactive)
REMARK    1  A    between atoms: C_1  and  N_2
REMARK    2  A    between atoms: C_6  and  C_7
REMARK    3  A    between atoms: C_7  and  C_10
REMARK    4  A    between atoms: C_10  and  C_11
REMARK    5  A    between atoms: C_11  and  C_12
REMARK    6  A    between atoms: C_16  and  N_17
REMARK                            x       y       z     vdW  Elec       q    Type
REMARK                         _______ _______ _______ _____ _____    ______ ____
ROOT
ATOM      1  C   UNL     1       3.251   6.571  17.895  0.00  0.00    +0.000 A 
ATOM      2  C   UNL     1       4.292   7.084  17.108  0.00  0.00    +0.000 A 
ATOM      3  C   UNL     1       5.003   6.251  16.251  0.00  0.00    +0.000 A 
ATOM      4  C   UNL     1       4.753   4.884  16.248  0.00  0.00    +0.000 A 
ATOM      5  C   UNL     1       3.898   4.335  17.217  0.00  0.00    +0.000 A 
ATOM      6  C   UNL     1       3.041   5.187  17.928  0.00  0.00    +0.000 A 
ENDROOT
BRANCH   5   7
ATOM      7  N   UNL     1       4.233   3.044  17.812  0.00  0.00    +0.000 N 
ATOM      8  C   UNL     1       3.071   2.131  17.697  0.00  0.00    +0.000 C 
ATOM      9  C   UNL     1       2.349   2.414  18.971  0.00  0.00    +0.000 A 
ATOM     10  C   UNL     1       1.006   2.586  19.196  0.00  0.00    +0.000 A 
ATOM     11  F   UNL     1       0.112   2.354  18.227  0.00  0.00    +0.000 F 
ATOM     12  C   UNL     1       0.586   3.136  20.407  0.00  0.00    +0.000 A 
ATOM     13  C   UNL     1       1.526   3.496  21.391  0.00  0.00    +0.000 A 
ATOM     14  C   UNL     1       2.897   3.340  21.153  0.00  0.00    +0.000 A 
ATOM     15  C   UNL     1       3.275   2.821  19.927  0.00  0.00    +0.000 A 
ATOM     16  C   UNL     1       4.546   3.078  19.205  0.00  0.00    +0.000 C 
ATOM     17  O   UNL     1       5.573   3.449  19.743  0.00  0.00    +0.000 OA
ENDBRANCH   5   7
BRANCH   1  18
ATOM     18  C   UNL     1       2.385   7.517  18.694  0.00  0.00    +0.000 C 
BRANCH  18  19
ATOM     19  C   UNL     1       2.207   8.817  17.913  0.00  0.00    +0.000 C 
BRANCH  19  20
ATOM     20  C   UNL     1       1.040   9.662  18.405  0.00  0.00    +0.000 C 
ATOM     21  F   UNL     1       0.668   9.238  19.646  0.00  0.00    +0.000 F 
ATOM     22  F   UNL     1      -0.042   9.449  17.606  0.00  0.00    +0.000 F 
BRANCH  20  28
ATOM     23  C   UNL     1      -0.752  11.994  19.440  0.00  0.00    +0.000 C 
ATOM     24  N   UNL     1       0.577  12.113  18.902  0.00  0.00    +0.000 N 
ATOM     25  C   UNL     1       1.273  13.273  18.755  0.00  0.00    +0.000 A 
ATOM     26  N   UNL     1       2.451  13.018  18.240  0.00  0.00    +0.000 NA
ATOM     27  N   UNL     1       2.529  11.663  18.041  0.00  0.00    +0.000 NA
ATOM     28  C   UNL     1       1.398  11.112  18.434  0.00  0.00    +0.000 A 
ENDBRANCH  20  28
ENDBRANCH  19  20
ENDBRANCH  18  19
ENDBRANCH   1  18
TORSDOF 5
ENDMDL
MODEL 3
REMARK VINA RESULT:      -8.7      1.600      2.027
REMARK  Name = 
REMARK  6 active torsions:
REMARK  status: ('A' for Active; 'I' for Inactive)
REMARK    1  A    between atoms: C_1  and  N_2
REMARK    2  A    between atoms: C_6  and  C_7
REMARK    3  A    between atoms: C_7  and  C_10
REMARK    4  A    between atoms: C_10  and  C_11
REMARK    5  A    between atoms: C_11  and  C_12
REMARK    6  A    between atoms: C_16  and  N_17
REMARK                            x       y       z     vdW  Elec       q    Type
REMARK                         _______ _______ _______ _____ _____    ______ ____
ROOT
ATOM      1  C   UNL     1       3.143   6.637  17.975  0.00  0.00    +0.000 A 
ATOM      2  C   UNL     1       4.183   7.202  17.223  0.00  0.00    +0.000 A 
ATOM      3  C   UNL     1       4.933   6.416  16.356  0.00  0.00    +0.000 A 
ATOM      4  C   UNL     1       4.722   5.043  16.309  0.00  0.00    +0.000 A 
ATOM      5  C   UNL     1       3.867   4.442  17.245  0.00  0.00    +0.000 A 
ATOM      6  C   UNL     1       2.972   5.247  17.964  0.00  0.00    +0.000 A 
ENDROOT
BRANCH   5   7
ATOM      7  N   UNL     1       4.229   3.145  17.809  0.00  0.00    +0.000 N 
ATOM      8  C   UNL     1       3.080   2.214  17.684  0.00  0.00    +0.000 C 
ATOM      9  C   UNL     1       2.365   2.457  18.968  0.00  0.00    +0.000 A 
ATOM     10  C   UNL     1       1.021   2.601  19.209  0.00  0.00    +0.000 A 
ATOM     11  F   UNL     1       0.123   2.376  18.242  0.00  0.00    +0.000 F 
ATOM     12  C   UNL     1       0.602   3.118  20.435  0.00  0.00    +0.000 A 
ATOM     13  C   UNL     1       1.545   3.472  21.418  0.00  0.00    +0.000 A 
ATOM     14  C   UNL     1       2.915   3.345  21.166  0.00  0.00    +0.000 A 
ATOM     15  C   UNL     1       3.292   2.859  19.926  0.00  0.00    +0.000 A 
ATOM     16  C   UNL     1       4.552   3.153  19.200  0.00  0.00    +0.000 C 
ATOM     17  O   UNL     1       5.577   3.529  19.737  0.00  0.00    +0.000 OA
ENDBRANCH   5   7
BRANCH   1  18
ATOM     18  C   UNL     1       2.235   7.535  18.784  0.00  0.00    +0.000 C 
BRANCH  18  19
ATOM     19  C   UNL     1       1.721   8.664  17.894  0.00  0.00    +0.000 C 
BRANCH  19  20
ATOM     20  C   UNL     1       1.258   9.886  18.676  0.00  0.00    +0.000 C 
ATOM     21  F   UNL     1       2.093  10.932  18.413  0.00  0.00    +0.000 F 
ATOM     22  F   UNL     1       1.386   9.644  20.010  0.00  0.00    +0.000 F 
BRANCH  20  28
ATOM     23  C   UNL     1      -0.404  12.230  19.884  0.00  0.00    +0.000 C 
ATOM     24  N   UNL     1      -0.851  11.290  18.892  0.00  0.00    +0.000 N 
ATOM     25  C   UNL     1      -2.084  11.271  18.315  0.00  0.00    +0.000 A 
ATOM     26  N   UNL     1      -2.150  10.287  17.452  0.00  0.00    +0.000 NA
ATOM     27  N   UNL     1      -0.938   9.645  17.463  0.00  0.00    +0.000 NA
ATOM     28  C   UNL     1      -0.151  10.243  18.335  0.00  0.00    +0.000 A 
ENDBRANCH  20  28
ENDBRANCH  19  20
ENDBRANCH  18  19
ENDBRANCH   1  18
TORSDOF 5
ENDMDL
MODEL 4
REMARK VINA RESULT:      -8.4      5.408      6.288
REMARK  Name = 
REMARK  6 active torsions:
REMARK  status: ('A' for Active; 'I' for Inactive)
REMARK    1  A    between atoms: C_1  and  N_2
REMARK    2  A    between atoms: C_6  and  C_7
REMARK    3  A    between atoms: C_7  and  C_10
REMARK    4  A    between atoms: C_10  and  C_11
REMARK    5  A    between atoms: C_11  and  C_12
REMARK    6  A    between atoms: C_16  and  N_17
REMARK                            x       y       z     vdW  Elec       q    Type
REMARK                         _______ _______ _______ _____ _____    ______ ____
ROOT
ATOM      1  C   UNL     1       7.906   7.899  17.870  0.00  0.00    +0.000 A 
ATOM      2  C   UNL     1       8.074   7.088  19.002  0.00  0.00    +0.000 A 
ATOM      3  C   UNL     1       7.918   5.709  18.910  0.00  0.00    +0.000 A 
ATOM      4  C   UNL     1       7.493   5.139  17.715  0.00  0.00    +0.000 A 
ATOM      5  C   UNL     1       7.076   5.968  16.662  0.00  0.00    +0.000 A 
ATOM      6  C   UNL     1       7.426   7.326  16.687  0.00  0.00    +0.000 A 
ENDROOT
BRANCH   5   7
ATOM      7  N   UNL     1       5.925   5.570  15.856  0.00  0.00    +0.000 N 
ATOM      8  C   UNL     1       4.767   6.434  16.188  0.00  0.00    +0.000 C 
ATOM      9  C   UNL     1       4.131   5.661  17.293  0.00  0.00    +0.000 A 
ATOM     10  C   UNL     1       3.610   6.102  18.484  0.00  0.00    +0.000 A 
ATOM     11  F   UNL     1       3.483   7.410  18.735  0.00  0.00    +0.000 F 
ATOM     12  C   UNL     1       3.340   5.175  19.491  0.00  0.00    +0.000 A 
ATOM     13  C   UNL     1       3.582   3.804  19.281  0.00  0.00    +0.000 A 
ATOM     14  C   UNL     1       4.131   3.356  18.075  0.00  0.00    +0.000 A 
ATOM     15  C   UNL     1       4.416   4.310  17.112  0.00  0.00    +0.000 A 
ATOM     16  C   UNL     1       5.466   4.233  16.067  0.00  0.00    +0.000 C 
ATOM     17  O   UNL     1       5.950   3.193  15.661  0.00  0.00    +0.000 OA
ENDBRANCH   5   7
BRANCH   1  18
ATOM     18  C   UNL     1       8.239   9.371  17.953  0.00  0.00    +0.000 C 
BRANCH  18  19
ATOM     19  C   UNL     1       9.169   9.610  19.141  0.00  0.00    +0.000 C 
BRANCH  19  20
ATOM     20  C   UNL     1       9.819  10.987  19.130  0.00  0.00    +0.000 C 
ATOM     21  F   UNL     1       9.355  11.697  18.063  0.00  0.00    +0.000 F 
ATOM     22  F   UNL     1      11.159  10.853  18.925  0.00  0.00    +0.000 F 
BRANCH  20  28
ATOM     23  C   UNL     1      10.776  13.866  19.848  0.00  0.00    +0.000 C 
ATOM     24  N   UNL     1       9.991  12.995  20.681  0.00  0.00    +0.000 N 
ATOM     25  C   UNL     1       9.534  13.289  21.929  0.00  0.00    +0.000 A 
ATOM     26  N   UNL     1       8.849  12.275  22.398  0.00  0.00    +0.000 NA
ATOM     27  N   UNL     1       8.858  11.294  21.440  0.00  0.00    +0.000 NA
ATOM     28  C   UNL     1       9.550  11.720  20.403  0.00  0.00    +0.000 A 
ENDBRANCH  20  28
ENDBRANCH  19  20
ENDBRANCH  18  19
ENDBRANCH   1  18
TORSDOF 5
ENDMDL
MODEL 5
REMARK VINA RESULT:      -8.3      1.129      1.406
REMARK  Name = 
REMARK  6 active torsions:
REMARK  status: ('A' for Active; 'I' for Inactive)
REMARK    1  A    between atoms: C_1  and  N_2
REMARK    2  A    between atoms: C_6  and  C_7
REMARK    3  A    between atoms: C_7  and  C_10
REMARK    4  A    between atoms: C_10  and  C_11
REMARK    5  A    between atoms: C_11  and  C_12
REMARK    6  A    between atoms: C_16  and  N_17
REMARK                            x       y       z     vdW  Elec       q    Type
REMARK                         _______ _______ _______ _____ _____    ______ ____
ROOT
ATOM      1  C   UNL     1       4.339   6.089  17.775  0.00  0.00    +0.000 A 
ATOM      2  C   UNL     1       5.340   6.401  18.707  0.00  0.00    +0.000 A 
ATOM      3  C   UNL     1       6.273   5.442  19.086  0.00  0.00    +0.000 A 
ATOM      4  C   UNL     1       6.153   4.138  18.621  0.00  0.00    +0.000 A 
ATOM      5  C   UNL     1       5.009   3.762  17.899  0.00  0.00    +0.000 A 
ATOM      6  C   UNL     1       4.191   4.762  17.353  0.00  0.00    +0.000 A 
ENDROOT
BRANCH   5   7
ATOM      7  N   UNL     1       4.421   2.446  18.132  0.00  0.00    +0.000 N 
ATOM      8  C   UNL     1       3.033   2.426  17.612  0.00  0.00    +0.000 C 
ATOM      9  C   UNL     1       2.264   2.867  18.811  0.00  0.00    +0.000 A 
ATOM     10  C   UNL     1       1.223   3.756  18.905  0.00  0.00    +0.000 A 
ATOM     11  F   UNL     1       0.647   4.258  17.806  0.00  0.00    +0.000 F 
ATOM     12  C   UNL     1       0.856   4.241  20.161  0.00  0.00    +0.000 A 
ATOM     13  C   UNL     1       1.534   3.811  21.317  0.00  0.00    +0.000 A 
ATOM     14  C   UNL     1       2.609   2.920  21.219  0.00  0.00    +0.000 A 
ATOM     15  C   UNL     1       2.963   2.487  19.953  0.00  0.00    +0.000 A 
ATOM     16  C   UNL     1       4.312   2.060  19.503  0.00  0.00    +0.000 C 
ATOM     17  O   UNL     1       5.186   1.661  20.251  0.00  0.00    +0.000 OA
ENDBRANCH   5   7
BRANCH   1  18
ATOM     18  C   UNL     1       3.439   7.186  17.253  0.00  0.00    +0.000 C 
BRANCH  18  19
ATOM     19  C   UNL     1       2.224   7.318  18.169  0.00  0.00    +0.000 C 
BRANCH  19  20
ATOM     20  C   UNL     1       1.759   8.756  18.350  0.00  0.00    +0.000 C 
ATOM     21  F   UNL     1       0.700   8.995  17.526  0.00  0.00    +0.000 F 
ATOM     22  F   UNL     1       2.742   9.605  17.938  0.00  0.00    +0.000 F 
BRANCH  20  28
ATOM     23  C   UNL     1       0.633  11.429  19.493  0.00  0.00    +0.000 C 
ATOM     24  N   UNL     1       0.891  10.225  20.236  0.00  0.00    +0.000 N 
ATOM     25  C   UNL     1       0.683  10.055  21.571  0.00  0.00    +0.000 A 
ATOM     26  N   UNL     1       1.018   8.837  21.917  0.00  0.00    +0.000 NA
ATOM     27  N   UNL     1       1.457   8.193  20.789  0.00  0.00    +0.000 NA
ATOM     28  C   UNL     1       1.388   9.028  19.771  0.00  0.00    +0.000 A 
ENDBRANCH  20  28
ENDBRANCH  19  20
ENDBRANCH  18  19
ENDBRANCH   1  18
TORSDOF 5
ENDMDL
MODEL 6
REMARK VINA RESULT:      -8.2      2.828      7.663
REMARK  Name = 
REMARK  6 active torsions:
REMARK  status: ('A' for Active; 'I' for Inactive)
REMARK    1  A    between atoms: C_1  and  N_2
REMARK    2  A    between atoms: C_6  and  C_7
REMARK    3  A    between atoms: C_7  and  C_10
REMARK    4  A    between atoms: C_10  and  C_11
REMARK    5  A    between atoms: C_11  and  C_12
REMARK    6  A    between atoms: C_16  and  N_17
REMARK                            x       y       z     vdW  Elec       q    Type
REMARK                         _______ _______ _______ _____ _____    ______ ____
ROOT
ATOM      1  C   UNL     1       2.219   7.632  19.237  0.00  0.00    +0.000 A 
ATOM      2  C   UNL     1       2.312   8.183  17.951  0.00  0.00    +0.000 A 
ATOM      3  C   UNL     1       1.883   9.483  17.708  0.00  0.00    +0.000 A 
ATOM      4  C   UNL     1       1.263  10.207  18.720  0.00  0.00    +0.000 A 
ATOM      5  C   UNL     1       0.936   9.570  19.926  0.00  0.00    +0.000 A 
ATOM      6  C   UNL     1       1.545   8.346  20.236  0.00  0.00    +0.000 A 
ENDROOT
BRANCH   5   7
ATOM      7  N   UNL     1      -0.330   9.892  20.580  0.00  0.00    +0.000 N 
ATOM      8  C   UNL     1      -1.210  10.610  19.626  0.00  0.00    +0.000 C 
ATOM      9  C   UNL     1      -0.832  12.028  19.888  0.00  0.00    +0.000 A 
ATOM     10  C   UNL     1      -0.604  13.052  19.003  0.00  0.00    +0.000 A 
ATOM     11  F   UNL     1      -0.861  12.900  17.698  0.00  0.00    +0.000 F 
ATOM     12  C   UNL     1       0.027  14.211  19.454  0.00  0.00    +0.000 A 
ATOM     13  C   UNL     1       0.410  14.335  20.803  0.00  0.00    +0.000 A 
ATOM     14  C   UNL     1       0.197  13.284  21.701  0.00  0.00    +0.000 A 
ATOM     15  C   UNL     1      -0.403  12.137  21.208  0.00  0.00    +0.000 A 
ATOM     16  C   UNL     1      -0.229  10.754  21.715  0.00  0.00    +0.000 C 
ATOM     17  O   UNL     1       0.138  10.481  22.843  0.00  0.00    +0.000 OA
ENDBRANCH   5   7
BRANCH   1  18
ATOM     18  C   UNL     1       2.839   6.283  19.517  0.00  0.00    +0.000 C 
BRANCH  18  19
ATOM     19  C   UNL     1       3.060   5.547  18.196  0.00  0.00    +0.000 C 
BRANCH  19  20
ATOM     20  C   UNL     1       2.240   4.271  18.072  0.00  0.00    +0.000 C 
ATOM     21  F   UNL     1       2.871   3.411  17.223  0.00  0.00    +0.000 F 
ATOM     22  F   UNL     1       1.046   4.557  17.482  0.00  0.00    +0.000 F 
BRANCH  20  28
ATOM     23  C   UNL     1       4.368   2.715  19.734  0.00  0.00    +0.000 C 
ATOM     24  N   UNL     1       3.001   2.954  20.110  0.00  0.00    +0.000 N 
ATOM     25  C   UNL     1       2.409   2.535  21.261  0.00  0.00    +0.000 A 
ATOM     26  N   UNL     1       1.159   2.929  21.282  0.00  0.00    +0.000 NA
ATOM     27  N   UNL     1       0.924   3.618  20.121  0.00  0.00    +0.000 NA
ATOM     28  C   UNL     1       2.031   3.632  19.405  0.00  0.00    +0.000 A 
ENDBRANCH  20  28
ENDBRANCH  19  20
ENDBRANCH  18  19
ENDBRANCH   1  18
TORSDOF 5
ENDMDL
MODEL 7
REMARK VINA RESULT:      -8.2      2.723      7.688
REMARK  Name = 
REMARK  6 active torsions:
REMARK  status: ('A' for Active; 'I' for Inactive)
REMARK    1  A    between atoms: C_1  and  N_2
REMARK    2  A    between atoms: C_6  and  C_7
REMARK    3  A    between atoms: C_7  and  C_10
REMARK    4  A    between atoms: C_10  and  C_11
REMARK    5  A    between atoms: C_11  and  C_12
REMARK    6  A    between atoms: C_16  and  N_17
REMARK                            x       y       z     vdW  Elec       q    Type
REMARK                         _______ _______ _______ _____ _____    ______ ____
ROOT
ATOM      1  C   UNL     1       2.321   7.274  19.350  0.00  0.00    +0.000 A 
ATOM      2  C   UNL     1       2.326   7.745  18.029  0.00  0.00    +0.000 A 
ATOM      3  C   UNL     1       1.848   9.016  17.731  0.00  0.00    +0.000 A 
ATOM      4  C   UNL     1       1.264   9.787  18.729  0.00  0.00    +0.000 A 
ATOM      5  C   UNL     1       1.022   9.219  19.990  0.00  0.00    +0.000 A 
ATOM      6  C   UNL     1       1.682   8.032  20.339  0.00  0.00    +0.000 A 
ENDROOT
BRANCH   5   7
ATOM      7  N   UNL     1      -0.214   9.550  20.693  0.00  0.00    +0.000 N 
ATOM      8  C   UNL     1      -1.157  10.205  19.755  0.00  0.00    +0.000 C 
ATOM      9  C   UNL     1      -0.794  11.641  19.930  0.00  0.00    +0.000 A 
ATOM     10  C   UNL     1      -0.633  12.625  18.986  0.00  0.00    +0.000 A 
ATOM     11  F   UNL     1      -0.954  12.406  17.705  0.00  0.00    +0.000 F 
ATOM     12  C   UNL     1      -0.003  13.815  19.348  0.00  0.00    +0.000 A 
ATOM     13  C   UNL     1       0.447  14.011  20.668  0.00  0.00    +0.000 A 
ATOM     14  C   UNL     1       0.302  13.000  21.624  0.00  0.00    +0.000 A 
ATOM     15  C   UNL     1      -0.300  11.821  21.218  0.00  0.00    +0.000 A 
ATOM     16  C   UNL     1      -0.072  10.466  21.779  0.00  0.00    +0.000 C 
ATOM     17  O   UNL     1       0.359  10.255  22.898  0.00  0.00    +0.000 OA
ENDBRANCH   5   7
BRANCH   1  18
ATOM     18  C   UNL     1       2.994   5.961  19.677  0.00  0.00    +0.000 C 
BRANCH  18  19
ATOM     19  C   UNL     1       2.278   5.310  20.859  0.00  0.00    +0.000 C 
BRANCH  19  20
ATOM     20  C   UNL     1       1.444   4.099  20.467  0.00  0.00    +0.000 C 
ATOM     21  F   UNL     1       0.147   4.481  20.294  0.00  0.00    +0.000 F 
ATOM     22  F   UNL     1       1.429   3.207  21.497  0.00  0.00    +0.000 F 
BRANCH  20  28
ATOM     23  C   UNL     1       4.046   2.401  20.216  0.00  0.00    +0.000 C 
ATOM     24  N   UNL     1       3.128   2.715  19.156  0.00  0.00    +0.000 N 
ATOM     25  C   UNL     1       3.246   2.318  17.859  0.00  0.00    +0.000 A 
ATOM     26  N   UNL     1       2.233   2.776  17.164  0.00  0.00    +0.000 NA
ATOM     27  N   UNL     1       1.434   3.489  18.021  0.00  0.00    +0.000 NA
ATOM     28  C   UNL     1       1.972   3.460  19.224  0.00  0.00    +0.000 A 
ENDBRANCH  20  28
ENDBRANCH  19  20
ENDBRANCH  18  19
ENDBRANCH   1  18
TORSDOF 5
ENDMDL
MODEL 8
REMARK VINA RESULT:      -8.1      3.330      6.430
REMARK  Name = 
REMARK  6 active torsions:
REMARK  status: ('A' for Active; 'I' for Inactive)
REMARK    1  A    between atoms: C_1  and  N_2
REMARK    2  A    between atoms: C_6  and  C_7
REMARK    3  A    between atoms: C_7  and  C_10
REMARK    4  A    between atoms: C_10  and  C_11
REMARK    5  A    between atoms: C_11  and  C_12
REMARK    6  A    between atoms: C_16  and  N_17
REMARK                            x       y       z     vdW  Elec       q    Type
REMARK                         _______ _______ _______ _____ _____    ______ ____
ROOT
ATOM      1  C   UNL     1       4.757   6.006  18.278  0.00  0.00    +0.000 A 
ATOM      2  C   UNL     1       4.406   7.195  17.623  0.00  0.00    +0.000 A 
ATOM      3  C   UNL     1       3.190   7.814  17.889  0.00  0.00    +0.000 A 
ATOM      4  C   UNL     1       2.270   7.199  18.730  0.00  0.00    +0.000 A 
ATOM      5  C   UNL     1       2.510   5.891  19.180  0.00  0.00    +0.000 A 
ATOM      6  C   UNL     1       3.806   5.365  19.081  0.00  0.00    +0.000 A 
ENDROOT
BRANCH   5   7
ATOM      7  N   UNL     1       1.393   4.954  19.271  0.00  0.00    +0.000 N 
ATOM      8  C   UNL     1       1.591   4.061  20.438  0.00  0.00    +0.000 C 
ATOM      9  C   UNL     1       2.351   2.937  19.822  0.00  0.00    +0.000 A 
ATOM     10  C   UNL     1       3.443   2.254  20.296  0.00  0.00    +0.000 A 
ATOM     11  F   UNL     1       3.892   2.456  21.541  0.00  0.00    +0.000 F 
ATOM     12  C   UNL     1       4.169   1.444  19.423  0.00  0.00    +0.000 A 
ATOM     13  C   UNL     1       3.776   1.316  18.077  0.00  0.00    +0.000 A 
ATOM     14  C   UNL     1       2.675   2.028  17.588  0.00  0.00    +0.000 A 
ATOM     15  C   UNL     1       2.000   2.846  18.478  0.00  0.00    +0.000 A 
ATOM     16  C   UNL     1       1.240   4.078  18.153  0.00  0.00    +0.000 C 
ATOM     17  O   UNL     1       0.778   4.324  17.054  0.00  0.00    +0.000 OA
ENDBRANCH   5   7
BRANCH   1  18
ATOM     18  C   UNL     1       6.147   5.439  18.100  0.00  0.00    +0.000 C 
BRANCH  18  19
ATOM     19  C   UNL     1       6.649   5.771  16.696  0.00  0.00    +0.000 C 
BRANCH  19  20
ATOM     20  C   UNL     1       6.234   4.747  15.649  0.00  0.00    +0.000 C 
ATOM     21  F   UNL     1       4.893   4.846  15.428  0.00  0.00    +0.000 F 
ATOM     22  F   UNL     1       6.432   3.492  16.140  0.00  0.00    +0.000 F 
BRANCH  20  28
ATOM     23  C   UNL     1       5.598   3.429  12.897  0.00  0.00    +0.000 C 
ATOM     24  N   UNL     1       6.674   4.340  13.177  0.00  0.00    +0.000 N 
ATOM     25  C   UNL     1       7.598   4.779  12.279  0.00  0.00    +0.000 A 
ATOM     26  N   UNL     1       8.430   5.602  12.869  0.00  0.00    +0.000 NA
ATOM     27  N   UNL     1       8.046   5.705  14.182  0.00  0.00    +0.000 NA
ATOM     28  C   UNL     1       6.990   4.941  14.376  0.00  0.00    +0.000 A 
ENDBRANCH  20  28
ENDBRANCH  19  20
ENDBRANCH  18  19
ENDBRANCH   1  18
TORSDOF 5
ENDMDL
MODEL 9
REMARK VINA RESULT:      -8.0      2.588      6.423
REMARK  Name = 
REMARK  6 active torsions:
REMARK  status: ('A' for Active; 'I' for Inactive)
REMARK    1  A    between atoms: C_1  and  N_2
REMARK    2  A    between atoms: C_6  and  C_7
REMARK    3  A    between atoms: C_7  and  C_10
REMARK    4  A    between atoms: C_10  and  C_11
REMARK    5  A    between atoms: C_11  and  C_12
REMARK    6  A    between atoms: C_16  and  N_17
REMARK                            x       y       z     vdW  Elec       q    Type
REMARK                         _______ _______ _______ _____ _____    ______ ____
ROOT
ATOM      1  C   UNL     1       2.095   4.000  18.450  0.00  0.00    +0.000 A 
ATOM      2  C   UNL     1       1.693   3.410  19.657  0.00  0.00    +0.000 A 
ATOM      3  C   UNL     1       1.188   4.192  20.690  0.00  0.00    +0.000 A 
ATOM      4  C   UNL     1       1.177   5.577  20.568  0.00  0.00    +0.000 A 
ATOM      5  C   UNL     1       1.816   6.180  19.474  0.00  0.00    +0.000 A 
ATOM      6  C   UNL     1       2.132   5.397  18.355  0.00  0.00    +0.000 A 
ENDROOT
BRANCH   5   7
ATOM      7  N   UNL     1       2.564   7.417  19.680  0.00  0.00    +0.000 N 
ATOM      8  C   UNL     1       2.003   8.145  20.844  0.00  0.00    +0.000 C 
ATOM      9  C   UNL     1       0.973   8.999  20.187  0.00  0.00    +0.000 A 
ATOM     10  C   UNL     1      -0.313   9.277  20.578  0.00  0.00    +0.000 A 
ATOM     11  F   UNL     1      -0.767   8.885  21.775  0.00  0.00    +0.000 F 
ATOM     12  C   UNL     1      -1.191   9.856  19.662  0.00  0.00    +0.000 A 
ATOM     13  C   UNL     1      -0.759  10.165  18.358  0.00  0.00    +0.000 A 
ATOM     14  C   UNL     1       0.546   9.863  17.953  0.00  0.00    +0.000 A 
ATOM     15  C   UNL     1       1.377   9.260  18.881  0.00  0.00    +0.000 A 
ATOM     16  C   UNL     1       2.514   8.348  18.598  0.00  0.00    +0.000 C 
ATOM     17  O   UNL     1       3.113   8.313  17.539  0.00  0.00    +0.000 OA
ENDBRANCH   5   7
BRANCH   1  18
ATOM     18  C   UNL     1       2.485   3.121  17.284  0.00  0.00    +0.000 C 
BRANCH  18  19
ATOM     19  C   UNL     1       3.951   2.718  17.427  0.00  0.00    +0.000 C 
BRANCH  19  20
ATOM     20  C   UNL     1       4.916   3.721  16.809  0.00  0.00    +0.000 C 
ATOM     21  F   UNL     1       4.212   4.631  16.077  0.00  0.00    +0.000 F 
ATOM     22  F   UNL     1       5.724   3.081  15.918  0.00  0.00    +0.000 F 
BRANCH  20  28
ATOM     23  C   UNL     1       7.084   5.910  16.340  0.00  0.00    +0.000 C 
ATOM     24  N   UNL     1       6.675   5.373  17.610  0.00  0.00    +0.000 N 
ATOM     25  C   UNL     1       7.173   5.737  18.823  0.00  0.00    +0.000 A 
ATOM     26  N   UNL     1       6.573   5.054  19.767  0.00  0.00    +0.000 NA
ATOM     27  N   UNL     1       5.665   4.223  19.163  0.00  0.00    +0.000 NA
ATOM     28  C   UNL     1       5.726   4.407  17.859  0.00  0.00    +0.000 A 
ENDBRANCH  20  28
ENDBRANCH  19  20
ENDBRANCH  18  19
ENDBRANCH   1  18
TORSDOF 5
ENDMDL
