MODEL 1
REMARK VINA RESULT:      -8.8      0.000      0.000
REMARK  Name = 
REMARK  6 active torsions:
REMARK  status: ('A' for Active; 'I' for Inactive)
REMARK    1  A    between atoms: C_1  and  N_2
REMARK    2  A    between atoms: C_9  and  C_10
REMARK    3  A    between atoms: C_14  and  C_15
REMARK    4  A    between atoms: N_17  and  C_18
REMARK    5  A    between atoms: C_18  and  C_19
REMARK    6  A    between atoms: C_21  and  C_22
REMARK                            x       y       z     vdW  Elec       q    Type
REMARK                         _______ _______ _______ _____ _____    ______ ____
ROOT
ATOM      1  C   UNL     1       1.034   9.217  19.815  0.00  0.00    +0.000 A 
ATOM      2  C   UNL     1       1.055   9.668  18.483  0.00  0.00    +0.000 A 
ATOM      3  C   UNL     1       1.829   9.033  17.513  0.00  0.00    +0.000 A 
ATOM      4  C   UNL     1       2.593   7.912  17.846  0.00  0.00    +0.000 A 
ATOM      5  C   UNL     1       2.582   7.425  19.153  0.00  0.00    +0.000 A 
ATOM      6  C   UNL     1       1.800   8.071  20.122  0.00  0.00    +0.000 A 
ENDROOT
BRANCH   1  15
ATOM      7  C   UNL     1      -2.990  13.060  20.392  0.00  0.00    +0.000 C 
ATOM      8  N   UNL     1      -2.412  12.451  21.554  0.00  0.00    +0.000 N 
ATOM      9  C   UNL     1      -2.781  12.697  22.888  0.00  0.00    +0.000 A 
ATOM     10  O   UNL     1      -3.630  13.468  23.301  0.00  0.00    +0.000 OA
ATOM     11  N   UNL     1      -1.978  11.872  23.681  0.00  0.00    +0.000 N 
ATOM     12  C   UNL     1      -1.139  11.131  22.869  0.00  0.00    +0.000 A 
ATOM     13  N   UNL     1      -0.243  10.231  23.267  0.00  0.00    +0.000 NA
ATOM     14  C   UNL     1       0.429   9.650  22.237  0.00  0.00    +0.000 A 
ATOM     15  C   UNL     1       0.259   9.931  20.855  0.00  0.00    +0.000 A 
ATOM     16  C   UNL     1      -0.704  10.901  20.523  0.00  0.00    +0.000 A 
ATOM     17  C   UNL     1      -1.399  11.487  21.553  0.00  0.00    +0.000 A 
ATOM     18  H   UNL     1      -2.008  11.814  24.685  0.00  0.00    +0.000 HD
ENDBRANCH   1  15
BRANCH   5  19
ATOM     19  C   UNL     1       3.369   6.216  19.532  0.00  0.00    +0.000 C 
ATOM     20  O   UNL     1       2.907   5.428  20.353  0.00  0.00    +0.000 OA
ATOM     21  N   UNL     1       4.594   6.065  18.917  0.00  0.00    +0.000 N 
ATOM     22  H   UNL     1       4.930   6.776  18.284  0.00  0.00    +0.000 HD
BRANCH  21  23
ATOM     23  C   UNL     1       5.434   4.898  19.100  0.00  0.00    +0.000 C 
BRANCH  23  24
ATOM     24  C   UNL     1       5.685   4.210  17.789  0.00  0.00    +0.000 C 
ATOM     25  C   UNL     1       5.027   4.615  16.494  0.00  0.00    +0.000 C 
ATOM     26  C   UNL     1       4.648   3.297  17.126  0.00  0.00    +0.000 C 
BRANCH  26  27
ATOM     27  C   UNL     1       3.315   3.069  17.808  0.00  0.00    +0.000 A 
ATOM     28  C   UNL     1       3.108   2.079  18.782  0.00  0.00    +0.000 A 
ATOM     29  C   UNL     1       1.826   1.797  19.271  0.00  0.00    +0.000 A 
ATOM     30  C   UNL     1       0.734   2.539  18.831  0.00  0.00    +0.000 A 
ATOM     31  C   UNL     1       0.927   3.588  17.939  0.00  0.00    +0.000 A 
ATOM     32  C   UNL     1       2.205   3.850  17.441  0.00  0.00    +0.000 A 
ENDBRANCH  26  27
ENDBRANCH  23  24
ENDBRANCH  21  23
ENDBRANCH   5  19
TORSDOF 5
ENDMDL
MODEL 2
REMARK VINA RESULT:      -8.8      0.871      1.374
REMARK  Name = 
REMARK  6 active torsions:
REMARK  status: ('A' for Active; 'I' for Inactive)
REMARK    1  A    between atoms: C_1  and  N_2
REMARK    2  A    between atoms: C_9  and  C_10
REMARK    3  A    between atoms: C_14  and  C_15
REMARK    4  A    between atoms: N_17  and  C_18
REMARK    5  A    between atoms: C_18  and  C_19
REMARK    6  A    between atoms: C_21  and  C_22
REMARK                            x       y       z     vdW  Elec       q    Type
REMARK                         _______ _______ _______ _____ _____    ______ ____
ROOT
ATOM      1  C   UNL     1       0.981   9.395  19.773  0.00  0.00    +0.000 A 
ATOM      2  C   UNL     1       1.067   9.905  18.464  0.00  0.00    +0.000 A 
ATOM      3  C   UNL     1       1.861   9.291  17.496  0.00  0.00    +0.000 A 
ATOM      4  C   UNL     1       2.580   8.134  17.806  0.00  0.00    +0.000 A 
ATOM      5  C   UNL     1       2.503   7.590  19.088  0.00  0.00    +0.000 A 
ATOM      6  C   UNL     1       1.703   8.215  20.056  0.00  0.00    +0.000 A 
ENDROOT
BRANCH   1  15
ATOM      7  C   UNL     1      -3.177  13.092  20.359  0.00  0.00    +0.000 C 
ATOM      8  N   UNL     1      -2.571  12.508  21.519  0.00  0.00    +0.000 N 
ATOM      9  C   UNL     1      -2.941  12.745  22.855  0.00  0.00    +0.000 A 
ATOM     10  O   UNL     1      -3.816  13.486  23.270  0.00  0.00    +0.000 OA
ATOM     11  N   UNL     1      -2.105  11.953  23.646  0.00  0.00    +0.000 N 
ATOM     12  C   UNL     1      -1.244  11.240  22.832  0.00  0.00    +0.000 A 
ATOM     13  N   UNL     1      -0.314  10.374  23.228  0.00  0.00    +0.000 NA
ATOM     14  C   UNL     1       0.374   9.815  22.196  0.00  0.00    +0.000 A 
ATOM     15  C   UNL     1       0.186  10.084  20.814  0.00  0.00    +0.000 A 
ATOM     16  C   UNL     1      -0.813  11.017  20.484  0.00  0.00    +0.000 A 
ATOM     17  C   UNL     1      -1.524  11.581  21.516  0.00  0.00    +0.000 A 
ATOM     18  H   UNL     1      -2.128  11.897  24.650  0.00  0.00    +0.000 HD
ENDBRANCH   1  15
BRANCH   5  19
ATOM     19  C   UNL     1       3.241   6.343  19.440  0.00  0.00    +0.000 C 
ATOM     20  O   UNL     1       2.956   5.744  20.475  0.00  0.00    +0.000 OA
ATOM     21  N   UNL     1       4.218   5.938  18.555  0.00  0.00    +0.000 N 
ATOM     22  H   UNL     1       4.429   6.502  17.746  0.00  0.00    +0.000 HD
BRANCH  21  23
ATOM     23  C   UNL     1       4.954   4.698  18.701  0.00  0.00    +0.000 C 
BRANCH  23  24
ATOM     24  C   UNL     1       4.581   3.725  17.618  0.00  0.00    +0.000 C 
ATOM     25  C   UNL     1       3.327   3.839  16.789  0.00  0.00    +0.000 C 
ATOM     26  C   UNL     1       3.449   2.706  17.780  0.00  0.00    +0.000 C 
BRANCH  26  27
ATOM     27  C   UNL     1       2.667   2.665  19.076  0.00  0.00    +0.000 A 
ATOM     28  C   UNL     1       1.315   3.035  19.171  0.00  0.00    +0.000 A 
ATOM     29  C   UNL     1       0.675   3.134  20.413  0.00  0.00    +0.000 A 
ATOM     30  C   UNL     1       1.362   2.812  21.579  0.00  0.00    +0.000 A 
ATOM     31  C   UNL     1       2.671   2.351  21.504  0.00  0.00    +0.000 A 
ATOM     32  C   UNL     1       3.310   2.274  20.264  0.00  0.00    +0.000 A 
ENDBRANCH  26  27
ENDBRANCH  23  24
ENDBRANCH  21  23
ENDBRANCH   5  19
TORSDOF 5
ENDMDL
MODEL 3
REMARK VINA RESULT:      -8.5      2.157      9.779
REMARK  Name = 
REMARK  6 active torsions:
REMARK  status: ('A' for Active; 'I' for Inactive)
REMARK    1  A    between atoms: C_1  and  N_2
REMARK    2  A    between atoms: C_9  and  C_10
REMARK    3  A    between atoms: C_14  and  C_15
REMARK    4  A    between atoms: N_17  and  C_18
REMARK    5  A    between atoms: C_18  and  C_19
REMARK    6  A    between atoms: C_21  and  C_22
REMARK                            x       y       z     vdW  Elec       q    Type
REMARK                         _______ _______ _______ _____ _____    ______ ____
ROOT
ATOM      1  C   UNL     1       2.053   7.838  19.134  0.00  0.00    +0.000 A 
ATOM      2  C   UNL     1       1.766   8.585  17.977  0.00  0.00    +0.000 A 
ATOM      3  C   UNL     1       0.916   9.689  18.016  0.00  0.00    +0.000 A 
ATOM      4  C   UNL     1       0.340  10.090  19.224  0.00  0.00    +0.000 A 
ATOM      5  C   UNL     1       0.617   9.386  20.395  0.00  0.00    +0.000 A 
ATOM      6  C   UNL     1       1.474   8.275  20.346  0.00  0.00    +0.000 A 
ENDROOT
BRANCH   1  15
ATOM      7  C   UNL     1       2.600   2.763  21.424  0.00  0.00    +0.000 C 
ATOM      8  N   UNL     1       3.516   3.191  20.408  0.00  0.00    +0.000 N 
ATOM      9  C   UNL     1       4.570   2.432  19.870  0.00  0.00    +0.000 A 
ATOM     10  O   UNL     1       4.907   1.300  20.171  0.00  0.00    +0.000 OA
ATOM     11  N   UNL     1       5.181   3.230  18.899  0.00  0.00    +0.000 N 
ATOM     12  C   UNL     1       4.525   4.446  18.827  0.00  0.00    +0.000 A 
ATOM     13  N   UNL     1       4.815   5.455  18.010  0.00  0.00    +0.000 NA
ATOM     14  C   UNL     1       3.986   6.523  18.158  0.00  0.00    +0.000 A 
ATOM     15  C   UNL     1       2.907   6.631  19.077  0.00  0.00    +0.000 A 
ATOM     16  C   UNL     1       2.674   5.521  19.908  0.00  0.00    +0.000 A 
ATOM     17  C   UNL     1       3.497   4.431  19.760  0.00  0.00    +0.000 A 
ATOM     18  H   UNL     1       5.966   2.964  18.330  0.00  0.00    +0.000 HD
ENDBRANCH   1  15
BRANCH   5  19
ATOM     19  C   UNL     1       0.036   9.806  21.703  0.00  0.00    +0.000 C 
ATOM     20  O   UNL     1       0.260   9.134  22.707  0.00  0.00    +0.000 OA
ATOM     21  N   UNL     1      -0.732  10.951  21.693  0.00  0.00    +0.000 N 
ATOM     22  H   UNL     1      -0.910  11.429  20.822  0.00  0.00    +0.000 HD
BRANCH  21  23
ATOM     23  C   UNL     1      -1.284  11.546  22.894  0.00  0.00    +0.000 C 
BRANCH  23  24
ATOM     24  C   UNL     1      -1.158  13.043  22.854  0.00  0.00    +0.000 C 
ATOM     25  C   UNL     1      -1.949  13.970  23.741  0.00  0.00    +0.000 C 
ATOM     26  C   UNL     1      -2.245  13.945  22.261  0.00  0.00    +0.000 C 
BRANCH  26  27
ATOM     27  C   UNL     1      -3.499  13.319  21.687  0.00  0.00    +0.000 A 
ATOM     28  C   UNL     1      -3.603  12.887  20.355  0.00  0.00    +0.000 A 
ATOM     29  C   UNL     1      -4.827  12.461  19.823  0.00  0.00    +0.000 A 
ATOM     30  C   UNL     1      -5.958  12.411  20.631  0.00  0.00    +0.000 A 
ATOM     31  C   UNL     1      -5.859  12.742  21.977  0.00  0.00    +0.000 A 
ATOM     32  C   UNL     1      -4.641  13.185  22.496  0.00  0.00    +0.000 A 
ENDBRANCH  26  27
ENDBRANCH  23  24
ENDBRANCH  21  23
ENDBRANCH   5  19
TORSDOF 5
ENDMDL
MODEL 4
REMARK VINA RESULT:      -8.5      2.235     10.006
REMARK  Name = 
REMARK  6 active torsions:
REMARK  status: ('A' for Active; 'I' for Inactive)
REMARK    1  A    between atoms: C_1  and  N_2
REMARK    2  A    between atoms: C_9  and  C_10
REMARK    3  A    between atoms: C_14  and  C_15
REMARK    4  A    between atoms: N_17  and  C_18
REMARK    5  A    between atoms: C_18  and  C_19
REMARK    6  A    between atoms: C_21  and  C_22
REMARK                            x       y       z     vdW  Elec       q    Type
REMARK                         _______ _______ _______ _____ _____    ______ ____
ROOT
ATOM      1  C   UNL     1       2.138   7.857  19.048  0.00  0.00    +0.000 A 
ATOM      2  C   UNL     1       1.762   8.508  17.859  0.00  0.00    +0.000 A 
ATOM      3  C   UNL     1       0.934   9.630  17.875  0.00  0.00    +0.000 A 
ATOM      4  C   UNL     1       0.472  10.145  19.088  0.00  0.00    +0.000 A 
ATOM      5  C   UNL     1       0.840   9.537  20.288  0.00  0.00    +0.000 A 
ATOM      6  C   UNL     1       1.673   8.409  20.262  0.00  0.00    +0.000 A 
ENDROOT
BRANCH   1  15
ATOM      7  C   UNL     1       2.570   2.828  21.460  0.00  0.00    +0.000 C 
ATOM      8  N   UNL     1       3.499   3.213  20.439  0.00  0.00    +0.000 N 
ATOM      9  C   UNL     1       4.539   2.419  19.923  0.00  0.00    +0.000 A 
ATOM     10  O   UNL     1       4.851   1.288  20.252  0.00  0.00    +0.000 OA
ATOM     11  N   UNL     1       5.169   3.181  18.936  0.00  0.00    +0.000 N 
ATOM     12  C   UNL     1       4.540   4.408  18.832  0.00  0.00    +0.000 A 
ATOM     13  N   UNL     1       4.854   5.392  17.992  0.00  0.00    +0.000 NA
ATOM     14  C   UNL     1       4.047   6.480  18.112  0.00  0.00    +0.000 A 
ATOM     15  C   UNL     1       2.967   6.631  19.023  0.00  0.00    +0.000 A 
ATOM     16  C   UNL     1       2.708   5.547  19.880  0.00  0.00    +0.000 A 
ATOM     17  C   UNL     1       3.509   4.437  19.761  0.00  0.00    +0.000 A 
ATOM     18  H   UNL     1       5.951   2.885  18.376  0.00  0.00    +0.000 HD
ENDBRANCH   1  15
BRANCH   5  19
ATOM     19  C   UNL     1       0.381  10.080  21.600  0.00  0.00    +0.000 C 
ATOM     20  O   UNL     1       1.056   9.879  22.606  0.00  0.00    +0.000 OA
ATOM     21  N   UNL     1      -0.802  10.789  21.589  0.00  0.00    +0.000 N 
ATOM     22  H   UNL     1      -1.327  10.879  20.732  0.00  0.00    +0.000 HD
BRANCH  21  23
ATOM     23  C   UNL     1      -1.332  11.464  22.757  0.00  0.00    +0.000 C 
BRANCH  23  24
ATOM     24  C   UNL     1      -1.196  12.954  22.621  0.00  0.00    +0.000 C 
ATOM     25  C   UNL     1      -1.278  13.910  23.784  0.00  0.00    +0.000 C 
ATOM     26  C   UNL     1      -2.387  13.906  22.760  0.00  0.00    +0.000 C 
BRANCH  26  27
ATOM     27  C   UNL     1      -3.763  13.339  23.044  0.00  0.00    +0.000 A 
ATOM     28  C   UNL     1      -4.785  13.282  22.083  0.00  0.00    +0.000 A 
ATOM     29  C   UNL     1      -6.087  12.897  22.430  0.00  0.00    +0.000 A 
ATOM     30  C   UNL     1      -6.375  12.513  23.735  0.00  0.00    +0.000 A 
ATOM     31  C   UNL     1      -5.359  12.469  24.682  0.00  0.00    +0.000 A 
ATOM     32  C   UNL     1      -4.068  12.873  24.335  0.00  0.00    +0.000 A 
ENDBRANCH  26  27
ENDBRANCH  23  24
ENDBRANCH  21  23
ENDBRANCH   5  19
TORSDOF 5
ENDMDL
MODEL 5
REMARK VINA RESULT:      -8.4      2.989      4.869
REMARK  Name = 
REMARK  6 active torsions:
REMARK  status: ('A' for Active; 'I' for Inactive)
REMARK    1  A    between atoms: C_1  and  N_2
REMARK    2  A    between atoms: C_9  and  C_10
REMARK    3  A    between atoms: C_14  and  C_15
REMARK    4  A    between atoms: N_17  and  C_18
REMARK    5  A    between atoms: C_18  and  C_19
REMARK    6  A    between atoms: C_21  and  C_22
REMARK                            x       y       z     vdW  Elec       q    Type
REMARK                         _______ _______ _______ _____ _____    ______ ____
ROOT
ATOM      1  C   UNL     1       2.420   6.156  19.901  0.00  0.00    +0.000 A 
ATOM      2  C   UNL     1       1.840   5.135  20.677  0.00  0.00    +0.000 A 
ATOM      3  C   UNL     1       2.322   3.828  20.635  0.00  0.00    +0.000 A 
ATOM      4  C   UNL     1       3.415   3.507  19.826  0.00  0.00    +0.000 A 
ATOM      5  C   UNL     1       4.026   4.496  19.058  0.00  0.00    +0.000 A 
ATOM      6  C   UNL     1       3.534   5.809  19.105  0.00  0.00    +0.000 A 
ENDROOT
BRANCH   1  15
ATOM      7  C   UNL     1      -0.264   9.780  23.211  0.00  0.00    +0.000 C 
ATOM      8  N   UNL     1       0.094  10.161  21.877  0.00  0.00    +0.000 N 
ATOM      9  C   UNL     1      -0.134  11.416  21.284  0.00  0.00    +0.000 A 
ATOM     10  O   UNL     1      -0.681  12.388  21.776  0.00  0.00    +0.000 OA
ATOM     11  N   UNL     1       0.397  11.349  19.993  0.00  0.00    +0.000 N 
ATOM     12  C   UNL     1       0.945  10.096  19.787  0.00  0.00    +0.000 A 
ATOM     13  N   UNL     1       1.550   9.668  18.683  0.00  0.00    +0.000 NA
ATOM     14  C   UNL     1       2.001   8.388  18.778  0.00  0.00    +0.000 A 
ATOM     15  C   UNL     1       1.867   7.529  19.902  0.00  0.00    +0.000 A 
ATOM     16  C   UNL     1       1.208   8.059  21.025  0.00  0.00    +0.000 A 
ATOM     17  C   UNL     1       0.758   9.355  20.946  0.00  0.00    +0.000 A 
ATOM     18  H   UNL     1       0.395  12.095  19.319  0.00  0.00    +0.000 HD
ENDBRANCH   1  15
BRANCH   5  19
ATOM     19  C   UNL     1       5.209   4.187  18.203  0.00  0.00    +0.000 C 
ATOM     20  O   UNL     1       6.338   4.279  18.678  0.00  0.00    +0.000 OA
ATOM     21  N   UNL     1       4.943   3.809  16.903  0.00  0.00    +0.000 N 
ATOM     22  H   UNL     1       3.992   3.798  16.567  0.00  0.00    +0.000 HD
BRANCH  21  23
ATOM     23  C   UNL     1       5.972   3.381  15.977  0.00  0.00    +0.000 C 
BRANCH  23  24
ATOM     24  C   UNL     1       6.800   4.549  15.520  0.00  0.00    +0.000 C 
ATOM     25  C   UNL     1       6.214   5.805  14.924  0.00  0.00    +0.000 C 
ATOM     26  C   UNL     1       7.015   4.878  14.040  0.00  0.00    +0.000 C 
BRANCH  26  27
ATOM     27  C   UNL     1       6.376   4.001  12.983  0.00  0.00    +0.000 A 
ATOM     28  C   UNL     1       5.003   4.031  12.686  0.00  0.00    +0.000 A 
ATOM     29  C   UNL     1       4.428   3.095  11.816  0.00  0.00    +0.000 A 
ATOM     30  C   UNL     1       5.226   2.145  11.189  0.00  0.00    +0.000 A 
ATOM     31  C   UNL     1       6.601   2.154  11.393  0.00  0.00    +0.000 A 
ATOM     32  C   UNL     1       7.165   3.078  12.276  0.00  0.00    +0.000 A 
ENDBRANCH  26  27
ENDBRANCH  23  24
ENDBRANCH  21  23
ENDBRANCH   5  19
TORSDOF 5
ENDMDL
MODEL 6
REMARK VINA RESULT:      -8.4      3.031      4.780
REMARK  Name = 
REMARK  6 active torsions:
REMARK  status: ('A' for Active; 'I' for Inactive)
REMARK    1  A    between atoms: C_1  and  N_2
REMARK    2  A    between atoms: C_9  and  C_10
REMARK    3  A    between atoms: C_14  and  C_15
REMARK    4  A    between atoms: N_17  and  C_18
REMARK    5  A    between atoms: C_18  and  C_19
REMARK    6  A    between atoms: C_21  and  C_22
REMARK                            x       y       z     vdW  Elec       q    Type
REMARK                         _______ _______ _______ _____ _____    ______ ____
ROOT
ATOM      1  C   UNL     1      -1.236  10.906  19.019  0.00  0.00    +0.000 A 
ATOM      2  C   UNL     1      -0.859  11.419  20.274  0.00  0.00    +0.000 A 
ATOM      3  C   UNL     1       0.358  11.080  20.862  0.00  0.00    +0.000 A 
ATOM      4  C   UNL     1       1.245  10.227  20.201  0.00  0.00    +0.000 A 
ATOM      5  C   UNL     1       0.914   9.714  18.947  0.00  0.00    +0.000 A 
ATOM      6  C   UNL     1      -0.314  10.061  18.363  0.00  0.00    +0.000 A 
ENDROOT
BRANCH   1  15
ATOM      7  C   UNL     1      -6.075  13.439  20.228  0.00  0.00    +0.000 C 
ATOM      8  N   UNL     1      -5.881  12.849  18.937  0.00  0.00    +0.000 N 
ATOM      9  C   UNL     1      -6.800  12.862  17.873  0.00  0.00    +0.000 A 
ATOM     10  O   UNL     1      -7.917  13.351  17.854  0.00  0.00    +0.000 OA
ATOM     11  N   UNL     1      -6.187  12.196  16.808  0.00  0.00    +0.000 N 
ATOM     12  C   UNL     1      -4.923  11.785  17.191  0.00  0.00    +0.000 A 
ATOM     13  N   UNL     1      -4.041  11.132  16.440  0.00  0.00    +0.000 NA
ATOM     14  C   UNL     1      -2.872  10.872  17.085  0.00  0.00    +0.000 A 
ATOM     15  C   UNL     1      -2.555  11.220  18.426  0.00  0.00    +0.000 A 
ATOM     16  C   UNL     1      -3.547  11.903  19.151  0.00  0.00    +0.000 A 
ATOM     17  C   UNL     1      -4.728  12.182  18.507  0.00  0.00    +0.000 A 
ATOM     18  H   UNL     1      -6.591  12.045  15.900  0.00  0.00    +0.000 HD
ENDBRANCH   1  15
BRANCH   5  19
ATOM     19  C   UNL     1       1.851   8.821  18.207  0.00  0.00    +0.000 C 
ATOM     20  O   UNL     1       2.318   9.192  17.133  0.00  0.00    +0.000 OA
ATOM     21  N   UNL     1       2.136   7.608  18.798  0.00  0.00    +0.000 N 
ATOM     22  H   UNL     1       1.682   7.350  19.662  0.00  0.00    +0.000 HD
BRANCH  21  23
ATOM     23  C   UNL     1       3.102   6.671  18.259  0.00  0.00    +0.000 C 
BRANCH  23  24
ATOM     24  C   UNL     1       2.472   5.326  18.031  0.00  0.00    +0.000 C 
ATOM     25  C   UNL     1       2.746   4.119  18.892  0.00  0.00    +0.000 C 
ATOM     26  C   UNL     1       3.254   4.135  17.470  0.00  0.00    +0.000 C 
BRANCH  26  27
ATOM     27  C   UNL     1       4.720   4.303  17.126  0.00  0.00    +0.000 A 
ATOM     28  C   UNL     1       5.731   4.395  18.096  0.00  0.00    +0.000 A 
ATOM     29  C   UNL     1       7.050   4.709  17.741  0.00  0.00    +0.000 A 
ATOM     30  C   UNL     1       7.390   4.884  16.404  0.00  0.00    +0.000 A 
ATOM     31  C   UNL     1       6.426   4.704  15.418  0.00  0.00    +0.000 A 
ATOM     32  C   UNL     1       5.110   4.410  15.779  0.00  0.00    +0.000 A 
ENDBRANCH  26  27
ENDBRANCH  23  24
ENDBRANCH  21  23
ENDBRANCH   5  19
TORSDOF 5
ENDMDL
MODEL 7
REMARK VINA RESULT:      -8.2      3.008      4.142
REMARK  Name = 
REMARK  6 active torsions:
REMARK  status: ('A' for Active; 'I' for Inactive)
REMARK    1  A    between atoms: C_1  and  N_2
REMARK    2  A    between atoms: C_9  and  C_10
REMARK    3  A    between atoms: C_14  and  C_15
REMARK    4  A    between atoms: N_17  and  C_18
REMARK    5  A    between atoms: C_18  and  C_19
REMARK    6  A    between atoms: C_21  and  C_22
REMARK                            x       y       z     vdW  Elec       q    Type
REMARK                         _______ _______ _______ _____ _____    ______ ____
ROOT
ATOM      1  C   UNL     1      -1.094  10.451  18.938  0.00  0.00    +0.000 A 
ATOM      2  C   UNL     1      -0.837  10.718  20.295  0.00  0.00    +0.000 A 
ATOM      3  C   UNL     1       0.334  10.281  20.913  0.00  0.00    +0.000 A 
ATOM      4  C   UNL     1       1.293   9.575  20.182  0.00  0.00    +0.000 A 
ATOM      5  C   UNL     1       1.080   9.309  18.830  0.00  0.00    +0.000 A 
ATOM      6  C   UNL     1      -0.101   9.752  18.217  0.00  0.00    +0.000 A 
ENDROOT
BRANCH   1  15
ATOM      7  C   UNL     1      -5.782  13.312  20.006  0.00  0.00    +0.000 C 
ATOM      8  N   UNL     1      -5.583  12.721  18.715  0.00  0.00    +0.000 N 
ATOM      9  C   UNL     1      -6.461  12.810  17.620  0.00  0.00    +0.000 A 
ATOM     10  O   UNL     1      -7.538  13.378  17.567  0.00  0.00    +0.000 OA
ATOM     11  N   UNL     1      -5.859  12.112  16.569  0.00  0.00    +0.000 N 
ATOM     12  C   UNL     1      -4.642  11.609  16.992  0.00  0.00    +0.000 A 
ATOM     13  N   UNL     1      -3.781  10.901  16.264  0.00  0.00    +0.000 NA
ATOM     14  C   UNL     1      -2.658  10.553  16.948  0.00  0.00    +0.000 A 
ATOM     15  C   UNL     1      -2.366  10.864  18.303  0.00  0.00    +0.000 A 
ATOM     16  C   UNL     1      -3.332  11.610  19.000  0.00  0.00    +0.000 A 
ATOM     17  C   UNL     1      -4.467  11.978  18.319  0.00  0.00    +0.000 A 
ATOM     18  H   UNL     1      -6.240  11.999  15.646  0.00  0.00    +0.000 HD
ENDBRANCH   1  15
BRANCH   5  19
ATOM     19  C   UNL     1       2.097   8.578  18.019  0.00  0.00    +0.000 C 
ATOM     20  O   UNL     1       2.607   9.132  17.048  0.00  0.00    +0.000 OA
ATOM     21  N   UNL     1       2.402   7.298  18.428  0.00  0.00    +0.000 N 
ATOM     22  H   UNL     1       1.912   6.889  19.210  0.00  0.00    +0.000 HD
BRANCH  21  23
ATOM     23  C   UNL     1       3.438   6.494  17.810  0.00  0.00    +0.000 C 
BRANCH  23  24
ATOM     24  C   UNL     1       4.477   6.094  18.819  0.00  0.00    +0.000 C 
ATOM     25  C   UNL     1       5.480   4.991  18.593  0.00  0.00    +0.000 C 
ATOM     26  C   UNL     1       4.391   4.791  19.620  0.00  0.00    +0.000 C 
BRANCH  26  27
ATOM     27  C   UNL     1       3.218   3.859  19.397  0.00  0.00    +0.000 A 
ATOM     28  C   UNL     1       3.188   2.890  18.381  0.00  0.00    +0.000 A 
ATOM     29  C   UNL     1       2.024   2.158  18.110  0.00  0.00    +0.000 A 
ATOM     30  C   UNL     1       0.885   2.347  18.886  0.00  0.00    +0.000 A 
ATOM     31  C   UNL     1       0.920   3.232  19.958  0.00  0.00    +0.000 A 
ATOM     32  C   UNL     1       2.076   3.972  20.211  0.00  0.00    +0.000 A 
ENDBRANCH  26  27
ENDBRANCH  23  24
ENDBRANCH  21  23
ENDBRANCH   5  19
TORSDOF 5
ENDMDL
MODEL 8
REMARK VINA RESULT:      -8.1      2.367      9.863
REMARK  Name = 
REMARK  6 active torsions:
REMARK  status: ('A' for Active; 'I' for Inactive)
REMARK    1  A    between atoms: C_1  and  N_2
REMARK    2  A    between atoms: C_9  and  C_10
REMARK    3  A    between atoms: C_14  and  C_15
REMARK    4  A    between atoms: N_17  and  C_18
REMARK    5  A    between atoms: C_18  and  C_19
REMARK    6  A    between atoms: C_21  and  C_22
REMARK                            x       y       z     vdW  Elec       q    Type
REMARK                         _______ _______ _______ _____ _____    ______ ____
ROOT
ATOM      1  C   UNL     1       2.220   7.939  18.872  0.00  0.00    +0.000 A 
ATOM      2  C   UNL     1       1.733   8.593  17.725  0.00  0.00    +0.000 A 
ATOM      3  C   UNL     1       0.747   9.575  17.812  0.00  0.00    +0.000 A 
ATOM      4  C   UNL     1       0.230   9.945  19.056  0.00  0.00    +0.000 A 
ATOM      5  C   UNL     1       0.703   9.332  20.216  0.00  0.00    +0.000 A 
ATOM      6  C   UNL     1       1.695   8.344  20.119  0.00  0.00    +0.000 A 
ENDROOT
BRANCH   1  15
ATOM      7  C   UNL     1       7.407   6.949  17.026  0.00  0.00    +0.000 C 
ATOM      8  N   UNL     1       6.658   5.898  17.650  0.00  0.00    +0.000 N 
ATOM      9  C   UNL     1       7.111   4.590  17.894  0.00  0.00    +0.000 A 
ATOM     10  O   UNL     1       8.195   4.108  17.612  0.00  0.00    +0.000 OA
ATOM     11  N   UNL     1       6.067   3.920  18.539  0.00  0.00    +0.000 N 
ATOM     12  C   UNL     1       4.999   4.784  18.699  0.00  0.00    +0.000 A 
ATOM     13  N   UNL     1       3.835   4.505  19.280  0.00  0.00    +0.000 NA
ATOM     14  C   UNL     1       2.978   5.561  19.302  0.00  0.00    +0.000 A 
ATOM     15  C   UNL     1       3.222   6.855  18.770  0.00  0.00    +0.000 A 
ATOM     16  C   UNL     1       4.475   7.062  18.167  0.00  0.00    +0.000 A 
ATOM     17  C   UNL     1       5.355   6.007  18.148  0.00  0.00    +0.000 A 
ATOM     18  H   UNL     1       6.088   2.964  18.850  0.00  0.00    +0.000 HD
ENDBRANCH   1  15
BRANCH   5  19
ATOM     19  C   UNL     1       0.188   9.723  21.560  0.00  0.00    +0.000 C 
ATOM     20  O   UNL     1       0.537   9.086  22.550  0.00  0.00    +0.000 OA
ATOM     21  N   UNL     1      -0.668  10.804  21.597  0.00  0.00    +0.000 N 
ATOM     22  H   UNL     1      -0.947  11.255  20.738  0.00  0.00    +0.000 HD
BRANCH  21  23
ATOM     23  C   UNL     1      -1.176  11.371  22.830  0.00  0.00    +0.000 C 
BRANCH  23  24
ATOM     24  C   UNL     1      -1.016  12.865  22.836  0.00  0.00    +0.000 C 
ATOM     25  C   UNL     1      -1.784  13.783  23.754  0.00  0.00    +0.000 C 
ATOM     26  C   UNL     1      -2.083  13.810  22.274  0.00  0.00    +0.000 C 
BRANCH  26  27
ATOM     27  C   UNL     1      -3.352  13.231  21.684  0.00  0.00    +0.000 A 
ATOM     28  C   UNL     1      -3.463  12.830  20.342  0.00  0.00    +0.000 A 
ATOM     29  C   UNL     1      -4.697  12.449  19.799  0.00  0.00    +0.000 A 
ATOM     30  C   UNL     1      -5.831  12.413  20.602  0.00  0.00    +0.000 A 
ATOM     31  C   UNL     1      -5.728  12.714  21.956  0.00  0.00    +0.000 A 
ATOM     32  C   UNL     1      -4.500  13.111  22.487  0.00  0.00    +0.000 A 
ENDBRANCH  26  27
ENDBRANCH  23  24
ENDBRANCH  21  23
ENDBRANCH   5  19
TORSDOF 5
ENDMDL
MODEL 9
REMARK VINA RESULT:      -8.1      2.622      4.118
REMARK  Name = 
REMARK  6 active torsions:
REMARK  status: ('A' for Active; 'I' for Inactive)
REMARK    1  A    between atoms: C_1  and  N_2
REMARK    2  A    between atoms: C_9  and  C_10
REMARK    3  A    between atoms: C_14  and  C_15
REMARK    4  A    between atoms: N_17  and  C_18
REMARK    5  A    between atoms: C_18  and  C_19
REMARK    6  A    between atoms: C_21  and  C_22
REMARK                            x       y       z     vdW  Elec       q    Type
REMARK                         _______ _______ _______ _____ _____    ______ ____
ROOT
ATOM      1  C   UNL     1      -1.486  12.621  20.779  0.00  0.00    +0.000 A 
ATOM      2  C   UNL     1      -0.639  13.718  20.535  0.00  0.00    +0.000 A 
ATOM      3  C   UNL     1       0.418  13.633  19.631  0.00  0.00    +0.000 A 
ATOM      4  C   UNL     1       0.649  12.448  18.928  0.00  0.00    +0.000 A 
ATOM      5  C   UNL     1      -0.181  11.346  19.131  0.00  0.00    +0.000 A 
ATOM      6  C   UNL     1      -1.243  11.440  20.043  0.00  0.00    +0.000 A 
ENDROOT
BRANCH   1  15
ATOM      7  C   UNL     1      -7.064  12.724  21.187  0.00  0.00    +0.000 C 
ATOM      8  N   UNL     1      -6.260  12.768  22.372  0.00  0.00    +0.000 N 
ATOM      9  C   UNL     1      -6.736  12.803  23.695  0.00  0.00    +0.000 A 
ATOM     10  O   UNL     1      -7.895  12.820  24.074  0.00  0.00    +0.000 OA
ATOM     11  N   UNL     1      -5.611  12.814  24.523  0.00  0.00    +0.000 N 
ATOM     12  C   UNL     1      -4.468  12.780  23.744  0.00  0.00    +0.000 A 
ATOM     13  N   UNL     1      -3.212  12.767  24.181  0.00  0.00    +0.000 NA
ATOM     14  C   UNL     1      -2.294  12.720  23.178  0.00  0.00    +0.000 A 
ATOM     15  C   UNL     1      -2.570  12.696  21.785  0.00  0.00    +0.000 A 
ATOM     16  C   UNL     1      -3.925  12.720  21.410  0.00  0.00    +0.000 A 
ATOM     17  C   UNL     1      -4.862  12.756  22.413  0.00  0.00    +0.000 A 
ATOM     18  H   UNL     1      -5.622  12.832  25.529  0.00  0.00    +0.000 HD
ENDBRANCH   1  15
BRANCH   5  19
ATOM     19  C   UNL     1       0.027  10.075  18.378  0.00  0.00    +0.000 C 
ATOM     20  O   UNL     1      -0.878   9.635  17.673  0.00  0.00    +0.000 OA
ATOM     21  N   UNL     1       1.256   9.468  18.529  0.00  0.00    +0.000 N 
ATOM     22  H   UNL     1       1.938   9.862  19.159  0.00  0.00    +0.000 HD
BRANCH  21  23
ATOM     23  C   UNL     1       1.651   8.285  17.791  0.00  0.00    +0.000 C 
BRANCH  23  24
ATOM     24  C   UNL     1       3.103   7.972  18.021  0.00  0.00    +0.000 C 
ATOM     25  C   UNL     1       3.900   7.027  17.158  0.00  0.00    +0.000 C 
ATOM     26  C   UNL     1       3.578   6.626  18.578  0.00  0.00    +0.000 C 
BRANCH  26  27
ATOM     27  C   UNL     1       2.557   5.560  18.916  0.00  0.00    +0.000 A 
ATOM     28  C   UNL     1       1.985   5.419  20.191  0.00  0.00    +0.000 A 
ATOM     29  C   UNL     1       1.167   4.325  20.503  0.00  0.00    +0.000 A 
ATOM     30  C   UNL     1       0.864   3.381  19.527  0.00  0.00    +0.000 A 
ATOM     31  C   UNL     1       1.340   3.550  18.232  0.00  0.00    +0.000 A 
ATOM     32  C   UNL     1       2.170   4.632  17.933  0.00  0.00    +0.000 A 
ENDBRANCH  26  27
ENDBRANCH  23  24
ENDBRANCH  21  23
ENDBRANCH   5  19
TORSDOF 5
ENDMDL
