MODEL 1
REMARK VINA RESULT:      -8.8      0.000      0.000
REMARK  Name = 
REMARK  6 active torsions:
REMARK  status: ('A' for Active; 'I' for Inactive)
REMARK    1  A    between atoms: N_3  and  C_4
REMARK    2  A    between atoms: C_4  and  C_5
REMARK    3  A    between atoms: C_5  and  O_6
REMARK    4  A    between atoms: N_11  and  C_12
REMARK    5  A    between atoms: C_17  and  C_18
REMARK    6  A    between atoms: C_18  and  C_19
REMARK                            x       y       z     vdW  Elec       q    Type
REMARK                         _______ _______ _______ _____ _____    ______ ____
ROOT
ATOM      1  C   UNL     1       6.191   5.624  17.716  0.00  0.00    +0.000 A 
ATOM      2  C   UNL     1       7.240   5.290  18.588  0.00  0.00    +0.000 A 
ATOM      3  C   UNL     1       8.210   6.228  18.982  0.00  0.00    +0.000 A 
ATOM      4  C   UNL     1       8.114   7.526  18.479  0.00  0.00    +0.000 A 
ATOM      5  N   UNL     1       8.874   8.638  18.721  0.00  0.00    +0.000 NA
ATOM      6  C   UNL     1       8.306   9.574  17.983  0.00  0.00    +0.000 A 
ATOM      7  O   UNL     1       7.217   9.149  17.256  0.00  0.00    +0.000 OA
ATOM      8  C   UNL     1       7.096   7.825  17.588  0.00  0.00    +0.000 A 
ATOM      9  C   UNL     1       6.128   6.916  17.156  0.00  0.00    +0.000 A 
ENDROOT
BRANCH   1  13
ATOM     10  O   UNL     1       4.986   3.495  19.350  0.00  0.00    +0.000 OA
ATOM     11  C   UNL     1       4.675   3.698  18.181  0.00  0.00    +0.000 C 
ATOM     12  N   UNL     1       3.764   2.897  17.529  0.00  0.00    +0.000 N 
ATOM     13  N   UNL     1       5.174   4.698  17.369  0.00  0.00    +0.000 N 
ATOM     14  H   UNL     1       3.383   3.180  16.638  0.00  0.00    +0.000 HD
ATOM     15  H   UNL     1       4.655   4.885  16.524  0.00  0.00    +0.000 HD
BRANCH  12  16
ATOM     16  C   UNL     1       3.123   1.759  18.182  0.00  0.00    +0.000 C 
BRANCH  16  17
ATOM     17  C   UNL     1       1.946   2.195  19.068  0.00  0.00    +0.000 C 
ATOM     18  C   UNL     1       2.244   2.127  20.569  0.00  0.00    +0.000 C 
ATOM     19  C   UNL     1       1.149   2.986  21.204  0.00  0.00    +0.000 C 
ATOM     20  C   UNL     1       0.721   3.984  20.129  0.00  0.00    +0.000 C 
ATOM     21  C   UNL     1       1.558   3.661  18.891  0.00  0.00    +0.000 C 
BRANCH  17  22
ATOM     22  O   UNL     1       0.805   1.374  18.766  0.00  0.00    +0.000 OA
ATOM     23  H   UNL     1       0.887   1.081  17.843  0.00  0.00    +0.000 HD
ENDBRANCH  17  22
ENDBRANCH  16  17
ENDBRANCH  12  16
ENDBRANCH   1  13
BRANCH   6  24
ATOM     24  C   UNL     1       8.639  11.028  17.940  0.00  0.00    +0.000 C 
BRANCH  24  25
ATOM     25  C   UNL     1       9.935  11.407  18.622  0.00  0.00    +0.000 A 
ATOM     26  C   UNL     1      11.109  11.573  17.872  0.00  0.00    +0.000 A 
ATOM     27  C   UNL     1      12.291  11.997  18.483  0.00  0.00    +0.000 A 
ATOM     28  C   UNL     1      12.315  12.262  19.849  0.00  0.00    +0.000 A 
ATOM     29  C   UNL     1      11.157  12.099  20.609  0.00  0.00    +0.000 A 
ATOM     30  C   UNL     1       9.973  11.675  19.999  0.00  0.00    +0.000 A 
ENDBRANCH  24  25
ENDBRANCH   6  24
TORSDOF 6
ENDMDL
MODEL 2
REMARK VINA RESULT:      -8.8      1.711      9.898
REMARK  Name = 
REMARK  6 active torsions:
REMARK  status: ('A' for Active; 'I' for Inactive)
REMARK    1  A    between atoms: N_3  and  C_4
REMARK    2  A    between atoms: C_4  and  C_5
REMARK    3  A    between atoms: C_5  and  O_6
REMARK    4  A    between atoms: N_11  and  C_12
REMARK    5  A    between atoms: C_17  and  C_18
REMARK    6  A    between atoms: C_18  and  C_19
REMARK                            x       y       z     vdW  Elec       q    Type
REMARK                         _______ _______ _______ _____ _____    ______ ____
ROOT
ATOM      1  C   UNL     1       7.696   6.724  18.207  0.00  0.00    +0.000 A 
ATOM      2  C   UNL     1       7.547   6.679  16.811  0.00  0.00    +0.000 A 
ATOM      3  C   UNL     1       6.713   5.740  16.180  0.00  0.00    +0.000 A 
ATOM      4  C   UNL     1       6.022   4.829  16.980  0.00  0.00    +0.000 A 
ATOM      5  N   UNL     1       5.123   3.851  16.651  0.00  0.00    +0.000 NA
ATOM      6  C   UNL     1       4.793   3.323  17.816  0.00  0.00    +0.000 A 
ATOM      7  O   UNL     1       5.427   3.885  18.900  0.00  0.00    +0.000 OA
ATOM      8  C   UNL     1       6.215   4.862  18.351  0.00  0.00    +0.000 A 
ATOM      9  C   UNL     1       7.050   5.765  19.013  0.00  0.00    +0.000 A 
ENDROOT
BRANCH   1  13
ATOM     10  O   UNL     1       7.788   9.625  17.726  0.00  0.00    +0.000 OA
ATOM     11  C   UNL     1       8.500   9.061  18.550  0.00  0.00    +0.000 C 
ATOM     12  N   UNL     1       9.441   9.751  19.280  0.00  0.00    +0.000 N 
ATOM     13  N   UNL     1       8.485   7.712  18.850  0.00  0.00    +0.000 N 
ATOM     14  H   UNL     1       9.888   9.317  20.076  0.00  0.00    +0.000 HD
ATOM     15  H   UNL     1       8.948   7.441  19.705  0.00  0.00    +0.000 HD
BRANCH  12  16
ATOM     16  C   UNL     1       9.656  11.186  19.114  0.00  0.00    +0.000 C 
BRANCH  16  17
ATOM     17  C   UNL     1       9.880  11.891  20.460  0.00  0.00    +0.000 C 
ATOM     18  C   UNL     1       9.670  13.408  20.405  0.00  0.00    +0.000 C 
ATOM     19  C   UNL     1       9.514  13.814  21.872  0.00  0.00    +0.000 C 
ATOM     20  C   UNL     1       8.994  12.574  22.599  0.00  0.00    +0.000 C 
ATOM     21  C   UNL     1       8.886  11.475  21.541  0.00  0.00    +0.000 C 
BRANCH  17  22
ATOM     22  O   UNL     1      11.212  11.606  20.920  0.00  0.00    +0.000 OA
ATOM     23  H   UNL     1      11.176  10.791  21.448  0.00  0.00    +0.000 HD
ENDBRANCH  17  22
ENDBRANCH  16  17
ENDBRANCH  12  16
ENDBRANCH   1  13
BRANCH   6  24
ATOM     24  C   UNL     1       3.752   2.288  18.085  0.00  0.00    +0.000 C 
BRANCH  24  25
ATOM     25  C   UNL     1       2.851   2.580  19.265  0.00  0.00    +0.000 A 
ATOM     26  C   UNL     1       1.509   2.938  19.060  0.00  0.00    +0.000 A 
ATOM     27  C   UNL     1       0.651   3.134  20.144  0.00  0.00    +0.000 A 
ATOM     28  C   UNL     1       1.121   2.974  21.444  0.00  0.00    +0.000 A 
ATOM     29  C   UNL     1       2.453   2.622  21.664  0.00  0.00    +0.000 A 
ATOM     30  C   UNL     1       3.312   2.425  20.580  0.00  0.00    +0.000 A 
ENDBRANCH  24  25
ENDBRANCH   6  24
TORSDOF 6
ENDMDL
MODEL 3
REMARK VINA RESULT:      -8.7      1.811      9.974
REMARK  Name = 
REMARK  6 active torsions:
REMARK  status: ('A' for Active; 'I' for Inactive)
REMARK    1  A    between atoms: N_3  and  C_4
REMARK    2  A    between atoms: C_4  and  C_5
REMARK    3  A    between atoms: C_5  and  O_6
REMARK    4  A    between atoms: N_11  and  C_12
REMARK    5  A    between atoms: C_17  and  C_18
REMARK    6  A    between atoms: C_18  and  C_19
REMARK                            x       y       z     vdW  Elec       q    Type
REMARK                         _______ _______ _______ _____ _____    ______ ____
ROOT
ATOM      1  C   UNL     1       6.905   6.815  16.910  0.00  0.00    +0.000 A 
ATOM      2  C   UNL     1       7.380   5.989  15.878  0.00  0.00    +0.000 A 
ATOM      3  C   UNL     1       6.782   4.753  15.577  0.00  0.00    +0.000 A 
ATOM      4  C   UNL     1       5.685   4.348  16.338  0.00  0.00    +0.000 A 
ATOM      5  N   UNL     1       4.891   3.238  16.244  0.00  0.00    +0.000 NA
ATOM      6  C   UNL     1       4.009   3.399  17.213  0.00  0.00    +0.000 A 
ATOM      7  O   UNL     1       4.175   4.547  17.955  0.00  0.00    +0.000 OA
ATOM      8  C   UNL     1       5.258   5.158  17.378  0.00  0.00    +0.000 A 
ATOM      9  C   UNL     1       5.839   6.381  17.722  0.00  0.00    +0.000 A 
ENDROOT
BRANCH   1  13
ATOM     10  O   UNL     1       8.700   7.640  19.090  0.00  0.00    +0.000 OA
ATOM     11  C   UNL     1       8.280   8.417  18.240  0.00  0.00    +0.000 C 
ATOM     12  N   UNL     1       8.583   9.759  18.279  0.00  0.00    +0.000 N 
ATOM     13  N   UNL     1       7.465   8.092  17.173  0.00  0.00    +0.000 N 
ATOM     14  H   UNL     1       8.388  10.349  17.483  0.00  0.00    +0.000 HD
ATOM     15  H   UNL     1       7.402   8.778  16.436  0.00  0.00    +0.000 HD
BRANCH  12  16
ATOM     16  C   UNL     1       9.411  10.339  19.333  0.00  0.00    +0.000 C 
BRANCH  16  17
ATOM     17  C   UNL     1      10.039  11.673  18.900  0.00  0.00    +0.000 C 
ATOM     18  C   UNL     1      10.830  11.587  17.591  0.00  0.00    +0.000 C 
ATOM     19  C   UNL     1      10.976  13.044  17.150  0.00  0.00    +0.000 C 
ATOM     20  C   UNL     1       9.796  13.792  17.771  0.00  0.00    +0.000 C 
ATOM     21  C   UNL     1       9.013  12.755  18.577  0.00  0.00    +0.000 C 
BRANCH  17  22
ATOM     22  O   UNL     1      10.899  12.146  19.951  0.00  0.00    +0.000 OA
ATOM     23  H   UNL     1      10.683  11.648  20.757  0.00  0.00    +0.000 HD
ENDBRANCH  17  22
ENDBRANCH  16  17
ENDBRANCH  12  16
ENDBRANCH   1  13
BRANCH   6  24
ATOM     24  C   UNL     1       2.818   2.552  17.512  0.00  0.00    +0.000 C 
BRANCH  24  25
ATOM     25  C   UNL     1       2.319   2.631  18.939  0.00  0.00    +0.000 A 
ATOM     26  C   UNL     1       3.181   2.343  20.008  0.00  0.00    +0.000 A 
ATOM     27  C   UNL     1       2.751   2.488  21.328  0.00  0.00    +0.000 A 
ATOM     28  C   UNL     1       1.457   2.923  21.598  0.00  0.00    +0.000 A 
ATOM     29  C   UNL     1       0.587   3.210  20.545  0.00  0.00    +0.000 A 
ATOM     30  C   UNL     1       1.016   3.066  19.223  0.00  0.00    +0.000 A 
ENDBRANCH  24  25
ENDBRANCH   6  24
TORSDOF 6
ENDMDL
MODEL 4
REMARK VINA RESULT:      -8.7      2.345     10.223
REMARK  Name = 
REMARK  6 active torsions:
REMARK  status: ('A' for Active; 'I' for Inactive)
REMARK    1  A    between atoms: N_3  and  C_4
REMARK    2  A    between atoms: C_4  and  C_5
REMARK    3  A    between atoms: C_5  and  O_6
REMARK    4  A    between atoms: N_11  and  C_12
REMARK    5  A    between atoms: C_17  and  C_18
REMARK    6  A    between atoms: C_18  and  C_19
REMARK                            x       y       z     vdW  Elec       q    Type
REMARK                         _______ _______ _______ _____ _____    ______ ____
ROOT
ATOM      1  C   UNL     1       7.818   8.023  17.939  0.00  0.00    +0.000 A 
ATOM      2  C   UNL     1       8.418   7.134  18.846  0.00  0.00    +0.000 A 
ATOM      3  C   UNL     1       7.875   5.867  19.117  0.00  0.00    +0.000 A 
ATOM      4  C   UNL     1       6.701   5.497  18.460  0.00  0.00    +0.000 A 
ATOM      5  N   UNL     1       5.985   4.332  18.493  0.00  0.00    +0.000 NA
ATOM      6  C   UNL     1       4.984   4.554  17.662  0.00  0.00    +0.000 A 
ATOM      7  O   UNL     1       4.985   5.803  17.085  0.00  0.00    +0.000 OA
ATOM      8  C   UNL     1       6.102   6.404  17.601  0.00  0.00    +0.000 A 
ATOM      9  C   UNL     1       6.599   7.679  17.321  0.00  0.00    +0.000 A 
ENDROOT
BRANCH   1  13
ATOM     10  O   UNL     1       9.124   9.979  19.707  0.00  0.00    +0.000 OA
ATOM     11  C   UNL     1       8.971  10.162  18.504  0.00  0.00    +0.000 C 
ATOM     12  N   UNL     1       9.360  11.337  17.900  0.00  0.00    +0.000 N 
ATOM     13  N   UNL     1       8.400   9.275  17.612  0.00  0.00    +0.000 N 
ATOM     14  H   UNL     1       9.398  11.404  16.893  0.00  0.00    +0.000 HD
ATOM     15  H   UNL     1       8.561   9.462  16.634  0.00  0.00    +0.000 HD
BRANCH  12  16
ATOM     16  C   UNL     1       9.966  12.433  18.651  0.00  0.00    +0.000 C 
BRANCH  16  17
ATOM     17  C   UNL     1       9.446  13.802  18.186  0.00  0.00    +0.000 C 
ATOM     18  C   UNL     1       7.945  13.821  17.880  0.00  0.00    +0.000 C 
ATOM     19  C   UNL     1       7.587  15.308  17.871  0.00  0.00    +0.000 C 
ATOM     20  C   UNL     1       8.620  15.995  18.765  0.00  0.00    +0.000 C 
ATOM     21  C   UNL     1       9.564  14.893  19.247  0.00  0.00    +0.000 C 
BRANCH  17  22
ATOM     22  O   UNL     1      10.180  14.208  17.018  0.00  0.00    +0.000 OA
ATOM     23  H   UNL     1       9.618  14.043  16.243  0.00  0.00    +0.000 HD
ENDBRANCH  17  22
ENDBRANCH  16  17
ENDBRANCH  12  16
ENDBRANCH   1  13
BRANCH   6  24
ATOM     24  C   UNL     1       3.943   3.585  17.209  0.00  0.00    +0.000 C 
BRANCH  24  25
ATOM     25  C   UNL     1       2.746   3.458  18.126  0.00  0.00    +0.000 A 
ATOM     26  C   UNL     1       1.940   2.310  18.084  0.00  0.00    +0.000 A 
ATOM     27  C   UNL     1       0.880   2.151  18.978  0.00  0.00    +0.000 A 
ATOM     28  C   UNL     1       0.612   3.134  19.926  0.00  0.00    +0.000 A 
ATOM     29  C   UNL     1       1.403   4.282  19.979  0.00  0.00    +0.000 A 
ATOM     30  C   UNL     1       2.465   4.442  19.084  0.00  0.00    +0.000 A 
ENDBRANCH  24  25
ENDBRANCH   6  24
TORSDOF 6
ENDMDL
MODEL 5
REMARK VINA RESULT:      -8.7      1.627     10.031
REMARK  Name = 
REMARK  6 active torsions:
REMARK  status: ('A' for Active; 'I' for Inactive)
REMARK    1  A    between atoms: N_3  and  C_4
REMARK    2  A    between atoms: C_4  and  C_5
REMARK    3  A    between atoms: C_5  and  O_6
REMARK    4  A    between atoms: N_11  and  C_12
REMARK    5  A    between atoms: C_17  and  C_18
REMARK    6  A    between atoms: C_18  and  C_19
REMARK                            x       y       z     vdW  Elec       q    Type
REMARK                         _______ _______ _______ _____ _____    ______ ____
ROOT
ATOM      1  C   UNL     1       6.865   6.820  16.886  0.00  0.00    +0.000 A 
ATOM      2  C   UNL     1       7.355   5.978  15.875  0.00  0.00    +0.000 A 
ATOM      3  C   UNL     1       6.768   4.733  15.592  0.00  0.00    +0.000 A 
ATOM      4  C   UNL     1       5.666   4.335  16.350  0.00  0.00    +0.000 A 
ATOM      5  N   UNL     1       4.880   3.218  16.270  0.00  0.00    +0.000 NA
ATOM      6  C   UNL     1       3.988   3.392  17.228  0.00  0.00    +0.000 A 
ATOM      7  O   UNL     1       4.140   4.554  17.948  0.00  0.00    +0.000 OA
ATOM      8  C   UNL     1       5.224   5.161  17.370  0.00  0.00    +0.000 A 
ATOM      9  C   UNL     1       5.793   6.395  17.696  0.00  0.00    +0.000 A 
ENDROOT
BRANCH   1  13
ATOM     10  O   UNL     1       8.705   7.679  19.015  0.00  0.00    +0.000 OA
ATOM     11  C   UNL     1       8.252   8.446  18.173  0.00  0.00    +0.000 C 
ATOM     12  N   UNL     1       8.537   9.793  18.199  0.00  0.00    +0.000 N 
ATOM     13  N   UNL     1       7.413   8.106  17.129  0.00  0.00    +0.000 N 
ATOM     14  H   UNL     1       8.312  10.377  17.406  0.00  0.00    +0.000 HD
ATOM     15  H   UNL     1       7.321   8.788  16.391  0.00  0.00    +0.000 HD
BRANCH  12  16
ATOM     16  C   UNL     1       9.385  10.388  19.229  0.00  0.00    +0.000 C 
BRANCH  16  17
ATOM     17  C   UNL     1       9.941  11.753  18.795  0.00  0.00    +0.000 C 
ATOM     18  C   UNL     1      10.627  12.528  19.924  0.00  0.00    +0.000 C 
ATOM     19  C   UNL     1      11.452  13.591  19.196  0.00  0.00    +0.000 C 
ATOM     20  C   UNL     1      11.742  13.022  17.808  0.00  0.00    +0.000 C 
ATOM     21  C   UNL     1      11.057  11.656  17.758  0.00  0.00    +0.000 C 
BRANCH  17  22
ATOM     22  O   UNL     1       8.869  12.542  18.251  0.00  0.00    +0.000 OA
ATOM     23  H   UNL     1       9.076  12.720  17.319  0.00  0.00    +0.000 HD
ENDBRANCH  17  22
ENDBRANCH  16  17
ENDBRANCH  12  16
ENDBRANCH   1  13
BRANCH   6  24
ATOM     24  C   UNL     1       2.800   2.542  17.532  0.00  0.00    +0.000 C 
BRANCH  24  25
ATOM     25  C   UNL     1       2.295   2.635  18.955  0.00  0.00    +0.000 A 
ATOM     26  C   UNL     1       3.148   2.339  20.030  0.00  0.00    +0.000 A 
ATOM     27  C   UNL     1       2.713   2.496  21.348  0.00  0.00    +0.000 A 
ATOM     28  C   UNL     1       1.424   2.951  21.608  0.00  0.00    +0.000 A 
ATOM     29  C   UNL     1       0.564   3.247  20.551  0.00  0.00    +0.000 A 
ATOM     30  C   UNL     1       0.998   3.090  19.231  0.00  0.00    +0.000 A 
ENDBRANCH  24  25
ENDBRANCH   6  24
TORSDOF 6
ENDMDL
MODEL 6
REMARK VINA RESULT:      -8.6      2.299     10.516
REMARK  Name = 
REMARK  6 active torsions:
REMARK  status: ('A' for Active; 'I' for Inactive)
REMARK    1  A    between atoms: N_3  and  C_4
REMARK    2  A    between atoms: C_4  and  C_5
REMARK    3  A    between atoms: C_5  and  O_6
REMARK    4  A    between atoms: N_11  and  C_12
REMARK    5  A    between atoms: C_17  and  C_18
REMARK    6  A    between atoms: C_18  and  C_19
REMARK                            x       y       z     vdW  Elec       q    Type
REMARK                         _______ _______ _______ _____ _____    ______ ____
ROOT
ATOM      1  C   UNL     1       7.930   8.147  17.915  0.00  0.00    +0.000 A 
ATOM      2  C   UNL     1       8.459   7.301  18.904  0.00  0.00    +0.000 A 
ATOM      3  C   UNL     1       7.957   6.007  19.125  0.00  0.00    +0.000 A 
ATOM      4  C   UNL     1       6.897   5.566  18.331  0.00  0.00    +0.000 A 
ATOM      5  N   UNL     1       6.249   4.362  18.293  0.00  0.00    +0.000 NA
ATOM      6  C   UNL     1       5.349   4.520  17.339  0.00  0.00    +0.000 A 
ATOM      7  O   UNL     1       5.354   5.762  16.747  0.00  0.00    +0.000 OA
ATOM      8  C   UNL     1       6.362   6.430  17.391  0.00  0.00    +0.000 A 
ATOM      9  C   UNL     1       6.819   7.729  17.155  0.00  0.00    +0.000 A 
ENDROOT
BRANCH   1  13
ATOM     10  O   UNL     1       9.191  10.052  19.768  0.00  0.00    +0.000 OA
ATOM     11  C   UNL     1       9.030  10.287  18.576  0.00  0.00    +0.000 C 
ATOM     12  N   UNL     1       9.386  11.498  18.025  0.00  0.00    +0.000 N 
ATOM     13  N   UNL     1       8.478   9.427  17.645  0.00  0.00    +0.000 N 
ATOM     14  H   UNL     1       9.419  11.611  17.022  0.00  0.00    +0.000 HD
ATOM     15  H   UNL     1       8.630   9.663  16.676  0.00  0.00    +0.000 HD
BRANCH  12  16
ATOM     16  C   UNL     1       9.967  12.574  18.824  0.00  0.00    +0.000 C 
BRANCH  16  17
ATOM     17  C   UNL     1       9.928  13.920  18.085  0.00  0.00    +0.000 C 
ATOM     18  C   UNL     1      10.061  15.136  19.008  0.00  0.00    +0.000 C 
ATOM     19  C   UNL     1      10.428  16.281  18.063  0.00  0.00    +0.000 C 
ATOM     20  C   UNL     1      11.109  15.630  16.859  0.00  0.00    +0.000 C 
ATOM     21  C   UNL     1      11.096  14.125  17.125  0.00  0.00    +0.000 C 
BRANCH  17  22
ATOM     22  O   UNL     1       8.698  14.011  17.345  0.00  0.00    +0.000 OA
ATOM     23  H   UNL     1       8.065  13.392  17.746  0.00  0.00    +0.000 HD
ENDBRANCH  17  22
ENDBRANCH  16  17
ENDBRANCH  12  16
ENDBRANCH   1  13
BRANCH   6  24
ATOM     24  C   UNL     1       4.429   3.490  16.774  0.00  0.00    +0.000 C 
BRANCH  24  25
ATOM     25  C   UNL     1       3.183   3.228  17.592  0.00  0.00    +0.000 A 
ATOM     26  C   UNL     1       2.984   1.979  18.199  0.00  0.00    +0.000 A 
ATOM     27  C   UNL     1       1.875   1.754  19.017  0.00  0.00    +0.000 A 
ATOM     28  C   UNL     1       0.954   2.773  19.241  0.00  0.00    +0.000 A 
ATOM     29  C   UNL     1       1.137   4.019  18.643  0.00  0.00    +0.000 A 
ATOM     30  C   UNL     1       2.247   4.246  17.823  0.00  0.00    +0.000 A 
ENDBRANCH  24  25
ENDBRANCH   6  24
TORSDOF 6
ENDMDL
MODEL 7
REMARK VINA RESULT:      -8.5      4.978      7.800
REMARK  Name = 
REMARK  6 active torsions:
REMARK  status: ('A' for Active; 'I' for Inactive)
REMARK    1  A    between atoms: N_3  and  C_4
REMARK    2  A    between atoms: C_4  and  C_5
REMARK    3  A    between atoms: C_5  and  O_6
REMARK    4  A    between atoms: N_11  and  C_12
REMARK    5  A    between atoms: C_17  and  C_18
REMARK    6  A    between atoms: C_18  and  C_19
REMARK                            x       y       z     vdW  Elec       q    Type
REMARK                         _______ _______ _______ _____ _____    ______ ____
ROOT
ATOM      1  C   UNL     1       5.020   5.356  18.746  0.00  0.00    +0.000 A 
ATOM      2  C   UNL     1       6.385   5.211  19.044  0.00  0.00    +0.000 A 
ATOM      3  C   UNL     1       7.353   5.036  18.041  0.00  0.00    +0.000 A 
ATOM      4  C   UNL     1       6.927   5.005  16.712  0.00  0.00    +0.000 A 
ATOM      5  N   UNL     1       7.637   4.896  15.547  0.00  0.00    +0.000 NA
ATOM      6  C   UNL     1       6.709   4.939  14.609  0.00  0.00    +0.000 A 
ATOM      7  O   UNL     1       5.422   5.060  15.080  0.00  0.00    +0.000 OA
ATOM      8  C   UNL     1       5.573   5.108  16.442  0.00  0.00    +0.000 A 
ATOM      9  C   UNL     1       4.579   5.262  17.411  0.00  0.00    +0.000 A 
ENDROOT
BRANCH   1  13
ATOM     10  O   UNL     1       2.331   6.521  18.486  0.00  0.00    +0.000 OA
ATOM     11  C   UNL     1       2.811   6.182  19.562  0.00  0.00    +0.000 C 
ATOM     12  N   UNL     1       2.134   6.375  20.745  0.00  0.00    +0.000 N 
ATOM     13  N   UNL     1       4.049   5.599  19.752  0.00  0.00    +0.000 N 
ATOM     14  H   UNL     1       2.455   5.930  21.594  0.00  0.00    +0.000 HD
ATOM     15  H   UNL     1       4.203   5.163  20.649  0.00  0.00    +0.000 HD
BRANCH  12  16
ATOM     16  C   UNL     1       0.815   6.998  20.793  0.00  0.00    +0.000 C 
BRANCH  16  17
ATOM     17  C   UNL     1       0.885   8.451  21.290  0.00  0.00    +0.000 C 
ATOM     18  C   UNL     1       0.942   9.487  20.163  0.00  0.00    +0.000 C 
ATOM     19  C   UNL     1       0.573  10.803  20.851  0.00  0.00    +0.000 C 
ATOM     20  C   UNL     1      -0.275  10.420  22.063  0.00  0.00    +0.000 C 
ATOM     21  C   UNL     1      -0.354   8.893  22.062  0.00  0.00    +0.000 C 
BRANCH  17  22
ATOM     22  O   UNL     1       2.038   8.598  22.137  0.00  0.00    +0.000 OA
ATOM     23  H   UNL     1       2.121   9.539  22.363  0.00  0.00    +0.000 HD
ENDBRANCH  17  22
ENDBRANCH  16  17
ENDBRANCH  12  16
ENDBRANCH   1  13
BRANCH   6  24
ATOM     24  C   UNL     1       6.909   4.982  13.131  0.00  0.00    +0.000 C 
BRANCH  24  25
ATOM     25  C   UNL     1       6.561   3.702  12.402  0.00  0.00    +0.000 A 
ATOM     26  C   UNL     1       5.219   3.352  12.187  0.00  0.00    +0.000 A 
ATOM     27  C   UNL     1       4.890   2.212  11.449  0.00  0.00    +0.000 A 
ATOM     28  C   UNL     1       5.896   1.411  10.916  0.00  0.00    +0.000 A 
ATOM     29  C   UNL     1       7.234   1.745  11.124  0.00  0.00    +0.000 A 
ATOM     30  C   UNL     1       7.564   2.885  11.862  0.00  0.00    +0.000 A 
ENDBRANCH  24  25
ENDBRANCH   6  24
TORSDOF 6
ENDMDL
MODEL 8
REMARK VINA RESULT:      -8.5      5.516      8.116
REMARK  Name = 
REMARK  6 active torsions:
REMARK  status: ('A' for Active; 'I' for Inactive)
REMARK    1  A    between atoms: N_3  and  C_4
REMARK    2  A    between atoms: C_4  and  C_5
REMARK    3  A    between atoms: C_5  and  O_6
REMARK    4  A    between atoms: N_11  and  C_12
REMARK    5  A    between atoms: C_17  and  C_18
REMARK    6  A    between atoms: C_18  and  C_19
REMARK                            x       y       z     vdW  Elec       q    Type
REMARK                         _______ _______ _______ _____ _____    ______ ____
ROOT
ATOM      1  C   UNL     1       2.584   7.207  18.846  0.00  0.00    +0.000 A 
ATOM      2  C   UNL     1       2.866   6.120  19.689  0.00  0.00    +0.000 A 
ATOM      3  C   UNL     1       3.921   5.228  19.429  0.00  0.00    +0.000 A 
ATOM      4  C   UNL     1       4.700   5.443  18.292  0.00  0.00    +0.000 A 
ATOM      5  N   UNL     1       5.798   4.776  17.821  0.00  0.00    +0.000 NA
ATOM      6  C   UNL     1       6.118   5.433  16.722  0.00  0.00    +0.000 A 
ATOM      7  O   UNL     1       5.290   6.493  16.427  0.00  0.00    +0.000 OA
ATOM      8  C   UNL     1       4.379   6.495  17.451  0.00  0.00    +0.000 A 
ATOM      9  C   UNL     1       3.328   7.389  17.663  0.00  0.00    +0.000 A 
ENDROOT
BRANCH   1  13
ATOM     10  O   UNL     1       2.045   9.815  17.596  0.00  0.00    +0.000 OA
ATOM     11  C   UNL     1       1.387   9.373  18.531  0.00  0.00    +0.000 C 
ATOM     12  N   UNL     1       0.368  10.103  19.102  0.00  0.00    +0.000 N 
ATOM     13  N   UNL     1       1.562   8.146  19.141  0.00  0.00    +0.000 N 
ATOM     14  H   UNL     1      -0.278   9.662  19.741  0.00  0.00    +0.000 HD
ATOM     15  H   UNL     1       0.804   7.827  19.725  0.00  0.00    +0.000 HD
BRANCH  12  16
ATOM     16  C   UNL     1       0.016  11.442  18.638  0.00  0.00    +0.000 C 
BRANCH  16  17
ATOM     17  C   UNL     1      -1.392  11.485  18.026  0.00  0.00    +0.000 C 
ATOM     18  C   UNL     1      -1.877  10.131  17.497  0.00  0.00    +0.000 C 
ATOM     19  C   UNL     1      -3.389  10.310  17.352  0.00  0.00    +0.000 C 
ATOM     20  C   UNL     1      -3.782  11.397  18.352  0.00  0.00    +0.000 C 
ATOM     21  C   UNL     1      -2.485  11.839  19.030  0.00  0.00    +0.000 C 
BRANCH  17  22
ATOM     22  O   UNL     1      -1.409  12.452  16.962  0.00  0.00    +0.000 OA
ATOM     23  H   UNL     1      -1.764  13.281  17.321  0.00  0.00    +0.000 HD
ENDBRANCH  17  22
ENDBRANCH  16  17
ENDBRANCH  12  16
ENDBRANCH   1  13
BRANCH   6  24
ATOM     24  C   UNL     1       7.311   5.226  15.850  0.00  0.00    +0.000 C 
BRANCH  24  25
ATOM     25  C   UNL     1       7.006   4.698  14.465  0.00  0.00    +0.000 A 
ATOM     26  C   UNL     1       5.920   3.833  14.260  0.00  0.00    +0.000 A 
ATOM     27  C   UNL     1       5.586   3.402  12.974  0.00  0.00    +0.000 A 
ATOM     28  C   UNL     1       6.330   3.830  11.879  0.00  0.00    +0.000 A 
ATOM     29  C   UNL     1       7.414   4.687  12.067  0.00  0.00    +0.000 A 
ATOM     30  C   UNL     1       7.750   5.120  13.353  0.00  0.00    +0.000 A 
ENDBRANCH  24  25
ENDBRANCH   6  24
TORSDOF 6
ENDMDL
MODEL 9
REMARK VINA RESULT:      -8.4      2.301     10.099
REMARK  Name = 
REMARK  6 active torsions:
REMARK  status: ('A' for Active; 'I' for Inactive)
REMARK    1  A    between atoms: N_3  and  C_4
REMARK    2  A    between atoms: C_4  and  C_5
REMARK    3  A    between atoms: C_5  and  O_6
REMARK    4  A    between atoms: N_11  and  C_12
REMARK    5  A    between atoms: C_17  and  C_18
REMARK    6  A    between atoms: C_18  and  C_19
REMARK                            x       y       z     vdW  Elec       q    Type
REMARK                         _______ _______ _______ _____ _____    ______ ____
ROOT
ATOM      1  C   UNL     1       7.876   8.151  17.884  0.00  0.00    +0.000 A 
ATOM      2  C   UNL     1       8.410   7.224  18.795  0.00  0.00    +0.000 A 
ATOM      3  C   UNL     1       7.793   5.987  19.047  0.00  0.00    +0.000 A 
ATOM      4  C   UNL     1       6.613   5.687  18.366  0.00  0.00    +0.000 A 
ATOM      5  N   UNL     1       5.835   4.561  18.377  0.00  0.00    +0.000 NA
ATOM      6  C   UNL     1       4.862   4.844  17.530  0.00  0.00    +0.000 A 
ATOM      7  O   UNL     1       4.942   6.095  16.962  0.00  0.00    +0.000 OA
ATOM      8  C   UNL     1       6.081   6.631  17.504  0.00  0.00    +0.000 A 
ATOM      9  C   UNL     1       6.651   7.879  17.242  0.00  0.00    +0.000 A 
ENDROOT
BRANCH   1  13
ATOM     10  O   UNL     1       9.129  10.091  19.706  0.00  0.00    +0.000 OA
ATOM     11  C   UNL     1       9.072  10.254  18.493  0.00  0.00    +0.000 C 
ATOM     12  N   UNL     1       9.552  11.399  17.897  0.00  0.00    +0.000 N 
ATOM     13  N   UNL     1       8.531   9.372  17.578  0.00  0.00    +0.000 N 
ATOM     14  H   UNL     1       9.666  11.443  16.894  0.00  0.00    +0.000 HD
ATOM     15  H   UNL     1       8.770   9.531  16.611  0.00  0.00    +0.000 HD
BRANCH  12  16
ATOM     16  C   UNL     1      10.147  12.486  18.669  0.00  0.00    +0.000 C 
BRANCH  16  17
ATOM     17  C   UNL     1       9.123  13.583  18.998  0.00  0.00    +0.000 C 
ATOM     18  C   UNL     1       9.721  14.993  19.044  0.00  0.00    +0.000 C 
ATOM     19  C   UNL     1       8.504  15.915  18.947  0.00  0.00    +0.000 C 
ATOM     20  C   UNL     1       7.425  15.113  18.222  0.00  0.00    +0.000 C 
ATOM     21  C   UNL     1       8.033  13.739  17.940  0.00  0.00    +0.000 C 
BRANCH  17  22
ATOM     22  O   UNL     1       8.504  13.281  20.260  0.00  0.00    +0.000 OA
ATOM     23  H   UNL     1       8.311  14.123  20.704  0.00  0.00    +0.000 HD
ENDBRANCH  17  22
ENDBRANCH  16  17
ENDBRANCH  12  16
ENDBRANCH   1  13
BRANCH   6  24
ATOM     24  C   UNL     1       3.779   3.936  17.051  0.00  0.00    +0.000 C 
BRANCH  24  25
ATOM     25  C   UNL     1       2.720   3.607  18.080  0.00  0.00    +0.000 A 
ATOM     26  C   UNL     1       2.350   4.556  19.045  0.00  0.00    +0.000 A 
ATOM     27  C   UNL     1       1.320   4.287  19.949  0.00  0.00    +0.000 A 
ATOM     28  C   UNL     1       0.647   3.070  19.901  0.00  0.00    +0.000 A 
ATOM     29  C   UNL     1       1.006   2.115  18.949  0.00  0.00    +0.000 A 
ATOM     30  C   UNL     1       2.036   2.383  18.043  0.00  0.00    +0.000 A 
ENDBRANCH  24  25
ENDBRANCH   6  24
TORSDOF 6
ENDMDL
