MODEL 1
REMARK VINA RESULT:      -8.0      0.000      0.000
REMARK  Name = 
REMARK  4 active torsions:
REMARK  status: ('A' for Active; 'I' for Inactive)
REMARK    1  A    between atoms: C_1  and  C_2
REMARK    2  A    between atoms: C_7  and  C_8
REMARK    3  A    between atoms: C_19  and  C_20
REMARK    4  A    between atoms: C_23  and  C_24
REMARK                            x       y       z     vdW  Elec       q    Type
REMARK                         _______ _______ _______ _____ _____    ______ ____
ROOT
ATOM      1  C   UNL     1       3.597   4.381  17.497  0.00  0.00    +0.000 C 
ATOM      2  O   UNL     1       3.518   3.189  17.147  0.00  0.00    +0.000 OA
ATOM      3  N   UNL     1       2.391   5.136  17.560  0.00  0.00    +0.000 N 
ATOM      4  C   UNL     1       1.225   4.211  17.751  0.00  0.00    +0.000 C 
ATOM      5  C   UNL     1       1.283   3.784  19.220  0.00  0.00    +0.000 A 
ATOM      6  C   UNL     1       1.241   2.426  19.527  0.00  0.00    +0.000 A 
ATOM      7  C   UNL     1       2.060   1.962  20.548  0.00  0.00    +0.000 A 
ATOM      8  C   UNL     1       2.826   2.857  21.301  0.00  0.00    +0.000 A 
ATOM      9  C   UNL     1       2.670   4.233  21.143  0.00  0.00    +0.000 A 
ATOM     10  C   UNL     1       1.859   4.712  20.121  0.00  0.00    +0.000 A 
ATOM     11  C   UNL     1       1.806   6.182  19.792  0.00  0.00    +0.000 C 
ATOM     12  C   UNL     1       2.047   6.411  18.284  0.00  0.00    +0.000 C 
ENDROOT
BRANCH   1  19
ATOM     13  C   UNL     1       8.927   9.374  17.723  0.00  0.00    +0.000 C 
ATOM     14  C   UNL     1       8.137   8.130  17.940  0.00  0.00    +0.000 A 
ATOM     15  C   UNL     1       8.197   7.217  19.016  0.00  0.00    +0.000 A 
ATOM     16  C   UNL     1       7.254   6.243  18.742  0.00  0.00    +0.000 A 
ATOM     17  N   UNL     1       6.831   5.146  19.433  0.00  0.00    +0.000 NA
ATOM     18  C   UNL     1       5.809   4.521  18.955  0.00  0.00    +0.000 A 
ATOM     19  C   UNL     1       5.017   4.846  17.719  0.00  0.00    +0.000 A 
ATOM     20  C   UNL     1       5.527   5.925  17.036  0.00  0.00    +0.000 A 
ATOM     21  C   UNL     1       4.966   6.568  15.790  0.00  0.00    +0.000 C 
ATOM     22  N   UNL     1       6.647   6.625  17.546  0.00  0.00    +0.000 N 
ATOM     23  N   UNL     1       7.229   7.753  17.034  0.00  0.00    +0.000 NA
ENDBRANCH   1  19
BRANCH  12  24
ATOM     24  C   UNL     1       2.443   7.866  17.968  0.00  0.00    +0.000 C 
ATOM     25  N   UNL     1       1.400   8.731  17.796  0.00  0.00    +0.000 N 
ATOM     26  O   UNL     1       3.579   8.310  18.121  0.00  0.00    +0.000 OA
ATOM     27  H   UNL     1       0.450   8.454  18.002  0.00  0.00    +0.000 HD
ATOM     28  H   UNL     1       1.632   9.713  17.916  0.00  0.00    +0.000 HD
ENDBRANCH  12  24
TORSDOF 2
ENDMDL
MODEL 2
REMARK VINA RESULT:      -7.8      2.253      5.235
REMARK  Name = 
REMARK  4 active torsions:
REMARK  status: ('A' for Active; 'I' for Inactive)
REMARK    1  A    between atoms: C_1  and  C_2
REMARK    2  A    between atoms: C_7  and  C_8
REMARK    3  A    between atoms: C_19  and  C_20
REMARK    4  A    between atoms: C_23  and  C_24
REMARK                            x       y       z     vdW  Elec       q    Type
REMARK                         _______ _______ _______ _____ _____    ______ ____
ROOT
ATOM      1  C   UNL     1       3.624   5.925  19.397  0.00  0.00    +0.000 C 
ATOM      2  O   UNL     1       3.362   5.492  20.533  0.00  0.00    +0.000 OA
ATOM      3  N   UNL     1       4.782   5.418  18.743  0.00  0.00    +0.000 N 
ATOM      4  C   UNL     1       5.125   4.066  19.297  0.00  0.00    +0.000 C 
ATOM      5  C   UNL     1       4.101   3.107  18.686  0.00  0.00    +0.000 A 
ATOM      6  C   UNL     1       3.383   2.262  19.531  0.00  0.00    +0.000 A 
ATOM      7  C   UNL     1       2.038   2.054  19.256  0.00  0.00    +0.000 A 
ATOM      8  C   UNL     1       1.458   2.604  18.109  0.00  0.00    +0.000 A 
ATOM      9  C   UNL     1       2.245   3.238  17.149  0.00  0.00    +0.000 A 
ATOM     10  C   UNL     1       3.591   3.460  17.413  0.00  0.00    +0.000 A 
ATOM     11  C   UNL     1       4.437   4.304  16.494  0.00  0.00    +0.000 C 
ATOM     12  C   UNL     1       5.183   5.397  17.291  0.00  0.00    +0.000 C 
ENDROOT
BRANCH   1  19
ATOM     13  C   UNL     1      -0.404  11.957  20.286  0.00  0.00    +0.000 C 
ATOM     14  C   UNL     1       0.368  10.844  19.666  0.00  0.00    +0.000 A 
ATOM     15  C   UNL     1       1.045  10.817  18.427  0.00  0.00    +0.000 A 
ATOM     16  C   UNL     1       1.608   9.557  18.329  0.00  0.00    +0.000 A 
ATOM     17  N   UNL     1       2.407   8.972  17.390  0.00  0.00    +0.000 NA
ATOM     18  C   UNL     1       2.888   7.812  17.683  0.00  0.00    +0.000 A 
ATOM     19  C   UNL     1       2.677   7.010  18.938  0.00  0.00    +0.000 A 
ATOM     20  C   UNL     1       1.819   7.625  19.818  0.00  0.00    +0.000 A 
ATOM     21  C   UNL     1       1.419   7.145  21.193  0.00  0.00    +0.000 C 
ATOM     22  N   UNL     1       1.282   8.900  19.515  0.00  0.00    +0.000 N 
ATOM     23  N   UNL     1       0.479   9.675  20.306  0.00  0.00    +0.000 NA
ENDBRANCH   1  19
BRANCH  12  24
ATOM     24  C   UNL     1       5.691   6.536  16.388  0.00  0.00    +0.000 C 
ATOM     25  N   UNL     1       6.862   7.117  16.783  0.00  0.00    +0.000 N 
ATOM     26  O   UNL     1       5.260   6.750  15.256  0.00  0.00    +0.000 OA
ATOM     27  H   UNL     1       7.415   6.724  17.534  0.00  0.00    +0.000 HD
ATOM     28  H   UNL     1       7.363   7.616  16.052  0.00  0.00    +0.000 HD
ENDBRANCH  12  24
TORSDOF 2
ENDMDL
MODEL 3
REMARK VINA RESULT:      -7.6      1.315      1.382
REMARK  Name = 
REMARK  4 active torsions:
REMARK  status: ('A' for Active; 'I' for Inactive)
REMARK    1  A    between atoms: C_1  and  C_2
REMARK    2  A    between atoms: C_7  and  C_8
REMARK    3  A    between atoms: C_19  and  C_20
REMARK    4  A    between atoms: C_23  and  C_24
REMARK                            x       y       z     vdW  Elec       q    Type
REMARK                         _______ _______ _______ _____ _____    ______ ____
ROOT
ATOM      1  C   UNL     1       4.298   4.440  17.025  0.00  0.00    +0.000 C 
ATOM      2  O   UNL     1       4.367   3.465  16.256  0.00  0.00    +0.000 OA
ATOM      3  N   UNL     1       3.008   4.835  17.483  0.00  0.00    +0.000 N 
ATOM      4  C   UNL     1       2.068   3.668  17.413  0.00  0.00    +0.000 C 
ATOM      5  C   UNL     1       2.446   2.772  18.595  0.00  0.00    +0.000 A 
ATOM      6  C   UNL     1       2.690   1.421  18.364  0.00  0.00    +0.000 A 
ATOM      7  C   UNL     1       3.737   0.820  19.050  0.00  0.00    +0.000 A 
ATOM      8  C   UNL     1       4.454   1.537  20.013  0.00  0.00    +0.000 A 
ATOM      9  C   UNL     1       4.038   2.807  20.408  0.00  0.00    +0.000 A 
ATOM     10  C   UNL     1       2.997   3.424  19.725  0.00  0.00    +0.000 A 
ATOM     11  C   UNL     1       2.637   4.864  19.989  0.00  0.00    +0.000 C 
ATOM     12  C   UNL     1       2.576   5.660  18.666  0.00  0.00    +0.000 C 
ENDROOT
BRANCH   1  19
ATOM     13  C   UNL     1       8.728  10.170  17.997  0.00  0.00    +0.000 C 
ATOM     14  C   UNL     1       8.173   8.788  18.002  0.00  0.00    +0.000 A 
ATOM     15  C   UNL     1       8.461   7.719  18.878  0.00  0.00    +0.000 A 
ATOM     16  C   UNL     1       7.675   6.660  18.460  0.00  0.00    +0.000 A 
ATOM     17  N   UNL     1       7.491   5.398  18.943  0.00  0.00    +0.000 NA
ATOM     18  C   UNL     1       6.556   4.701  18.394  0.00  0.00    +0.000 A 
ATOM     19  C   UNL     1       5.633   5.101  17.276  0.00  0.00    +0.000 A 
ATOM     20  C   UNL     1       5.906   6.359  16.794  0.00  0.00    +0.000 A 
ATOM     21  C   UNL     1       5.158   7.110  15.719  0.00  0.00    +0.000 C 
ATOM     22  N   UNL     1       6.929   7.141  17.385  0.00  0.00    +0.000 N 
ATOM     23  N   UNL     1       7.276   8.429  17.077  0.00  0.00    +0.000 NA
ENDBRANCH   1  19
BRANCH  12  24
ATOM     24  C   UNL     1       2.657   7.182  18.895  0.00  0.00    +0.000 C 
ATOM     25  N   UNL     1       2.317   7.603  20.149  0.00  0.00    +0.000 N 
ATOM     26  O   UNL     1       3.233   7.954  18.131  0.00  0.00    +0.000 OA
ATOM     27  H   UNL     1       2.163   6.943  20.899  0.00  0.00    +0.000 HD
ATOM     28  H   UNL     1       2.671   8.520  20.404  0.00  0.00    +0.000 HD
ENDBRANCH  12  24
TORSDOF 2
ENDMDL
MODEL 4
REMARK VINA RESULT:      -7.3      2.388      5.787
REMARK  Name = 
REMARK  4 active torsions:
REMARK  status: ('A' for Active; 'I' for Inactive)
REMARK    1  A    between atoms: C_1  and  C_2
REMARK    2  A    between atoms: C_7  and  C_8
REMARK    3  A    between atoms: C_19  and  C_20
REMARK    4  A    between atoms: C_23  and  C_24
REMARK                            x       y       z     vdW  Elec       q    Type
REMARK                         _______ _______ _______ _____ _____    ______ ____
ROOT
ATOM      1  C   UNL     1       3.177   6.140  17.850  0.00  0.00    +0.000 C 
ATOM      2  O   UNL     1       3.514   6.843  16.881  0.00  0.00    +0.000 OA
ATOM      3  N   UNL     1       3.229   4.726  17.695  0.00  0.00    +0.000 N 
ATOM      4  C   UNL     1       4.212   4.372  16.617  0.00  0.00    +0.000 C 
ATOM      5  C   UNL     1       5.593   4.566  17.248  0.00  0.00    +0.000 A 
ATOM      6  C   UNL     1       6.532   5.349  16.582  0.00  0.00    +0.000 A 
ATOM      7  C   UNL     1       7.331   6.196  17.339  0.00  0.00    +0.000 A 
ATOM      8  C   UNL     1       7.251   6.181  18.735  0.00  0.00    +0.000 A 
ATOM      9  C   UNL     1       6.486   5.220  19.392  0.00  0.00    +0.000 A 
ATOM     10  C   UNL     1       5.676   4.370  18.648  0.00  0.00    +0.000 A 
ATOM     11  C   UNL     1       4.693   3.445  19.318  0.00  0.00    +0.000 C 
ATOM     12  C   UNL     1       3.285   3.610  18.705  0.00  0.00    +0.000 C 
ENDROOT
BRANCH   1  19
ATOM     13  C   UNL     1      -1.010  11.188  21.073  0.00  0.00    +0.000 C 
ATOM     14  C   UNL     1      -0.120  10.015  20.847  0.00  0.00    +0.000 A 
ATOM     15  C   UNL     1       0.011   8.840  21.619  0.00  0.00    +0.000 A 
ATOM     16  C   UNL     1       0.960   8.066  20.975  0.00  0.00    +0.000 A 
ATOM     17  N   UNL     1       1.460   6.821  21.223  0.00  0.00    +0.000 NA
ATOM     18  C   UNL     1       2.239   6.323  20.325  0.00  0.00    +0.000 A 
ATOM     19  C   UNL     1       2.677   6.944  19.028  0.00  0.00    +0.000 A 
ATOM     20  C   UNL     1       2.188   8.218  18.863  0.00  0.00    +0.000 A 
ATOM     21  C   UNL     1       2.372   9.123  17.668  0.00  0.00    +0.000 C 
ATOM     22  N   UNL     1       1.329   8.782  19.838  0.00  0.00    +0.000 N 
ATOM     23  N   UNL     1       0.702   9.998  19.793  0.00  0.00    +0.000 NA
ENDBRANCH   1  19
BRANCH  12  24
ATOM     24  C   UNL     1       2.179   3.043  19.616  0.00  0.00    +0.000 C 
ATOM     25  N   UNL     1       2.571   2.732  20.886  0.00  0.00    +0.000 N 
ATOM     26  O   UNL     1       0.980   3.108  19.350  0.00  0.00    +0.000 OA
ATOM     27  H   UNL     1       3.486   2.991  21.231  0.00  0.00    +0.000 HD
ATOM     28  H   UNL     1       1.819   2.678  21.567  0.00  0.00    +0.000 HD
ENDBRANCH  12  24
TORSDOF 2
ENDMDL
MODEL 5
REMARK VINA RESULT:      -7.3      2.586      5.634
REMARK  Name = 
REMARK  4 active torsions:
REMARK  status: ('A' for Active; 'I' for Inactive)
REMARK    1  A    between atoms: C_1  and  C_2
REMARK    2  A    between atoms: C_7  and  C_8
REMARK    3  A    between atoms: C_19  and  C_20
REMARK    4  A    between atoms: C_23  and  C_24
REMARK                            x       y       z     vdW  Elec       q    Type
REMARK                         _______ _______ _______ _____ _____    ______ ____
ROOT
ATOM      1  C   UNL     1       2.373   5.553  18.351  0.00  0.00    +0.000 C 
ATOM      2  O   UNL     1       2.351   5.984  17.184  0.00  0.00    +0.000 OA
ATOM      3  N   UNL     1       2.510   4.148  18.537  0.00  0.00    +0.000 N 
ATOM      4  C   UNL     1       3.170   3.540  17.334  0.00  0.00    +0.000 C 
ATOM      5  C   UNL     1       4.650   3.914  17.453  0.00  0.00    +0.000 A 
ATOM      6  C   UNL     1       5.282   4.511  16.364  0.00  0.00    +0.000 A 
ATOM      7  C   UNL     1       6.182   5.539  16.615  0.00  0.00    +0.000 A 
ATOM      8  C   UNL     1       6.507   5.887  17.929  0.00  0.00    +0.000 A 
ATOM      9  C   UNL     1       6.056   5.118  19.001  0.00  0.00    +0.000 A 
ATOM     10  C   UNL     1       5.149   4.091  18.765  0.00  0.00    +0.000 A 
ATOM     11  C   UNL     1       4.490   3.357  19.905  0.00  0.00    +0.000 C 
ATOM     12  C   UNL     1       2.957   3.335  19.723  0.00  0.00    +0.000 C 
ENDROOT
BRANCH   1  19
ATOM     13  C   UNL     1      -0.048  12.025  20.727  0.00  0.00    +0.000 C 
ATOM     14  C   UNL     1       0.445  10.620  20.691  0.00  0.00    +0.000 A 
ATOM     15  C   UNL     1       0.234   9.581  21.623  0.00  0.00    +0.000 A 
ATOM     16  C   UNL     1       0.895   8.476  21.119  0.00  0.00    +0.000 A 
ATOM     17  N   UNL     1       1.004   7.187  21.552  0.00  0.00    +0.000 NA
ATOM     18  C   UNL     1       1.581   6.357  20.752  0.00  0.00    +0.000 A 
ATOM     19  C   UNL     1       2.160   6.628  19.391  0.00  0.00    +0.000 A 
ATOM     20  C   UNL     1       2.071   7.953  19.037  0.00  0.00    +0.000 A 
ATOM     21  C   UNL     1       2.494   8.582  17.730  0.00  0.00    +0.000 C 
ATOM     22  N   UNL     1       1.440   8.880  19.901  0.00  0.00    +0.000 N 
ATOM     23  N   UNL     1       1.204  10.209  19.670  0.00  0.00    +0.000 NA
ENDBRANCH   1  19
BRANCH  12  24
ATOM     24  C   UNL     1       2.216   3.008  21.035  0.00  0.00    +0.000 C 
ATOM     25  N   UNL     1       0.856   2.942  20.937  0.00  0.00    +0.000 N 
ATOM     26  O   UNL     1       2.774   2.567  22.038  0.00  0.00    +0.000 OA
ATOM     27  H   UNL     1       0.393   2.969  20.038  0.00  0.00    +0.000 HD
ATOM     28  H   UNL     1       0.396   2.421  21.678  0.00  0.00    +0.000 HD
ENDBRANCH  12  24
TORSDOF 2
ENDMDL
MODEL 6
REMARK VINA RESULT:      -7.3      9.666     12.007
REMARK  Name = 
REMARK  4 active torsions:
REMARK  status: ('A' for Active; 'I' for Inactive)
REMARK    1  A    between atoms: C_1  and  C_2
REMARK    2  A    between atoms: C_7  and  C_8
REMARK    3  A    between atoms: C_19  and  C_20
REMARK    4  A    between atoms: C_23  and  C_24
REMARK                            x       y       z     vdW  Elec       q    Type
REMARK                         _______ _______ _______ _____ _____    ______ ____
ROOT
ATOM      1  C   UNL     1       9.191  14.817  20.091  0.00  0.00    +0.000 C 
ATOM      2  O   UNL     1       9.484  14.018  20.998  0.00  0.00    +0.000 OA
ATOM      3  N   UNL     1      10.158  15.798  19.732  0.00  0.00    +0.000 N 
ATOM      4  C   UNL     1      11.530  15.318  20.108  0.00  0.00    +0.000 C 
ATOM      5  C   UNL     1      11.893  14.268  19.054  0.00  0.00    +0.000 A 
ATOM      6  C   UNL     1      12.333  13.016  19.478  0.00  0.00    +0.000 A 
ATOM      7  C   UNL     1      11.892  11.899  18.780  0.00  0.00    +0.000 A 
ATOM      8  C   UNL     1      11.107  12.048  17.632  0.00  0.00    +0.000 A 
ATOM      9  C   UNL     1      10.883  13.309  17.084  0.00  0.00    +0.000 A 
ATOM     10  C   UNL     1      11.313  14.436  17.774  0.00  0.00    +0.000 A 
ATOM     11  C   UNL     1      10.931  15.822  17.319  0.00  0.00    +0.000 C 
ATOM     12  C   UNL     1      10.325  16.630  18.488  0.00  0.00    +0.000 C 
ENDROOT
BRANCH   1  19
ATOM     13  C   UNL     1       2.342  17.014  18.802  0.00  0.00    +0.000 C 
ATOM     14  C   UNL     1       3.628  16.265  18.740  0.00  0.00    +0.000 A 
ATOM     15  C   UNL     1       4.182  15.541  17.662  0.00  0.00    +0.000 A 
ATOM     16  C   UNL     1       5.391  15.046  18.116  0.00  0.00    +0.000 A 
ATOM     17  N   UNL     1       6.379  14.322  17.515  0.00  0.00    +0.000 NA
ATOM     18  C   UNL     1       7.462  14.151  18.192  0.00  0.00    +0.000 A 
ATOM     19  C   UNL     1       7.781  14.646  19.575  0.00  0.00    +0.000 A 
ATOM     20  C   UNL     1       6.728  15.316  20.150  0.00  0.00    +0.000 A 
ATOM     21  C   UNL     1       6.700  15.995  21.498  0.00  0.00    +0.000 C 
ATOM     22  N   UNL     1       5.529  15.516  19.422  0.00  0.00    +0.000 N 
ATOM     23  N   UNL     1       4.423  16.219  19.815  0.00  0.00    +0.000 NA
ENDBRANCH   1  19
BRANCH  12  24
ATOM     24  C   UNL     1       9.525  17.854  18.000  0.00  0.00    +0.000 C 
ATOM     25  N   UNL     1      10.151  18.626  17.065  0.00  0.00    +0.000 N 
ATOM     26  O   UNL     1       8.321  18.003  18.203  0.00  0.00    +0.000 OA
ATOM     27  H   UNL     1      11.014  18.327  16.631  0.00  0.00    +0.000 HD
ATOM     28  H   UNL     1       9.535  19.215  16.511  0.00  0.00    +0.000 HD
ENDBRANCH  12  24
TORSDOF 2
ENDMDL
MODEL 7
REMARK VINA RESULT:      -7.0      4.927      8.009
REMARK  Name = 
REMARK  4 active torsions:
REMARK  status: ('A' for Active; 'I' for Inactive)
REMARK    1  A    between atoms: C_1  and  C_2
REMARK    2  A    between atoms: C_7  and  C_8
REMARK    3  A    between atoms: C_19  and  C_20
REMARK    4  A    between atoms: C_23  and  C_24
REMARK                            x       y       z     vdW  Elec       q    Type
REMARK                         _______ _______ _______ _____ _____    ______ ____
ROOT
ATOM      1  C   UNL     1       0.078  10.859  20.599  0.00  0.00    +0.000 C 
ATOM      2  O   UNL     1       0.275  10.974  21.822  0.00  0.00    +0.000 OA
ATOM      3  N   UNL     1      -1.122  11.410  20.065  0.00  0.00    +0.000 N 
ATOM      4  C   UNL     1      -1.621  12.504  20.964  0.00  0.00    +0.000 C 
ATOM      5  C   UNL     1      -0.702  13.698  20.695  0.00  0.00    +0.000 A 
ATOM      6  C   UNL     1      -0.095  14.335  21.775  0.00  0.00    +0.000 A 
ATOM      7  C   UNL     1       1.222  14.752  21.630  0.00  0.00    +0.000 A 
ATOM      8  C   UNL     1       1.875  14.616  20.401  0.00  0.00    +0.000 A 
ATOM      9  C   UNL     1       1.176  14.205  19.267  0.00  0.00    +0.000 A 
ATOM     10  C   UNL     1      -0.141  13.779  19.398  0.00  0.00    +0.000 A 
ATOM     11  C   UNL     1      -0.875  13.151  18.241  0.00  0.00    +0.000 C 
ATOM     12  C   UNL     1      -1.504  11.804  18.663  0.00  0.00    +0.000 C 
ENDROOT
BRANCH   1  19
ATOM     13  C   UNL     1       3.128   4.689  18.146  0.00  0.00    +0.000 C 
ATOM     14  C   UNL     1       2.784   6.126  18.332  0.00  0.00    +0.000 A 
ATOM     15  C   UNL     1       2.875   7.187  17.405  0.00  0.00    +0.000 A 
ATOM     16  C   UNL     1       2.426   8.314  18.070  0.00  0.00    +0.000 A 
ATOM     17  N   UNL     1       2.243   9.607  17.678  0.00  0.00    +0.000 NA
ATOM     18  C   UNL     1       1.656  10.388  18.519  0.00  0.00    +0.000 A 
ATOM     19  C   UNL     1       1.145  10.056  19.894  0.00  0.00    +0.000 A 
ATOM     20  C   UNL     1       1.411   8.756  20.254  0.00  0.00    +0.000 A 
ATOM     21  C   UNL     1       1.003   8.057  21.529  0.00  0.00    +0.000 C 
ATOM     22  N   UNL     1       2.054   7.883  19.343  0.00  0.00    +0.000 N 
ATOM     23  N   UNL     1       2.324   6.552  19.514  0.00  0.00    +0.000 NA
ENDBRANCH   1  19
BRANCH  12  24
ATOM     24  C   UNL     1      -1.870  10.925  17.452  0.00  0.00    +0.000 C 
ATOM     25  N   UNL     1      -2.266  11.603  16.335  0.00  0.00    +0.000 N 
ATOM     26  O   UNL     1      -1.582   9.732  17.366  0.00  0.00    +0.000 OA
ATOM     27  H   UNL     1      -2.186  12.610  16.277  0.00  0.00    +0.000 HD
ATOM     28  H   UNL     1      -2.191  11.082  15.466  0.00  0.00    +0.000 HD
ENDBRANCH  12  24
TORSDOF 2
ENDMDL
MODEL 8
REMARK VINA RESULT:      -6.9      8.565     10.467
REMARK  Name = 
REMARK  4 active torsions:
REMARK  status: ('A' for Active; 'I' for Inactive)
REMARK    1  A    between atoms: C_1  and  C_2
REMARK    2  A    between atoms: C_7  and  C_8
REMARK    3  A    between atoms: C_19  and  C_20
REMARK    4  A    between atoms: C_23  and  C_24
REMARK                            x       y       z     vdW  Elec       q    Type
REMARK                         _______ _______ _______ _____ _____    ______ ____
ROOT
ATOM      1  C   UNL     1       8.714  14.477  20.395  0.00  0.00    +0.000 C 
ATOM      2  O   UNL     1       9.864  14.531  20.867  0.00  0.00    +0.000 OA
ATOM      3  N   UNL     1       8.514  14.979  19.077  0.00  0.00    +0.000 N 
ATOM      4  C   UNL     1       9.808  14.939  18.318  0.00  0.00    +0.000 C 
ATOM      5  C   UNL     1      10.018  13.467  17.954  0.00  0.00    +0.000 A 
ATOM      6  C   UNL     1      11.235  12.865  18.264  0.00  0.00    +0.000 A 
ATOM      7  C   UNL     1      11.215  11.559  18.736  0.00  0.00    +0.000 A 
ATOM      8  C   UNL     1      10.012  10.850  18.802  0.00  0.00    +0.000 A 
ATOM      9  C   UNL     1       8.844  11.381  18.257  0.00  0.00    +0.000 A 
ATOM     10  C   UNL     1       8.847  12.689  17.787  0.00  0.00    +0.000 A 
ATOM     11  C   UNL     1       7.569  13.368  17.365  0.00  0.00    +0.000 C 
ATOM     12  C   UNL     1       7.422  14.735  18.069  0.00  0.00    +0.000 C 
ENDROOT
BRANCH   1  19
ATOM     13  C   UNL     1       6.584  11.134  26.533  0.00  0.00    +0.000 C 
ATOM     14  C   UNL     1       6.592  11.975  25.304  0.00  0.00    +0.000 A 
ATOM     15  C   UNL     1       5.816  13.117  25.006  0.00  0.00    +0.000 A 
ATOM     16  C   UNL     1       6.213  13.529  23.746  0.00  0.00    +0.000 A 
ATOM     17  N   UNL     1       5.856  14.588  22.965  0.00  0.00    +0.000 NA
ATOM     18  C   UNL     1       6.540  14.767  21.887  0.00  0.00    +0.000 A 
ATOM     19  C   UNL     1       7.690  13.947  21.370  0.00  0.00    +0.000 A 
ATOM     20  C   UNL     1       7.963  12.862  22.169  0.00  0.00    +0.000 A 
ATOM     21  C   UNL     1       9.074  11.854  21.996  0.00  0.00    +0.000 C 
ATOM     22  N   UNL     1       7.224  12.650  23.359  0.00  0.00    +0.000 N 
ATOM     23  N   UNL     1       7.415  11.670  24.295  0.00  0.00    +0.000 NA
ENDBRANCH   1  19
BRANCH  12  24
ATOM     24  C   UNL     1       5.973  15.259  18.033  0.00  0.00    +0.000 C 
ATOM     25  N   UNL     1       5.028  14.341  17.672  0.00  0.00    +0.000 N 
ATOM     26  O   UNL     1       5.622  16.322  18.540  0.00  0.00    +0.000 OA
ATOM     27  H   UNL     1       5.260  13.361  17.577  0.00  0.00    +0.000 HD
ATOM     28  H   UNL     1       4.079  14.567  17.956  0.00  0.00    +0.000 HD
ENDBRANCH  12  24
TORSDOF 2
ENDMDL
MODEL 9
REMARK VINA RESULT:      -6.8      8.705     10.995
REMARK  Name = 
REMARK  4 active torsions:
REMARK  status: ('A' for Active; 'I' for Inactive)
REMARK    1  A    between atoms: C_1  and  C_2
REMARK    2  A    between atoms: C_7  and  C_8
REMARK    3  A    between atoms: C_19  and  C_20
REMARK    4  A    between atoms: C_23  and  C_24
REMARK                            x       y       z     vdW  Elec       q    Type
REMARK                         _______ _______ _______ _____ _____    ______ ____
ROOT
ATOM      1  C   UNL     1       9.922  14.596  20.552  0.00  0.00    +0.000 C 
ATOM      2  O   UNL     1      11.148  14.804  20.591  0.00  0.00    +0.000 OA
ATOM      3  N   UNL     1       9.171  15.247  19.533  0.00  0.00    +0.000 N 
ATOM      4  C   UNL     1      10.069  15.584  18.379  0.00  0.00    +0.000 C 
ATOM      5  C   UNL     1      10.308  14.259  17.651  0.00  0.00    +0.000 A 
ATOM      6  C   UNL     1      11.617  13.871  17.375  0.00  0.00    +0.000 A 
ATOM      7  C   UNL     1      11.946  12.530  17.525  0.00  0.00    +0.000 A 
ATOM      8  C   UNL     1      10.960  11.594  17.852  0.00  0.00    +0.000 A 
ATOM      9  C   UNL     1       9.615  11.960  17.882  0.00  0.00    +0.000 A 
ATOM     10  C   UNL     1       9.272  13.299  17.740  0.00  0.00    +0.000 A 
ATOM     11  C   UNL     1       7.855  13.767  17.952  0.00  0.00    +0.000 C 
ATOM     12  C   UNL     1       7.816  14.950  18.945  0.00  0.00    +0.000 C 
ENDROOT
BRANCH   1  19
ATOM     13  C   UNL     1       5.523  12.956  26.151  0.00  0.00    +0.000 C 
ATOM     14  C   UNL     1       6.492  12.841  25.027  0.00  0.00    +0.000 A 
ATOM     15  C   UNL     1       6.765  11.728  24.202  0.00  0.00    +0.000 A 
ATOM     16  C   UNL     1       7.737  12.144  23.309  0.00  0.00    +0.000 A 
ATOM     17  N   UNL     1       8.352  11.528  22.259  0.00  0.00    +0.000 NA
ATOM     18  C   UNL     1       9.117  12.263  21.527  0.00  0.00    +0.000 A 
ATOM     19  C   UNL     1       9.426  13.727  21.684  0.00  0.00    +0.000 A 
ATOM     20  C   UNL     1       8.824  14.275  22.791  0.00  0.00    +0.000 A 
ATOM     21  C   UNL     1       8.863  15.719  23.234  0.00  0.00    +0.000 C 
ATOM     22  N   UNL     1       7.979  13.484  23.607  0.00  0.00    +0.000 N 
ATOM     23  N   UNL     1       7.251  13.890  24.693  0.00  0.00    +0.000 NA
ENDBRANCH   1  19
BRANCH  12  24
ATOM     24  C   UNL     1       6.410  15.174  19.534  0.00  0.00    +0.000 C 
ATOM     25  N   UNL     1       5.390  15.181  18.626  0.00  0.00    +0.000 N 
ATOM     26  O   UNL     1       6.154  15.083  20.733  0.00  0.00    +0.000 OA
ATOM     27  H   UNL     1       5.545  14.917  17.662  0.00  0.00    +0.000 HD
ATOM     28  H   UNL     1       4.469  14.998  19.014  0.00  0.00    +0.000 HD
ENDBRANCH  12  24
TORSDOF 2
ENDMDL
