MODEL 1
REMARK VINA RESULT:      -9.0      0.000      0.000
REMARK  Name = 
REMARK  5 active torsions:
REMARK  status: ('A' for Active; 'I' for Inactive)
REMARK    1  A    between atoms: C_1  and  C_2
REMARK    2  A    between atoms: C_4  and  C_5
REMARK    3  A    between atoms: C_8  and  N_9
REMARK    4  A    between atoms: C_10  and  C_12
REMARK    5  A    between atoms: C_22  and  C_23
REMARK                            x       y       z     vdW  Elec       q    Type
REMARK                         _______ _______ _______ _____ _____    ______ ____
ROOT
ATOM      1  N   UNL     1       8.304   8.804  18.876  0.00  0.00    +0.000 N 
ATOM      2  C   UNL     1       7.950   7.869  17.916  0.00  0.00    +0.000 C 
ATOM      3  O   UNL     1       8.186   8.010  16.720  0.00  0.00    +0.000 OA
ATOM      4  H   UNL     1       8.263   8.527  19.847  0.00  0.00    +0.000 HD
ENDROOT
BRANCH   2   5
ATOM      5  C   UNL     1       7.288   6.658  18.389  0.00  0.00    +0.000 A 
ATOM      6  C   UNL     1       7.629   5.725  19.382  0.00  0.00    +0.000 A 
ATOM      7  N   UNL     1       6.736   4.746  19.514  0.00  0.00    +0.000 NA
ATOM      8  N   UNL     1       5.784   5.003  18.565  0.00  0.00    +0.000 N 
ATOM      9  C   UNL     1       4.677   4.102  18.378  0.00  0.00    +0.000 A 
ATOM     10  C   UNL     1       4.534   3.010  19.233  0.00  0.00    +0.000 A 
ATOM     11  C   UNL     1       3.460   2.140  19.040  0.00  0.00    +0.000 A 
ATOM     12  C   UNL     1       2.559   2.375  18.008  0.00  0.00    +0.000 A 
ATOM     13  C   UNL     1       2.769   3.477  17.206  0.00  0.00    +0.000 A 
ATOM     14  N   UNL     1       3.799   4.332  17.367  0.00  0.00    +0.000 NA
ATOM     15  C   UNL     1       6.076   6.182  17.886  0.00  0.00    +0.000 A 
ATOM     16  C   UNL     1       5.236   6.817  16.826  0.00  0.00    +0.000 C 
ENDBRANCH   2   5
BRANCH   1  20
ATOM     17  C   UNL     1      10.084  12.564  17.991  0.00  0.00    +0.000 A 
ATOM     18  C   UNL     1       8.804  12.256  17.509  0.00  0.00    +0.000 A 
ATOM     19  C   UNL     1       8.198  11.033  17.807  0.00  0.00    +0.000 A 
ATOM     20  C   UNL     1       8.854  10.076  18.588  0.00  0.00    +0.000 A 
ATOM     21  C   UNL     1      10.103  10.396  19.120  0.00  0.00    +0.000 A 
ATOM     22  C   UNL     1      10.720  11.624  18.820  0.00  0.00    +0.000 A 
ATOM     23 CL   UNL     1      12.260  11.900  19.567  0.00  0.00    +0.000 Cl
BRANCH  17  27
ATOM     24  C   UNL     1      10.876  17.398  17.534  0.00  0.00    +0.000 C 
ATOM     25  C   UNL     1      10.988  15.930  17.470  0.00  0.00    +0.000 A 
ATOM     26  N   UNL     1      10.224  15.044  18.066  0.00  0.00    +0.000 NA
ATOM     27  C   UNL     1      10.684  13.834  17.606  0.00  0.00    +0.000 A 
ATOM     28  N   UNL     1      11.761  13.941  16.805  0.00  0.00    +0.000 NA
ATOM     29  N   UNL     1      11.918  15.272  16.724  0.00  0.00    +0.000 N 
ATOM     30  H   UNL     1      12.656  15.650  16.141  0.00  0.00    +0.000 HD
ENDBRANCH  17  27
ENDBRANCH   1  20
TORSDOF 3
ENDMDL
MODEL 2
REMARK VINA RESULT:      -8.4      1.103      1.411
REMARK  Name = 
REMARK  5 active torsions:
REMARK  status: ('A' for Active; 'I' for Inactive)
REMARK    1  A    between atoms: C_1  and  C_2
REMARK    2  A    between atoms: C_4  and  C_5
REMARK    3  A    between atoms: C_8  and  N_9
REMARK    4  A    between atoms: C_10  and  C_12
REMARK    5  A    between atoms: C_22  and  C_23
REMARK                            x       y       z     vdW  Elec       q    Type
REMARK                         _______ _______ _______ _____ _____    ______ ____
ROOT
ATOM      1  N   UNL     1       8.381   8.830  18.815  0.00  0.00    +0.000 N 
ATOM      2  C   UNL     1       8.024   7.859  17.894  0.00  0.00    +0.000 C 
ATOM      3  O   UNL     1       8.272   7.945  16.695  0.00  0.00    +0.000 OA
ATOM      4  H   UNL     1       8.328   8.597  19.796  0.00  0.00    +0.000 HD
ENDROOT
BRANCH   2   5
ATOM      5  C   UNL     1       7.343   6.677  18.412  0.00  0.00    +0.000 A 
ATOM      6  C   UNL     1       7.650   5.802  19.467  0.00  0.00    +0.000 A 
ATOM      7  N   UNL     1       6.750   4.833  19.624  0.00  0.00    +0.000 NA
ATOM      8  N   UNL     1       5.829   5.036  18.632  0.00  0.00    +0.000 N 
ATOM      9  C   UNL     1       4.727   4.127  18.460  0.00  0.00    +0.000 A 
ATOM     10  C   UNL     1       4.554   3.085  19.370  0.00  0.00    +0.000 A 
ATOM     11  C   UNL     1       3.484   2.207  19.192  0.00  0.00    +0.000 A 
ATOM     12  C   UNL     1       2.617   2.384  18.120  0.00  0.00    +0.000 A 
ATOM     13  C   UNL     1       2.856   3.440  17.264  0.00  0.00    +0.000 A 
ATOM     14  N   UNL     1       3.883   4.301  17.410  0.00  0.00    +0.000 NA
ATOM     15  C   UNL     1       6.147   6.174  17.897  0.00  0.00    +0.000 A 
ATOM     16  C   UNL     1       5.344   6.750  16.777  0.00  0.00    +0.000 C 
ENDBRANCH   2   5
BRANCH   1  20
ATOM     17  C   UNL     1       9.972  12.659  17.867  0.00  0.00    +0.000 A 
ATOM     18  C   UNL     1      10.823  11.617  18.263  0.00  0.00    +0.000 A 
ATOM     19  C   UNL     1      10.317  10.349  18.559  0.00  0.00    +0.000 A 
ATOM     20  C   UNL     1       8.948  10.083  18.478  0.00  0.00    +0.000 A 
ATOM     21  C   UNL     1       8.100  11.096  18.029  0.00  0.00    +0.000 A 
ATOM     22  C   UNL     1       8.602  12.376  17.734  0.00  0.00    +0.000 A 
ATOM     23 CL   UNL     1       7.442  13.532  17.165  0.00  0.00    +0.000 Cl
BRANCH  17  27
ATOM     24  C   UNL     1      10.988  17.456  18.267  0.00  0.00    +0.000 C 
ATOM     25  C   UNL     1      10.968  16.039  17.863  0.00  0.00    +0.000 A 
ATOM     26  N   UNL     1      10.314  15.054  18.433  0.00  0.00    +0.000 NA
ATOM     27  C   UNL     1      10.551  13.973  17.620  0.00  0.00    +0.000 A 
ATOM     28  N   UNL     1      11.397  14.240  16.608  0.00  0.00    +0.000 NA
ATOM     29  N   UNL     1      11.630  15.551  16.776  0.00  0.00    +0.000 N 
ATOM     30  H   UNL     1      12.224  16.039  16.115  0.00  0.00    +0.000 HD
ENDBRANCH  17  27
ENDBRANCH   1  20
TORSDOF 3
ENDMDL
MODEL 3
REMARK VINA RESULT:      -8.2      1.204      1.265
REMARK  Name = 
REMARK  5 active torsions:
REMARK  status: ('A' for Active; 'I' for Inactive)
REMARK    1  A    between atoms: C_1  and  C_2
REMARK    2  A    between atoms: C_4  and  C_5
REMARK    3  A    between atoms: C_8  and  N_9
REMARK    4  A    between atoms: C_10  and  C_12
REMARK    5  A    between atoms: C_22  and  C_23
REMARK                            x       y       z     vdW  Elec       q    Type
REMARK                         _______ _______ _______ _____ _____    ______ ____
ROOT
ATOM      1  N   UNL     1       8.530   8.458  19.005  0.00  0.00    +0.000 N 
ATOM      2  C   UNL     1       7.875   7.862  17.940  0.00  0.00    +0.000 C 
ATOM      3  O   UNL     1       7.813   8.365  16.822  0.00  0.00    +0.000 OA
ATOM      4  H   UNL     1       8.713   7.897  19.825  0.00  0.00    +0.000 HD
ENDROOT
BRANCH   2   5
ATOM      5  C   UNL     1       7.261   6.562  18.189  0.00  0.00    +0.000 A 
ATOM      6  C   UNL     1       7.767   5.371  18.733  0.00  0.00    +0.000 A 
ATOM      7  N   UNL     1       6.863   4.396  18.798  0.00  0.00    +0.000 NA
ATOM      8  N   UNL     1       5.725   4.928  18.254  0.00  0.00    +0.000 N 
ATOM      9  C   UNL     1       4.540   4.124  18.106  0.00  0.00    +0.000 A 
ATOM     10  C   UNL     1       4.533   2.822  18.603  0.00  0.00    +0.000 A 
ATOM     11  C   UNL     1       3.380   2.050  18.451  0.00  0.00    +0.000 A 
ATOM     12  C   UNL     1       2.270   2.587  17.811  0.00  0.00    +0.000 A 
ATOM     13  C   UNL     1       2.356   3.884  17.346  0.00  0.00    +0.000 A 
ATOM     14  N   UNL     1       3.457   4.651  17.478  0.00  0.00    +0.000 NA
ATOM     15  C   UNL     1       5.927   6.259  17.904  0.00  0.00    +0.000 A 
ATOM     16  C   UNL     1       4.901   7.187  17.341  0.00  0.00    +0.000 C 
ENDBRANCH   2   5
BRANCH   1  20
ATOM     17  C   UNL     1      10.274  12.337  19.035  0.00  0.00    +0.000 A 
ATOM     18  C   UNL     1      10.123  11.639  17.829  0.00  0.00    +0.000 A 
ATOM     19  C   UNL     1       9.534  10.372  17.800  0.00  0.00    +0.000 A 
ATOM     20  C   UNL     1       9.087   9.760  18.974  0.00  0.00    +0.000 A 
ATOM     21  C   UNL     1       9.179  10.470  20.171  0.00  0.00    +0.000 A 
ATOM     22  C   UNL     1       9.775  11.744  20.207  0.00  0.00    +0.000 A 
ATOM     23 CL   UNL     1       9.804  12.523  21.755  0.00  0.00    +0.000 Cl
BRANCH  17  27
ATOM     24  C   UNL     1      11.259  17.054  18.040  0.00  0.00    +0.000 C 
ATOM     25  C   UNL     1      11.293  15.678  18.567  0.00  0.00    +0.000 A 
ATOM     26  N   UNL     1      10.386  14.742  18.416  0.00  0.00    +0.000 NA
ATOM     27  C   UNL     1      10.940  13.633  19.009  0.00  0.00    +0.000 A 
ATOM     28  N   UNL     1      12.128  13.876  19.592  0.00  0.00    +0.000 NA
ATOM     29  N   UNL     1      12.333  15.166  19.283  0.00  0.00    +0.000 N 
ATOM     30  H   UNL     1      13.193  15.616  19.575  0.00  0.00    +0.000 HD
ENDBRANCH  17  27
ENDBRANCH   1  20
TORSDOF 3
ENDMDL
MODEL 4
REMARK VINA RESULT:      -7.9      8.486     11.057
REMARK  Name = 
REMARK  5 active torsions:
REMARK  status: ('A' for Active; 'I' for Inactive)
REMARK    1  A    between atoms: C_1  and  C_2
REMARK    2  A    between atoms: C_4  and  C_5
REMARK    3  A    between atoms: C_8  and  N_9
REMARK    4  A    between atoms: C_10  and  C_12
REMARK    5  A    between atoms: C_22  and  C_23
REMARK                            x       y       z     vdW  Elec       q    Type
REMARK                         _______ _______ _______ _____ _____    ______ ____
ROOT
ATOM      1  N   UNL     1       0.433   9.631  19.302  0.00  0.00    +0.000 N 
ATOM      2  C   UNL     1       0.587  10.714  20.152  0.00  0.00    +0.000 C 
ATOM      3  O   UNL     1       1.662  11.027  20.654  0.00  0.00    +0.000 OA
ATOM      4  H   UNL     1      -0.425   9.560  18.773  0.00  0.00    +0.000 HD
ENDROOT
BRANCH   2   5
ATOM      5  C   UNL     1      -0.603  11.512  20.423  0.00  0.00    +0.000 A 
ATOM      6  C   UNL     1      -1.280  12.481  19.664  0.00  0.00    +0.000 A 
ATOM      7  N   UNL     1      -2.351  12.978  20.279  0.00  0.00    +0.000 NA
ATOM      8  N   UNL     1      -2.383  12.356  21.498  0.00  0.00    +0.000 N 
ATOM      9  C   UNL     1      -3.391  12.697  22.467  0.00  0.00    +0.000 A 
ATOM     10  C   UNL     1      -4.391  13.605  22.120  0.00  0.00    +0.000 A 
ATOM     11  C   UNL     1      -5.361  13.932  23.068  0.00  0.00    +0.000 A 
ATOM     12  C   UNL     1      -5.315  13.353  24.331  0.00  0.00    +0.000 A 
ATOM     13  C   UNL     1      -4.294  12.464  24.597  0.00  0.00    +0.000 A 
ATOM     14  N   UNL     1      -3.342  12.132  23.701  0.00  0.00    +0.000 NA
ATOM     15  C   UNL     1      -1.349  11.431  21.602  0.00  0.00    +0.000 A 
ATOM     16  C   UNL     1      -1.098  10.517  22.757  0.00  0.00    +0.000 C 
ENDBRANCH   2   5
BRANCH   1  20
ATOM     17  C   UNL     1       3.395   6.693  18.471  0.00  0.00    +0.000 A 
ATOM     18  C   UNL     1       3.286   7.836  17.667  0.00  0.00    +0.000 A 
ATOM     19  C   UNL     1       2.332   8.819  17.938  0.00  0.00    +0.000 A 
ATOM     20  C   UNL     1       1.450   8.688  19.015  0.00  0.00    +0.000 A 
ATOM     21  C   UNL     1       1.588   7.583  19.855  0.00  0.00    +0.000 A 
ATOM     22  C   UNL     1       2.544   6.588  19.584  0.00  0.00    +0.000 A 
ATOM     23 CL   UNL     1       2.622   5.283  20.722  0.00  0.00    +0.000 Cl
BRANCH  17  27
ATOM     24  C   UNL     1       7.691   4.493  17.517  0.00  0.00    +0.000 C 
ATOM     25  C   UNL     1       6.262   4.780  17.740  0.00  0.00    +0.000 A 
ATOM     26  N   UNL     1       5.731   5.898  18.178  0.00  0.00    +0.000 NA
ATOM     27  C   UNL     1       4.376   5.679  18.109  0.00  0.00    +0.000 A 
ATOM     28  N   UNL     1       4.055   4.432  17.717  0.00  0.00    +0.000 NA
ATOM     29  N   UNL     1       5.261   3.895  17.476  0.00  0.00    +0.000 N 
ATOM     30  H   UNL     1       5.321   2.946  17.125  0.00  0.00    +0.000 HD
ENDBRANCH  17  27
ENDBRANCH   1  20
TORSDOF 3
ENDMDL
MODEL 5
REMARK VINA RESULT:      -7.9      7.006     10.347
REMARK  Name = 
REMARK  5 active torsions:
REMARK  status: ('A' for Active; 'I' for Inactive)
REMARK    1  A    between atoms: C_1  and  C_2
REMARK    2  A    between atoms: C_4  and  C_5
REMARK    3  A    between atoms: C_8  and  N_9
REMARK    4  A    between atoms: C_10  and  C_12
REMARK    5  A    between atoms: C_22  and  C_23
REMARK                            x       y       z     vdW  Elec       q    Type
REMARK                         _______ _______ _______ _____ _____    ______ ____
ROOT
ATOM      1  N   UNL     1       2.087   7.816  19.386  0.00  0.00    +0.000 N 
ATOM      2  C   UNL     1       1.396   8.954  19.003  0.00  0.00    +0.000 C 
ATOM      3  O   UNL     1       1.341   9.349  17.842  0.00  0.00    +0.000 OA
ATOM      4  H   UNL     1       1.917   7.444  20.310  0.00  0.00    +0.000 HD
ENDROOT
BRANCH   2   5
ATOM      5  C   UNL     1       0.689   9.680  20.053  0.00  0.00    +0.000 A 
ATOM      6  C   UNL     1      -0.186   9.255  21.065  0.00  0.00    +0.000 A 
ATOM      7  N   UNL     1      -0.617  10.248  21.840  0.00  0.00    +0.000 NA
ATOM      8  N   UNL     1      -0.046  11.379  21.320  0.00  0.00    +0.000 N 
ATOM      9  C   UNL     1      -0.342  12.671  21.881  0.00  0.00    +0.000 A 
ATOM     10  C   UNL     1      -1.147  12.754  23.016  0.00  0.00    +0.000 A 
ATOM     11  C   UNL     1      -1.431  14.012  23.549  0.00  0.00    +0.000 A 
ATOM     12  C   UNL     1      -0.912  15.151  22.944  0.00  0.00    +0.000 A 
ATOM     13  C   UNL     1      -0.123  14.985  21.824  0.00  0.00    +0.000 A 
ATOM     14  N   UNL     1       0.164  13.782  21.286  0.00  0.00    +0.000 NA
ATOM     15  C   UNL     1       0.783  11.059  20.250  0.00  0.00    +0.000 A 
ATOM     16  C   UNL     1       1.623  12.018  19.471  0.00  0.00    +0.000 C 
ENDBRANCH   2   5
BRANCH   1  20
ATOM     17  C   UNL     1       4.448   5.455  16.752  0.00  0.00    +0.000 A 
ATOM     18  C   UNL     1       4.719   6.821  16.913  0.00  0.00    +0.000 A 
ATOM     19  C   UNL     1       3.965   7.605  17.789  0.00  0.00    +0.000 A 
ATOM     20  C   UNL     1       2.912   7.054  18.525  0.00  0.00    +0.000 A 
ATOM     21  C   UNL     1       2.672   5.684  18.415  0.00  0.00    +0.000 A 
ATOM     22  C   UNL     1       3.425   4.889  17.531  0.00  0.00    +0.000 A 
ATOM     23 CL   UNL     1       3.036   3.200  17.512  0.00  0.00    +0.000 Cl
BRANCH  17  27
ATOM     24  C   UNL     1       6.015   3.514  12.510  0.00  0.00    +0.000 C 
ATOM     25  C   UNL     1       5.878   3.917  13.922  0.00  0.00    +0.000 A 
ATOM     26  N   UNL     1       5.002   4.749  14.434  0.00  0.00    +0.000 NA
ATOM     27  C   UNL     1       5.236   4.699  15.787  0.00  0.00    +0.000 A 
ATOM     28  N   UNL     1       6.284   3.923  16.119  0.00  0.00    +0.000 NA
ATOM     29  N   UNL     1       6.658   3.430  14.928  0.00  0.00    +0.000 N 
ATOM     30  H   UNL     1       7.425   2.770  14.882  0.00  0.00    +0.000 HD
ENDBRANCH  17  27
ENDBRANCH   1  20
TORSDOF 3
ENDMDL
MODEL 6
REMARK VINA RESULT:      -7.9      1.199      1.667
REMARK  Name = 
REMARK  5 active torsions:
REMARK  status: ('A' for Active; 'I' for Inactive)
REMARK    1  A    between atoms: C_1  and  C_2
REMARK    2  A    between atoms: C_4  and  C_5
REMARK    3  A    between atoms: C_8  and  N_9
REMARK    4  A    between atoms: C_10  and  C_12
REMARK    5  A    between atoms: C_22  and  C_23
REMARK                            x       y       z     vdW  Elec       q    Type
REMARK                         _______ _______ _______ _____ _____    ______ ____
ROOT
ATOM      1  N   UNL     1       8.436   8.591  19.006  0.00  0.00    +0.000 N 
ATOM      2  C   UNL     1       7.923   7.843  17.958  0.00  0.00    +0.000 C 
ATOM      3  O   UNL     1       7.986   8.198  16.785  0.00  0.00    +0.000 OA
ATOM      4  H   UNL     1       8.529   8.144  19.907  0.00  0.00    +0.000 HD
ENDROOT
BRANCH   2   5
ATOM      5  C   UNL     1       7.306   6.566  18.300  0.00  0.00    +0.000 A 
ATOM      6  C   UNL     1       7.763   5.472  19.053  0.00  0.00    +0.000 A 
ATOM      7  N   UNL     1       6.874   4.484  19.137  0.00  0.00    +0.000 NA
ATOM      8  N   UNL     1       5.803   4.903  18.395  0.00  0.00    +0.000 N 
ATOM      9  C   UNL     1       4.660   4.048  18.213  0.00  0.00    +0.000 A 
ATOM     10  C   UNL     1       4.614   2.821  18.873  0.00  0.00    +0.000 A 
ATOM     11  C   UNL     1       3.504   1.997  18.687  0.00  0.00    +0.000 A 
ATOM     12  C   UNL     1       2.471   2.410  17.853  0.00  0.00    +0.000 A 
ATOM     13  C   UNL     1       2.591   3.638  17.236  0.00  0.00    +0.000 A 
ATOM     14  N   UNL     1       3.654   4.452  17.396  0.00  0.00    +0.000 NA
ATOM     15  C   UNL     1       6.024   6.185  17.900  0.00  0.00    +0.000 A 
ATOM     16  C   UNL     1       5.058   6.997  17.101  0.00  0.00    +0.000 C 
ENDBRANCH   2   5
BRANCH   1  20
ATOM     17  C   UNL     1       9.905  12.563  18.619  0.00  0.00    +0.000 A 
ATOM     18  C   UNL     1      10.633  11.607  19.340  0.00  0.00    +0.000 A 
ATOM     19  C   UNL     1      10.173  10.293  19.460  0.00  0.00    +0.000 A 
ATOM     20  C   UNL     1       8.970   9.895  18.872  0.00  0.00    +0.000 A 
ATOM     21  C   UNL     1       8.267  10.824  18.103  0.00  0.00    +0.000 A 
ATOM     22  C   UNL     1       8.722  12.149  17.983  0.00  0.00    +0.000 A 
ATOM     23 CL   UNL     1       7.765  13.190  16.980  0.00  0.00    +0.000 Cl
BRANCH  17  27
ATOM     24  C   UNL     1      12.302  16.599  17.145  0.00  0.00    +0.000 C 
ATOM     25  C   UNL     1      11.443  15.643  17.866  0.00  0.00    +0.000 A 
ATOM     26  N   UNL     1      11.155  14.410  17.521  0.00  0.00    +0.000 NA
ATOM     27  C   UNL     1      10.409  13.929  18.571  0.00  0.00    +0.000 A 
ATOM     28  N   UNL     1      10.161  14.853  19.517  0.00  0.00    +0.000 NA
ATOM     29  N   UNL     1      10.838  15.916  19.056  0.00  0.00    +0.000 N 
ATOM     30  H   UNL     1      10.855  16.770  19.602  0.00  0.00    +0.000 HD
ENDBRANCH  17  27
ENDBRANCH   1  20
TORSDOF 3
ENDMDL
MODEL 7
REMARK VINA RESULT:      -7.9      7.130      9.963
REMARK  Name = 
REMARK  5 active torsions:
REMARK  status: ('A' for Active; 'I' for Inactive)
REMARK    1  A    between atoms: C_1  and  C_2
REMARK    2  A    between atoms: C_4  and  C_5
REMARK    3  A    between atoms: C_8  and  N_9
REMARK    4  A    between atoms: C_10  and  C_12
REMARK    5  A    between atoms: C_22  and  C_23
REMARK                            x       y       z     vdW  Elec       q    Type
REMARK                         _______ _______ _______ _____ _____    ______ ____
ROOT
ATOM      1  N   UNL     1       2.272   7.582  19.268  0.00  0.00    +0.000 N 
ATOM      2  C   UNL     1       1.523   8.723  19.026  0.00  0.00    +0.000 C 
ATOM      3  O   UNL     1       1.487   9.284  17.935  0.00  0.00    +0.000 OA
ATOM      4  H   UNL     1       2.091   7.066  20.118  0.00  0.00    +0.000 HD
ENDROOT
BRANCH   2   5
ATOM      5  C   UNL     1       0.732   9.239  20.137  0.00  0.00    +0.000 A 
ATOM      6  C   UNL     1       0.428   8.711  21.402  0.00  0.00    +0.000 A 
ATOM      7  N   UNL     1      -0.334   9.517  22.140  0.00  0.00    +0.000 NA
ATOM      8  N   UNL     1      -0.580  10.603  21.344  0.00  0.00    +0.000 N 
ATOM      9  C   UNL     1      -1.432  11.667  21.803  0.00  0.00    +0.000 A 
ATOM     10  C   UNL     1      -1.936  11.626  23.102  0.00  0.00    +0.000 A 
ATOM     11  C   UNL     1      -2.766  12.661  23.535  0.00  0.00    +0.000 A 
ATOM     12  C   UNL     1      -3.073  13.706  22.672  0.00  0.00    +0.000 A 
ATOM     13  C   UNL     1      -2.535  13.674  21.402  0.00  0.00    +0.000 A 
ATOM     14  N   UNL     1      -1.734  12.686  20.956  0.00  0.00    +0.000 NA
ATOM     15  C   UNL     1       0.086  10.477  20.128  0.00  0.00    +0.000 A 
ATOM     16  C   UNL     1       0.108  11.489  19.029  0.00  0.00    +0.000 C 
ENDBRANCH   2   5
BRANCH   1  20
ATOM     17  C   UNL     1       4.887   5.761  16.452  0.00  0.00    +0.000 A 
ATOM     18  C   UNL     1       4.870   7.155  16.604  0.00  0.00    +0.000 A 
ATOM     19  C   UNL     1       4.031   7.766  17.538  0.00  0.00    +0.000 A 
ATOM     20  C   UNL     1       3.176   7.008  18.343  0.00  0.00    +0.000 A 
ATOM     21  C   UNL     1       3.228   5.617  18.241  0.00  0.00    +0.000 A 
ATOM     22  C   UNL     1       4.068   4.996  17.298  0.00  0.00    +0.000 A 
ATOM     23 CL   UNL     1       4.049   3.263  17.294  0.00  0.00    +0.000 Cl
BRANCH  17  27
ATOM     24  C   UNL     1       6.383   3.265  12.484  0.00  0.00    +0.000 C 
ATOM     25  C   UNL     1       6.324   4.115  13.687  0.00  0.00    +0.000 A 
ATOM     26  N   UNL     1       5.253   4.502  14.340  0.00  0.00    +0.000 NA
ATOM     27  C   UNL     1       5.747   5.185  15.426  0.00  0.00    +0.000 A 
ATOM     28  N   UNL     1       7.087   5.301  15.421  0.00  0.00    +0.000 NA
ATOM     29  N   UNL     1       7.425   4.604  14.325  0.00  0.00    +0.000 N 
ATOM     30  H   UNL     1       8.404   4.493  14.088  0.00  0.00    +0.000 HD
ENDBRANCH  17  27
ENDBRANCH   1  20
TORSDOF 3
ENDMDL
MODEL 8
REMARK VINA RESULT:      -7.9      2.286     10.564
REMARK  Name = 
REMARK  5 active torsions:
REMARK  status: ('A' for Active; 'I' for Inactive)
REMARK    1  A    between atoms: C_1  and  C_2
REMARK    2  A    between atoms: C_4  and  C_5
REMARK    3  A    between atoms: C_8  and  N_9
REMARK    4  A    between atoms: C_10  and  C_12
REMARK    5  A    between atoms: C_22  and  C_23
REMARK                            x       y       z     vdW  Elec       q    Type
REMARK                         _______ _______ _______ _____ _____    ______ ____
ROOT
ATOM      1  N   UNL     1       8.705   9.325  17.640  0.00  0.00    +0.000 N 
ATOM      2  C   UNL     1       9.170  10.179  18.628  0.00  0.00    +0.000 C 
ATOM      3  O   UNL     1       9.030   9.959  19.827  0.00  0.00    +0.000 OA
ATOM      4  H   UNL     1       9.035   9.466  16.696  0.00  0.00    +0.000 HD
ENDROOT
BRANCH   2   5
ATOM      5  C   UNL     1       9.879  11.375  18.185  0.00  0.00    +0.000 A 
ATOM      6  C   UNL     1      11.151  11.560  17.618  0.00  0.00    +0.000 A 
ATOM      7  N   UNL     1      11.423  12.833  17.343  0.00  0.00    +0.000 NA
ATOM      8  N   UNL     1      10.324  13.533  17.762  0.00  0.00    +0.000 N 
ATOM      9  C   UNL     1      10.292  14.969  17.671  0.00  0.00    +0.000 A 
ATOM     10  C   UNL     1      11.357  15.638  17.069  0.00  0.00    +0.000 A 
ATOM     11  C   UNL     1      11.318  17.030  16.990  0.00  0.00    +0.000 A 
ATOM     12  C   UNL     1      10.229  17.721  17.509  0.00  0.00    +0.000 A 
ATOM     13  C   UNL     1       9.215  16.986  18.089  0.00  0.00    +0.000 A 
ATOM     14  N   UNL     1       9.229  15.641  18.182  0.00  0.00    +0.000 NA
ATOM     15  C   UNL     1       9.351  12.666  18.250  0.00  0.00    +0.000 A 
ATOM     16  C   UNL     1       7.993  13.053  18.738  0.00  0.00    +0.000 C 
ENDBRANCH   2   5
BRANCH   1  20
ATOM     17  C   UNL     1       6.274   5.886  18.229  0.00  0.00    +0.000 A 
ATOM     18  C   UNL     1       7.505   6.003  18.888  0.00  0.00    +0.000 A 
ATOM     19  C   UNL     1       8.306   7.135  18.720  0.00  0.00    +0.000 A 
ATOM     20  C   UNL     1       7.908   8.181  17.883  0.00  0.00    +0.000 A 
ATOM     21  C   UNL     1       6.658   8.100  17.268  0.00  0.00    +0.000 A 
ATOM     22  C   UNL     1       5.849   6.961  17.430  0.00  0.00    +0.000 A 
ATOM     23 CL   UNL     1       4.312   7.004  16.629  0.00  0.00    +0.000 Cl
BRANCH  17  27
ATOM     24  C   UNL     1       3.007   2.283  17.480  0.00  0.00    +0.000 C 
ATOM     25  C   UNL     1       4.096   3.124  18.009  0.00  0.00    +0.000 A 
ATOM     26  N   UNL     1       4.594   4.215  17.476  0.00  0.00    +0.000 NA
ATOM     27  C   UNL     1       5.505   4.660  18.404  0.00  0.00    +0.000 A 
ATOM     28  N   UNL     1       5.644   3.834  19.457  0.00  0.00    +0.000 NA
ATOM     29  N   UNL     1       4.733   2.885  19.190  0.00  0.00    +0.000 N 
ATOM     30  H   UNL     1       4.592   2.130  19.853  0.00  0.00    +0.000 HD
ENDBRANCH  17  27
ENDBRANCH   1  20
TORSDOF 3
ENDMDL
MODEL 9
REMARK VINA RESULT:      -7.9      6.922     11.469
REMARK  Name = 
REMARK  5 active torsions:
REMARK  status: ('A' for Active; 'I' for Inactive)
REMARK    1  A    between atoms: C_1  and  C_2
REMARK    2  A    between atoms: C_4  and  C_5
REMARK    3  A    between atoms: C_8  and  N_9
REMARK    4  A    between atoms: C_10  and  C_12
REMARK    5  A    between atoms: C_22  and  C_23
REMARK                            x       y       z     vdW  Elec       q    Type
REMARK                         _______ _______ _______ _____ _____    ______ ____
ROOT
ATOM      1  N   UNL     1       1.186   9.823  19.566  0.00  0.00    +0.000 N 
ATOM      2  C   UNL     1       0.256  10.369  18.695  0.00  0.00    +0.000 C 
ATOM      3  O   UNL     1      -0.253   9.737  17.773  0.00  0.00    +0.000 OA
ATOM      4  H   UNL     1       1.400  10.332  20.411  0.00  0.00    +0.000 HD
ENDROOT
BRANCH   2   5
ATOM      5  C   UNL     1      -0.133  11.754  18.931  0.00  0.00    +0.000 A 
ATOM      6  C   UNL     1      -1.332  12.332  19.381  0.00  0.00    +0.000 A 
ATOM      7  N   UNL     1      -1.275  13.660  19.470  0.00  0.00    +0.000 NA
ATOM      8  N   UNL     1      -0.019  13.992  19.038  0.00  0.00    +0.000 N 
ATOM      9  C   UNL     1       0.380  15.372  18.945  0.00  0.00    +0.000 A 
ATOM     10  C   UNL     1      -0.494  16.366  19.381  0.00  0.00    +0.000 A 
ATOM     11  C   UNL     1      -0.099  17.701  19.282  0.00  0.00    +0.000 A 
ATOM     12  C   UNL     1       1.147  18.014  18.753  0.00  0.00    +0.000 A 
ATOM     13  C   UNL     1       1.955  16.973  18.343  0.00  0.00    +0.000 A 
ATOM     14  N   UNL     1       1.597  15.676  18.425  0.00  0.00    +0.000 NA
ATOM     15  C   UNL     1       0.712  12.848  18.735  0.00  0.00    +0.000 A 
ATOM     16  C   UNL     1       2.139  12.808  18.294  0.00  0.00    +0.000 C 
ENDBRANCH   2   5
BRANCH   1  20
ATOM     17  C   UNL     1       3.021   6.015  19.098  0.00  0.00    +0.000 A 
ATOM     18  C   UNL     1       2.149   6.254  20.169  0.00  0.00    +0.000 A 
ATOM     19  C   UNL     1       1.523   7.493  20.325  0.00  0.00    +0.000 A 
ATOM     20  C   UNL     1       1.755   8.535  19.423  0.00  0.00    +0.000 A 
ATOM     21  C   UNL     1       2.576   8.290  18.322  0.00  0.00    +0.000 A 
ATOM     22  C   UNL     1       3.212   7.046  18.162  0.00  0.00    +0.000 A 
ATOM     23 CL   UNL     1       4.185   6.871  16.737  0.00  0.00    +0.000 Cl
BRANCH  17  27
ATOM     24  C   UNL     1       3.766   1.191  18.479  0.00  0.00    +0.000 C 
ATOM     25  C   UNL     1       3.943   2.637  18.707  0.00  0.00    +0.000 A 
ATOM     26  N   UNL     1       3.034   3.579  18.609  0.00  0.00    +0.000 NA
ATOM     27  C   UNL     1       3.683   4.720  19.015  0.00  0.00    +0.000 A 
ATOM     28  N   UNL     1       4.987   4.526  19.284  0.00  0.00    +0.000 NA
ATOM     29  N   UNL     1       5.119   3.204  19.098  0.00  0.00    +0.000 N 
ATOM     30  H   UNL     1       6.016   2.765  19.269  0.00  0.00    +0.000 HD
ENDBRANCH  17  27
ENDBRANCH   1  20
TORSDOF 3
ENDMDL
