MODEL 1
REMARK VINA RESULT:      -8.3      0.000      0.000
REMARK  Name = 
REMARK  7 active torsions:
REMARK  status: ('A' for Active; 'I' for Inactive)
REMARK    1  A    between atoms: C_1  and  C_2
REMARK    2  A    between atoms: C_8  and  C_9
REMARK    3  A    between atoms: N_11  and  C_12
REMARK    4  A    between atoms: C_12  and  C_13
REMARK    5  A    between atoms: C_15  and  C_16
REMARK    6  A    between atoms: N_20  and  C_21
REMARK    7  A    between atoms: C_23  and  O_24
REMARK                            x       y       z     vdW  Elec       q    Type
REMARK                         _______ _______ _______ _____ _____    ______ ____
ROOT
ATOM      1  C   UNL     1       2.332   5.776  20.119  0.00  0.00    +0.000 C 
ATOM      2  O   UNL     1       1.642   4.927  20.678  0.00  0.00    +0.000 OA
ATOM      3  N   UNL     1       2.133   7.123  20.356  0.00  0.00    +0.000 N 
ATOM      4  H   UNL     1       2.759   7.781  19.909  0.00  0.00    +0.000 HD
ENDROOT
BRANCH   1  12
ATOM      5  C   UNL     1       7.773   5.682  19.113  0.00  0.00    +0.000 C 
ATOM      6  C   UNL     1       6.785   5.182  18.107  0.00  0.00    +0.000 A 
ATOM      7  C   UNL     1       7.231   4.674  16.867  0.00  0.00    +0.000 A 
ATOM      8  C   UNL     1       6.344   4.197  15.897  0.00  0.00    +0.000 A 
ATOM      9  C   UNL     1       4.968   4.210  16.128  0.00  0.00    +0.000 A 
ATOM     10  C   UNL     1       4.491   4.704  17.352  0.00  0.00    +0.000 A 
ATOM     11  C   UNL     1       3.207   4.865  17.916  0.00  0.00    +0.000 A 
ATOM     12  C   UNL     1       3.371   5.420  19.172  0.00  0.00    +0.000 A 
ATOM     13  O   UNL     1       4.711   5.615  19.416  0.00  0.00    +0.000 OA
ATOM     14  C   UNL     1       5.393   5.176  18.303  0.00  0.00    +0.000 A 
ENDBRANCH   1  12
BRANCH   3  15
ATOM     15  C   UNL     1       1.086   7.574  21.257  0.00  0.00    +0.000 C 
BRANCH  15  16
ATOM     16  C   UNL     1       0.937   9.097  21.276  0.00  0.00    +0.000 C 
ATOM     17  C   UNL     1       0.039   9.621  20.147  0.00  0.00    +0.000 C 
ATOM     18  C   UNL     1      -0.619  10.909  20.684  0.00  0.00    +0.000 C 
ATOM     19  C   UNL     1      -0.129  11.063  22.132  0.00  0.00    +0.000 C 
ATOM     20  C   UNL     1       0.284   9.653  22.545  0.00  0.00    +0.000 C 
BRANCH  18  21
ATOM     21  C   UNL     1      -0.308  12.108  19.854  0.00  0.00    +0.000 A 
ATOM     22  N   UNL     1       0.613  13.019  20.099  0.00  0.00    +0.000 NA
ATOM     23  N   UNL     1       0.596  13.938  19.077  0.00  0.00    +0.000 NA
ATOM     24  C   UNL     1      -0.346  13.580  18.238  0.00  0.00    +0.000 A 
ATOM     25  N   UNL     1      -0.949  12.448  18.690  0.00  0.00    +0.000 N 
ATOM     26  C   UNL     1      -2.043  11.763  18.057  0.00  0.00    +0.000 C 
ENDBRANCH  18  21
BRANCH  20  27
ATOM     27  O   UNL     1      -0.859   8.904  22.946  0.00  0.00    +0.000 OA
ATOM     28  H   UNL     1      -1.092   8.265  22.253  0.00  0.00    +0.000 HD
ENDBRANCH  20  27
ENDBRANCH  15  16
ENDBRANCH   3  15
TORSDOF 5
ENDMDL
MODEL 2
REMARK VINA RESULT:      -7.9      2.608      3.705
REMARK  Name = 
REMARK  7 active torsions:
REMARK  status: ('A' for Active; 'I' for Inactive)
REMARK    1  A    between atoms: C_1  and  C_2
REMARK    2  A    between atoms: C_8  and  C_9
REMARK    3  A    between atoms: N_11  and  C_12
REMARK    4  A    between atoms: C_12  and  C_13
REMARK    5  A    between atoms: C_15  and  C_16
REMARK    6  A    between atoms: N_20  and  C_21
REMARK    7  A    between atoms: C_23  and  O_24
REMARK                            x       y       z     vdW  Elec       q    Type
REMARK                         _______ _______ _______ _____ _____    ______ ____
ROOT
ATOM      1  C   UNL     1       2.087   8.271  18.453  0.00  0.00    +0.000 C 
ATOM      2  O   UNL     1       2.273   8.931  17.433  0.00  0.00    +0.000 OA
ATOM      3  N   UNL     1       1.441   8.818  19.545  0.00  0.00    +0.000 N 
ATOM      4  H   UNL     1       1.268   8.219  20.344  0.00  0.00    +0.000 HD
ENDROOT
BRANCH   1  12
ATOM      5  C   UNL     1       1.612   3.518  21.247  0.00  0.00    +0.000 C 
ATOM      6  C   UNL     1       2.569   3.660  20.106  0.00  0.00    +0.000 A 
ATOM      7  C   UNL     1       3.380   2.570  19.721  0.00  0.00    +0.000 A 
ATOM      8  C   UNL     1       4.290   2.657  18.664  0.00  0.00    +0.000 A 
ATOM      9  C   UNL     1       4.427   3.845  17.944  0.00  0.00    +0.000 A 
ATOM     10  C   UNL     1       3.633   4.947  18.297  0.00  0.00    +0.000 A 
ATOM     11  C   UNL     1       3.504   6.265  17.809  0.00  0.00    +0.000 A 
ATOM     12  C   UNL     1       2.546   6.902  18.577  0.00  0.00    +0.000 A 
ATOM     13  O   UNL     1       2.069   6.031  19.530  0.00  0.00    +0.000 OA
ATOM     14  C   UNL     1       2.735   4.837  19.356  0.00  0.00    +0.000 A 
ENDBRANCH   1  12
BRANCH   3  15
ATOM     15  C   UNL     1       0.984  10.197  19.527  0.00  0.00    +0.000 C 
BRANCH  15  16
ATOM     16  C   UNL     1       0.616  10.717  20.919  0.00  0.00    +0.000 C 
ATOM     17  C   UNL     1      -0.587  11.671  20.898  0.00  0.00    +0.000 C 
ATOM     18  C   UNL     1      -1.290  11.505  22.262  0.00  0.00    +0.000 C 
ATOM     19  C   UNL     1      -0.509  10.415  23.011  0.00  0.00    +0.000 C 
ATOM     20  C   UNL     1       0.196   9.628  21.911  0.00  0.00    +0.000 C 
BRANCH  18  21
ATOM     21  C   UNL     1      -1.363  12.778  23.035  0.00  0.00    +0.000 A 
ATOM     22  N   UNL     1      -0.374  13.616  23.269  0.00  0.00    +0.000 NA
ATOM     23  N   UNL     1      -0.865  14.677  23.990  0.00  0.00    +0.000 NA
ATOM     24  C   UNL     1      -2.141  14.457  24.198  0.00  0.00    +0.000 A 
ATOM     25  N   UNL     1      -2.496  13.273  23.630  0.00  0.00    +0.000 N 
ATOM     26  C   UNL     1      -3.804  12.678  23.664  0.00  0.00    +0.000 C 
ENDBRANCH  18  21
BRANCH  20  27
ATOM     27  O   UNL     1      -0.698   8.679  21.336  0.00  0.00    +0.000 OA
ATOM     28  H   UNL     1      -0.773   8.836  20.381  0.00  0.00    +0.000 HD
ENDBRANCH  20  27
ENDBRANCH  15  16
ENDBRANCH   3  15
TORSDOF 5
ENDMDL
MODEL 3
REMARK VINA RESULT:      -7.9      3.304      9.330
REMARK  Name = 
REMARK  7 active torsions:
REMARK  status: ('A' for Active; 'I' for Inactive)
REMARK    1  A    between atoms: C_1  and  C_2
REMARK    2  A    between atoms: C_8  and  C_9
REMARK    3  A    between atoms: N_11  and  C_12
REMARK    4  A    between atoms: C_12  and  C_13
REMARK    5  A    between atoms: C_15  and  C_16
REMARK    6  A    between atoms: N_20  and  C_21
REMARK    7  A    between atoms: C_23  and  O_24
REMARK                            x       y       z     vdW  Elec       q    Type
REMARK                         _______ _______ _______ _____ _____    ______ ____
ROOT
ATOM      1  C   UNL     1       0.621   9.975  18.803  0.00  0.00    +0.000 C 
ATOM      2  O   UNL     1       1.131  10.362  19.852  0.00  0.00    +0.000 OA
ATOM      3  N   UNL     1       1.315   9.147  17.940  0.00  0.00    +0.000 N 
ATOM      4  H   UNL     1       0.835   8.815  17.112  0.00  0.00    +0.000 HD
ENDROOT
BRANCH   1  12
ATOM      5  C   UNL     1      -3.099  10.053  14.707  0.00  0.00    +0.000 C 
ATOM      6  C   UNL     1      -3.400  10.651  16.046  0.00  0.00    +0.000 A 
ATOM      7  C   UNL     1      -4.653  11.256  16.287  0.00  0.00    +0.000 A 
ATOM      8  C   UNL     1      -4.977  11.828  17.521  0.00  0.00    +0.000 A 
ATOM      9  C   UNL     1      -4.055  11.819  18.569  0.00  0.00    +0.000 A 
ATOM     10  C   UNL     1      -2.801  11.222  18.364  0.00  0.00    +0.000 A 
ATOM     11  C   UNL     1      -1.658  11.033  19.169  0.00  0.00    +0.000 A 
ATOM     12  C   UNL     1      -0.714  10.373  18.404  0.00  0.00    +0.000 A 
ATOM     13  O   UNL     1      -1.225  10.141  17.146  0.00  0.00    +0.000 OA
ATOM     14  C   UNL     1      -2.500  10.660  17.126  0.00  0.00    +0.000 A 
ENDBRANCH   1  12
BRANCH   3  15
ATOM     15  C   UNL     1       2.675   8.733  18.237  0.00  0.00    +0.000 C 
BRANCH  15  16
ATOM     16  C   UNL     1       2.999   7.337  17.700  0.00  0.00    +0.000 C 
ATOM     17  C   UNL     1       4.508   7.081  17.581  0.00  0.00    +0.000 C 
ATOM     18  C   UNL     1       4.704   5.564  17.786  0.00  0.00    +0.000 C 
ATOM     19  C   UNL     1       3.308   4.993  18.078  0.00  0.00    +0.000 C 
ATOM     20  C   UNL     1       2.507   6.188  18.585  0.00  0.00    +0.000 C 
BRANCH  18  21
ATOM     21  C   UNL     1       5.352   4.900  16.619  0.00  0.00    +0.000 A 
ATOM     22  N   UNL     1       4.785   4.601  15.468  0.00  0.00    +0.000 NA
ATOM     23  N   UNL     1       5.731   4.027  14.654  0.00  0.00    +0.000 NA
ATOM     24  C   UNL     1       6.853   3.970  15.331  0.00  0.00    +0.000 A 
ATOM     25  N   UNL     1       6.661   4.493  16.571  0.00  0.00    +0.000 N 
ATOM     26  C   UNL     1       7.649   4.586  17.611  0.00  0.00    +0.000 C 
ENDBRANCH  18  21
BRANCH  20  27
ATOM     27  O   UNL     1       2.773   6.408  19.967  0.00  0.00    +0.000 OA
ATOM     28  H   UNL     1       2.789   7.360  20.150  0.00  0.00    +0.000 HD
ENDBRANCH  20  27
ENDBRANCH  15  16
ENDBRANCH   3  15
TORSDOF 5
ENDMDL
MODEL 4
REMARK VINA RESULT:      -7.9      1.009      1.009
REMARK  Name = 
REMARK  7 active torsions:
REMARK  status: ('A' for Active; 'I' for Inactive)
REMARK    1  A    between atoms: C_1  and  C_2
REMARK    2  A    between atoms: C_8  and  C_9
REMARK    3  A    between atoms: N_11  and  C_12
REMARK    4  A    between atoms: C_12  and  C_13
REMARK    5  A    between atoms: C_15  and  C_16
REMARK    6  A    between atoms: N_20  and  C_21
REMARK    7  A    between atoms: C_23  and  O_24
REMARK                            x       y       z     vdW  Elec       q    Type
REMARK                         _______ _______ _______ _____ _____    ______ ____
ROOT
ATOM      1  C   UNL     1       2.455   5.675  19.512  0.00  0.00    +0.000 C 
ATOM      2  O   UNL     1       1.626   4.826  19.831  0.00  0.00    +0.000 OA
ATOM      3  N   UNL     1       2.433   6.936  20.076  0.00  0.00    +0.000 N 
ATOM      4  H   UNL     1       3.167   7.585  19.817  0.00  0.00    +0.000 HD
ENDROOT
BRANCH   1  12
ATOM      5  C   UNL     1       7.438   7.123  17.589  0.00  0.00    +0.000 C 
ATOM      6  C   UNL     1       6.644   6.026  16.952  0.00  0.00    +0.000 A 
ATOM      7  C   UNL     1       7.159   5.336  15.833  0.00  0.00    +0.000 A 
ATOM      8  C   UNL     1       6.453   4.306  15.204  0.00  0.00    +0.000 A 
ATOM      9  C   UNL     1       5.196   3.922  15.672  0.00  0.00    +0.000 A 
ATOM     10  C   UNL     1       4.655   4.585  16.785  0.00  0.00    +0.000 A 
ATOM     11  C   UNL     1       3.450   4.469  17.511  0.00  0.00    +0.000 A 
ATOM     12  C   UNL     1       3.480   5.414  18.521  0.00  0.00    +0.000 A 
ATOM     13  O   UNL     1       4.660   6.119  18.455  0.00  0.00    +0.000 OA
ATOM     14  C   UNL     1       5.376   5.610  17.394  0.00  0.00    +0.000 A 
ENDBRANCH   1  12
BRANCH   3  15
ATOM     15  C   UNL     1       1.415   7.302  21.046  0.00  0.00    +0.000 C 
BRANCH  15  16
ATOM     16  C   UNL     1       1.205   8.815  21.142  0.00  0.00    +0.000 C 
ATOM     17  C   UNL     1       0.461   9.390  19.930  0.00  0.00    +0.000 C 
ATOM     18  C   UNL     1      -0.319  10.618  20.447  0.00  0.00    +0.000 C 
ATOM     19  C   UNL     1      -0.050  10.683  21.958  0.00  0.00    +0.000 C 
ATOM     20  C   UNL     1       0.354   9.261  22.335  0.00  0.00    +0.000 C 
BRANCH  18  21
ATOM     21  C   UNL     1       0.062  11.881  19.753  0.00  0.00    +0.000 A 
ATOM     22  N   UNL     1       1.211  12.140  19.161  0.00  0.00    +0.000 NA
ATOM     23  N   UNL     1       1.145  13.400  18.619  0.00  0.00    +0.000 NA
ATOM     24  C   UNL     1      -0.036  13.894  18.905  0.00  0.00    +0.000 A 
ATOM     25  N   UNL     1      -0.745  12.983  19.625  0.00  0.00    +0.000 N 
ATOM     26  C   UNL     1      -2.073  13.165  20.144  0.00  0.00    +0.000 C 
ENDBRANCH  18  21
BRANCH  20  27
ATOM     27  O   UNL     1      -0.805   8.452  22.513  0.00  0.00    +0.000 OA
ATOM     28  H   UNL     1      -0.851   8.142  23.431  0.00  0.00    +0.000 HD
ENDBRANCH  20  27
ENDBRANCH  15  16
ENDBRANCH   3  15
TORSDOF 5
ENDMDL
MODEL 5
REMARK VINA RESULT:      -7.8      3.584      8.949
REMARK  Name = 
REMARK  7 active torsions:
REMARK  status: ('A' for Active; 'I' for Inactive)
REMARK    1  A    between atoms: C_1  and  C_2
REMARK    2  A    between atoms: C_8  and  C_9
REMARK    3  A    between atoms: N_11  and  C_12
REMARK    4  A    between atoms: C_12  and  C_13
REMARK    5  A    between atoms: C_15  and  C_16
REMARK    6  A    between atoms: N_20  and  C_21
REMARK    7  A    between atoms: C_23  and  O_24
REMARK                            x       y       z     vdW  Elec       q    Type
REMARK                         _______ _______ _______ _____ _____    ______ ____
ROOT
ATOM      1  C   UNL     1       3.002   5.705  19.649  0.00  0.00    +0.000 C 
ATOM      2  O   UNL     1       2.703   4.871  20.500  0.00  0.00    +0.000 OA
ATOM      3  N   UNL     1       3.995   5.447  18.721  0.00  0.00    +0.000 N 
ATOM      4  H   UNL     1       4.171   6.146  18.009  0.00  0.00    +0.000 HD
ENDROOT
BRANCH   1  12
ATOM      5  C   UNL     1      -0.037   9.455  22.353  0.00  0.00    +0.000 C 
ATOM      6  C   UNL     1       0.397   9.676  20.938  0.00  0.00    +0.000 A 
ATOM      7  C   UNL     1       0.030  10.860  20.261  0.00  0.00    +0.000 A 
ATOM      8  C   UNL     1       0.411  11.108  18.939  0.00  0.00    +0.000 A 
ATOM      9  C   UNL     1       1.179  10.178  18.237  0.00  0.00    +0.000 A 
ATOM     10  C   UNL     1       1.564   8.992  18.882  0.00  0.00    +0.000 A 
ATOM     11  C   UNL     1       2.317   7.862  18.498  0.00  0.00    +0.000 A 
ATOM     12  C   UNL     1       2.354   7.000  19.578  0.00  0.00    +0.000 A 
ATOM     13  O   UNL     1       1.652   7.548  20.627  0.00  0.00    +0.000 OA
ATOM     14  C   UNL     1       1.171   8.765  20.199  0.00  0.00    +0.000 A 
ENDBRANCH   1  12
BRANCH   3  15
ATOM     15  C   UNL     1       4.728   4.194  18.743  0.00  0.00    +0.000 C 
BRANCH  15  16
ATOM     16  C   UNL     1       5.643   4.022  17.528  0.00  0.00    +0.000 C 
ATOM     17  C   UNL     1       5.062   4.648  16.253  0.00  0.00    +0.000 C 
ATOM     18  C   UNL     1       6.272   5.081  15.398  0.00  0.00    +0.000 C 
ATOM     19  C   UNL     1       7.519   4.747  16.230  0.00  0.00    +0.000 C 
ATOM     20  C   UNL     1       7.014   4.690  17.668  0.00  0.00    +0.000 C 
BRANCH  18  21
ATOM     21  C   UNL     1       6.297   4.429  14.058  0.00  0.00    +0.000 A 
ATOM     22  N   UNL     1       5.494   3.476  13.629  0.00  0.00    +0.000 NA
ATOM     23  N   UNL     1       5.831   3.177  12.331  0.00  0.00    +0.000 NA
ATOM     24  C   UNL     1       6.844   3.939  11.999  0.00  0.00    +0.000 A 
ATOM     25  N   UNL     1       7.180   4.731  13.052  0.00  0.00    +0.000 N 
ATOM     26  C   UNL     1       8.255   5.685  13.083  0.00  0.00    +0.000 C 
ENDBRANCH  18  21
BRANCH  20  27
ATOM     27  O   UNL     1       6.929   6.005  18.211  0.00  0.00    +0.000 OA
ATOM     28  H   UNL     1       7.202   5.994  19.142  0.00  0.00    +0.000 HD
ENDBRANCH  20  27
ENDBRANCH  15  16
ENDBRANCH   3  15
TORSDOF 5
ENDMDL
MODEL 6
REMARK VINA RESULT:      -7.8      3.076      4.089
REMARK  Name = 
REMARK  7 active torsions:
REMARK  status: ('A' for Active; 'I' for Inactive)
REMARK    1  A    between atoms: C_1  and  C_2
REMARK    2  A    between atoms: C_8  and  C_9
REMARK    3  A    between atoms: N_11  and  C_12
REMARK    4  A    between atoms: C_12  and  C_13
REMARK    5  A    between atoms: C_15  and  C_16
REMARK    6  A    between atoms: N_20  and  C_21
REMARK    7  A    between atoms: C_23  and  O_24
REMARK                            x       y       z     vdW  Elec       q    Type
REMARK                         _______ _______ _______ _____ _____    ______ ____
ROOT
ATOM      1  C   UNL     1       1.867   7.830  19.855  0.00  0.00    +0.000 C 
ATOM      2  O   UNL     1       2.208   8.742  19.106  0.00  0.00    +0.000 OA
ATOM      3  N   UNL     1       1.378   8.095  21.120  0.00  0.00    +0.000 N 
ATOM      4  H   UNL     1       1.064   7.312  21.682  0.00  0.00    +0.000 HD
ENDROOT
BRANCH   1  12
ATOM      5  C   UNL     1       1.492   2.570  21.535  0.00  0.00    +0.000 C 
ATOM      6  C   UNL     1       1.851   2.915  20.123  0.00  0.00    +0.000 A 
ATOM      7  C   UNL     1       2.107   1.890  19.186  0.00  0.00    +0.000 A 
ATOM      8  C   UNL     1       2.446   2.165  17.859  0.00  0.00    +0.000 A 
ATOM      9  C   UNL     1       2.546   3.483  17.412  0.00  0.00    +0.000 A 
ATOM     10  C   UNL     1       2.294   4.526  18.316  0.00  0.00    +0.000 A 
ATOM     11  C   UNL     1       2.300   5.934  18.222  0.00  0.00    +0.000 A 
ATOM     12  C   UNL     1       1.973   6.437  19.468  0.00  0.00    +0.000 A 
ATOM     13  O   UNL     1       1.763   5.394  20.342  0.00  0.00    +0.000 OA
ATOM     14  C   UNL     1       1.959   4.229  19.635  0.00  0.00    +0.000 A 
ENDBRANCH   1  12
BRANCH   3  15
ATOM     15  C   UNL     1       1.278   9.459  21.610  0.00  0.00    +0.000 C 
BRANCH  15  16
ATOM     16  C   UNL     1      -0.128  10.043  21.451  0.00  0.00    +0.000 C 
ATOM     17  C   UNL     1      -0.387  11.233  22.386  0.00  0.00    +0.000 C 
ATOM     18  C   UNL     1      -1.400  12.140  21.656  0.00  0.00    +0.000 C 
ATOM     19  C   UNL     1      -1.655  11.478  20.293  0.00  0.00    +0.000 C 
ATOM     20  C   UNL     1      -0.426  10.606  20.058  0.00  0.00    +0.000 C 
BRANCH  18  21
ATOM     21  C   UNL     1      -2.660  12.339  22.429  0.00  0.00    +0.000 A 
ATOM     22  N   UNL     1      -3.014  11.715  23.534  0.00  0.00    +0.000 NA
ATOM     23  N   UNL     1      -4.229  12.211  23.942  0.00  0.00    +0.000 NA
ATOM     24  C   UNL     1      -4.601  13.114  23.068  0.00  0.00    +0.000 A 
ATOM     25  N   UNL     1      -3.657  13.220  22.095  0.00  0.00    +0.000 N 
ATOM     26  C   UNL     1      -3.717  14.088  20.950  0.00  0.00    +0.000 C 
ENDBRANCH  18  21
BRANCH  20  27
ATOM     27  O   UNL     1       0.645  11.394  19.546  0.00  0.00    +0.000 OA
ATOM     28  H   UNL     1       1.485  10.920  19.659  0.00  0.00    +0.000 HD
ENDBRANCH  20  27
ENDBRANCH  15  16
ENDBRANCH   3  15
TORSDOF 5
ENDMDL
MODEL 7
REMARK VINA RESULT:      -7.7      2.251      2.821
REMARK  Name = 
REMARK  7 active torsions:
REMARK  status: ('A' for Active; 'I' for Inactive)
REMARK    1  A    between atoms: C_1  and  C_2
REMARK    2  A    between atoms: C_8  and  C_9
REMARK    3  A    between atoms: N_11  and  C_12
REMARK    4  A    between atoms: C_12  and  C_13
REMARK    5  A    between atoms: C_15  and  C_16
REMARK    6  A    between atoms: N_20  and  C_21
REMARK    7  A    between atoms: C_23  and  O_24
REMARK                            x       y       z     vdW  Elec       q    Type
REMARK                         _______ _______ _______ _____ _____    ______ ____
ROOT
ATOM      1  C   UNL     1       2.376   7.037  19.369  0.00  0.00    +0.000 C 
ATOM      2  O   UNL     1       1.841   6.487  20.329  0.00  0.00    +0.000 OA
ATOM      3  N   UNL     1       2.068   8.343  19.037  0.00  0.00    +0.000 N 
ATOM      4  H   UNL     1       2.571   8.767  18.267  0.00  0.00    +0.000 HD
ENDROOT
BRANCH   1  12
ATOM      5  C   UNL     1       7.536   7.039  17.370  0.00  0.00    +0.000 C 
ATOM      6  C   UNL     1       6.556   5.970  17.001  0.00  0.00    +0.000 A 
ATOM      7  C   UNL     1       6.937   4.933  16.122  0.00  0.00    +0.000 A 
ATOM      8  C   UNL     1       6.056   3.914  15.748  0.00  0.00    +0.000 A 
ATOM      9  C   UNL     1       4.751   3.892  16.240  0.00  0.00    +0.000 A 
ATOM     10  C   UNL     1       4.340   4.906  17.119  0.00  0.00    +0.000 A 
ATOM     11  C   UNL     1       3.135   5.196  17.794  0.00  0.00    +0.000 A 
ATOM     12  C   UNL     1       3.336   6.351  18.527  0.00  0.00    +0.000 A 
ATOM     13  O   UNL     1       4.624   6.797  18.336  0.00  0.00    +0.000 OA
ATOM     14  C   UNL     1       5.235   5.912  17.476  0.00  0.00    +0.000 A 
ENDBRANCH   1  12
BRANCH   3  15
ATOM     15  C   UNL     1       1.085   9.094  19.798  0.00  0.00    +0.000 C 
BRANCH  15  16
ATOM     16  C   UNL     1       0.281  10.066  18.931  0.00  0.00    +0.000 C 
ATOM     17  C   UNL     1      -1.222  10.034  19.238  0.00  0.00    +0.000 C 
ATOM     18  C   UNL     1      -1.754  11.450  18.930  0.00  0.00    +0.000 C 
ATOM     19  C   UNL     1      -0.531  12.279  18.509  0.00  0.00    +0.000 C 
ATOM     20  C   UNL     1       0.657  11.539  19.117  0.00  0.00    +0.000 C 
BRANCH  18  21
ATOM     21  C   UNL     1      -2.822  11.454  17.890  0.00  0.00    +0.000 A 
ATOM     22  N   UNL     1      -2.681  11.156  16.614  0.00  0.00    +0.000 NA
ATOM     23  N   UNL     1      -3.910  11.253  16.008  0.00  0.00    +0.000 NA
ATOM     24  C   UNL     1      -4.774  11.626  16.921  0.00  0.00    +0.000 A 
ATOM     25  N   UNL     1      -4.136  11.778  18.113  0.00  0.00    +0.000 N 
ATOM     26  C   UNL     1      -4.741  12.200  19.347  0.00  0.00    +0.000 C 
ENDBRANCH  18  21
BRANCH  20  27
ATOM     27  O   UNL     1       0.809  11.896  20.488  0.00  0.00    +0.000 OA
ATOM     28  H   UNL     1       0.796  12.862  20.579  0.00  0.00    +0.000 HD
ENDBRANCH  20  27
ENDBRANCH  15  16
ENDBRANCH   3  15
TORSDOF 5
ENDMDL
MODEL 8
REMARK VINA RESULT:      -7.7      3.132      9.321
REMARK  Name = 
REMARK  7 active torsions:
REMARK  status: ('A' for Active; 'I' for Inactive)
REMARK    1  A    between atoms: C_1  and  C_2
REMARK    2  A    between atoms: C_8  and  C_9
REMARK    3  A    between atoms: N_11  and  C_12
REMARK    4  A    between atoms: C_12  and  C_13
REMARK    5  A    between atoms: C_15  and  C_16
REMARK    6  A    between atoms: N_20  and  C_21
REMARK    7  A    between atoms: C_23  and  O_24
REMARK                            x       y       z     vdW  Elec       q    Type
REMARK                         _______ _______ _______ _____ _____    ______ ____
ROOT
ATOM      1  C   UNL     1       0.389   9.904  18.786  0.00  0.00    +0.000 C 
ATOM      2  O   UNL     1       0.739   9.779  19.957  0.00  0.00    +0.000 OA
ATOM      3  N   UNL     1       1.267   9.642  17.751  0.00  0.00    +0.000 N 
ATOM      4  H   UNL     1       0.918   9.712  16.803  0.00  0.00    +0.000 HD
ENDROOT
BRANCH   1  12
ATOM      5  C   UNL     1      -4.067  12.779  20.368  0.00  0.00    +0.000 C 
ATOM      6  C   UNL     1      -4.018  12.079  19.046  0.00  0.00    +0.000 A 
ATOM      7  C   UNL     1      -5.125  12.139  18.171  0.00  0.00    +0.000 A 
ATOM      8  C   UNL     1      -5.125  11.500  16.927  0.00  0.00    +0.000 A 
ATOM      9  C   UNL     1      -4.013  10.771  16.506  0.00  0.00    +0.000 A 
ATOM     10  C   UNL     1      -2.894  10.694  17.351  0.00  0.00    +0.000 A 
ATOM     11  C   UNL     1      -1.633  10.067  17.259  0.00  0.00    +0.000 A 
ATOM     12  C   UNL     1      -0.943  10.346  18.425  0.00  0.00    +0.000 A 
ATOM     13  O   UNL     1      -1.727  11.125  19.245  0.00  0.00    +0.000 OA
ATOM     14  C   UNL     1      -2.917  11.337  18.586  0.00  0.00    +0.000 A 
ENDBRANCH   1  12
BRANCH   3  15
ATOM     15  C   UNL     1       2.636   9.236  18.020  0.00  0.00    +0.000 C 
BRANCH  15  16
ATOM     16  C   UNL     1       2.899   7.771  17.664  0.00  0.00    +0.000 C 
ATOM     17  C   UNL     1       4.392   7.412  17.688  0.00  0.00    +0.000 C 
ATOM     18  C   UNL     1       4.469   5.920  18.072  0.00  0.00    +0.000 C 
ATOM     19  C   UNL     1       3.020   5.471  18.319  0.00  0.00    +0.000 C 
ATOM     20  C   UNL     1       2.270   6.762  18.630  0.00  0.00    +0.000 C 
BRANCH  18  21
ATOM     21  C   UNL     1       5.147   5.089  17.036  0.00  0.00    +0.000 A 
ATOM     22  N   UNL     1       4.577   4.483  16.014  0.00  0.00    +0.000 NA
ATOM     23  N   UNL     1       5.554   3.850  15.285  0.00  0.00    +0.000 NA
ATOM     24  C   UNL     1       6.699   4.066  15.886  0.00  0.00    +0.000 A 
ATOM     25  N   UNL     1       6.493   4.826  16.995  0.00  0.00    +0.000 N 
ATOM     26  C   UNL     1       7.501   5.252  17.927  0.00  0.00    +0.000 C 
ENDBRANCH  18  21
BRANCH  20  27
ATOM     27  O   UNL     1       2.457   7.122  19.996  0.00  0.00    +0.000 OA
ATOM     28  H   UNL     1       1.943   7.920  20.198  0.00  0.00    +0.000 HD
ENDBRANCH  20  27
ENDBRANCH  15  16
ENDBRANCH   3  15
TORSDOF 5
ENDMDL
MODEL 9
REMARK VINA RESULT:      -7.7      3.077      4.343
REMARK  Name = 
REMARK  7 active torsions:
REMARK  status: ('A' for Active; 'I' for Inactive)
REMARK    1  A    between atoms: C_1  and  C_2
REMARK    2  A    between atoms: C_8  and  C_9
REMARK    3  A    between atoms: N_11  and  C_12
REMARK    4  A    between atoms: C_12  and  C_13
REMARK    5  A    between atoms: C_15  and  C_16
REMARK    6  A    between atoms: N_20  and  C_21
REMARK    7  A    between atoms: C_23  and  O_24
REMARK                            x       y       z     vdW  Elec       q    Type
REMARK                         _______ _______ _______ _____ _____    ______ ____
ROOT
ATOM      1  C   UNL     1       1.760   9.218  18.395  0.00  0.00    +0.000 C 
ATOM      2  O   UNL     1       1.960   9.997  17.468  0.00  0.00    +0.000 OA
ATOM      3  N   UNL     1       0.909   9.551  19.432  0.00  0.00    +0.000 N 
ATOM      4  H   UNL     1       0.738   8.855  20.148  0.00  0.00    +0.000 HD
ENDROOT
BRANCH   1  12
ATOM      5  C   UNL     1       2.178   4.451  21.176  0.00  0.00    +0.000 C 
ATOM      6  C   UNL     1       3.008   4.721  19.960  0.00  0.00    +0.000 A 
ATOM      7  C   UNL     1       3.925   3.751  19.499  0.00  0.00    +0.000 A 
ATOM      8  C   UNL     1       4.721   3.960  18.369  0.00  0.00    +0.000 A 
ATOM      9  C   UNL     1       4.632   5.153  17.651  0.00  0.00    +0.000 A 
ATOM     10  C   UNL     1       3.728   6.136  18.080  0.00  0.00    +0.000 A 
ATOM     11  C   UNL     1       3.379   7.423  17.616  0.00  0.00    +0.000 A 
ATOM     12  C   UNL     1       2.411   7.924  18.468  0.00  0.00    +0.000 A 
ATOM     13  O   UNL     1       2.141   6.999  19.450  0.00  0.00    +0.000 OA
ATOM     14  C   UNL     1       2.946   5.907  19.210  0.00  0.00    +0.000 A 
ENDBRANCH   1  12
BRANCH   3  15
ATOM     15  C   UNL     1       0.246  10.843  19.466  0.00  0.00    +0.000 C 
BRANCH  15  16
ATOM     16  C   UNL     1      -1.278  10.730  19.376  0.00  0.00    +0.000 C 
ATOM     17  C   UNL     1      -1.971  12.096  19.271  0.00  0.00    +0.000 C 
ATOM     18  C   UNL     1      -3.264  11.861  18.463  0.00  0.00    +0.000 C 
ATOM     19  C   UNL     1      -3.254  10.375  18.071  0.00  0.00    +0.000 C 
ATOM     20  C   UNL     1      -1.784   9.972  18.145  0.00  0.00    +0.000 C 
BRANCH  18  21
ATOM     21  C   UNL     1      -4.495  12.235  19.217  0.00  0.00    +0.000 A 
ATOM     22  N   UNL     1      -4.618  12.336  20.525  0.00  0.00    +0.000 NA
ATOM     23  N   UNL     1      -5.901  12.734  20.811  0.00  0.00    +0.000 NA
ATOM     24  C   UNL     1      -6.542  12.851  19.673  0.00  0.00    +0.000 A 
ATOM     25  N   UNL     1      -5.706  12.536  18.647  0.00  0.00    +0.000 N 
ATOM     26  C   UNL     1      -6.048  12.523  17.251  0.00  0.00    +0.000 C 
ENDBRANCH  18  21
BRANCH  20  27
ATOM     27  O   UNL     1      -1.110  10.356  16.950  0.00  0.00    +0.000 OA
ATOM     28  H   UNL     1      -1.035  11.323  16.911  0.00  0.00    +0.000 HD
ENDBRANCH  20  27
ENDBRANCH  15  16
ENDBRANCH   3  15
TORSDOF 5
ENDMDL
