MODEL 1
REMARK VINA RESULT:      -9.4      0.000      0.000
REMARK  Name = 
REMARK  3 active torsions:
REMARK  status: ('A' for Active; 'I' for Inactive)
REMARK    1  A    between atoms: C_2  and  C_16
REMARK    2  A    between atoms: N_3  and  C_4
REMARK    3  A    between atoms: C_9  and  C_10
REMARK                            x       y       z     vdW  Elec       q    Type
REMARK                         _______ _______ _______ _____ _____    ______ ____
ROOT
ATOM      1  O   UNL     1       2.136   8.818  17.398  0.00  0.00    +0.000 OA
ATOM      2  C   UNL     1       2.112   8.222  18.467  0.00  0.00    +0.000 C 
ATOM      3  N   UNL     1       2.735   7.017  18.750  0.00  0.00    +0.000 N 
ATOM      4  H   UNL     1       2.827   6.817  19.744  0.00  0.00    +0.000 HD
ENDROOT
BRANCH   2   5
ATOM      5  C   UNL     1       1.432   8.830  19.656  0.00  0.00    +0.000 A 
ATOM      6  C   UNL     1       1.498   8.186  20.880  0.00  0.00    +0.000 A 
ATOM      7  C   UNL     1       0.846   8.774  21.957  0.00  0.00    +0.000 A 
ATOM      8  C   UNL     1       0.108   9.948  21.766  0.00  0.00    +0.000 A 
ATOM      9  C   UNL     1      -0.630  10.519  22.812  0.00  0.00    +0.000 A 
ATOM     10  C   UNL     1      -1.399  11.663  22.591  0.00  0.00    +0.000 A 
ATOM     11  C   UNL     1      -1.397  12.255  21.335  0.00  0.00    +0.000 A 
ATOM     12  C   UNL     1      -0.642  11.694  20.300  0.00  0.00    +0.000 A 
ATOM     13  C   UNL     1       0.099  10.534  20.479  0.00  0.00    +0.000 A 
ATOM     14  N   UNL     1       0.758   9.995  19.438  0.00  0.00    +0.000 NA
ENDBRANCH   2   5
BRANCH   3  15
ATOM     15  C   UNL     1       3.595   6.358  17.848  0.00  0.00    +0.000 A 
ATOM     16  C   UNL     1       4.363   7.141  16.971  0.00  0.00    +0.000 A 
ATOM     17  C   UNL     1       5.174   6.545  16.009  0.00  0.00    +0.000 A 
ATOM     18  C   UNL     1       5.263   5.163  15.950  0.00  0.00    +0.000 A 
ATOM     19  C   UNL     1       4.515   4.377  16.833  0.00  0.00    +0.000 A 
ATOM     20  C   UNL     1       3.633   4.943  17.781  0.00  0.00    +0.000 A 
BRANCH  20  21
ATOM     21  C   UNL     1       2.818   4.046  18.651  0.00  0.00    +0.000 A 
ATOM     22  C   UNL     1       3.214   3.683  19.952  0.00  0.00    +0.000 A 
ATOM     23  C   UNL     1       2.379   2.939  20.793  0.00  0.00    +0.000 A 
ATOM     24  C   UNL     1       1.156   2.474  20.326  0.00  0.00    +0.000 A 
ATOM     25  C   UNL     1       0.771   2.751  19.019  0.00  0.00    +0.000 A 
ATOM     26  C   UNL     1       1.587   3.536  18.198  0.00  0.00    +0.000 A 
ENDBRANCH  20  21
ENDBRANCH   3  15
TORSDOF 3
ENDMDL
MODEL 2
REMARK VINA RESULT:      -9.3      0.852      1.841
REMARK  Name = 
REMARK  3 active torsions:
REMARK  status: ('A' for Active; 'I' for Inactive)
REMARK    1  A    between atoms: C_2  and  C_16
REMARK    2  A    between atoms: N_3  and  C_4
REMARK    3  A    between atoms: C_9  and  C_10
REMARK                            x       y       z     vdW  Elec       q    Type
REMARK                         _______ _______ _______ _____ _____    ______ ____
ROOT
ATOM      1  O   UNL     1       2.399   8.898  16.949  0.00  0.00    +0.000 OA
ATOM      2  C   UNL     1       2.126   8.464  18.060  0.00  0.00    +0.000 C 
ATOM      3  N   UNL     1       2.602   7.289  18.623  0.00  0.00    +0.000 N 
ATOM      4  H   UNL     1       2.483   7.231  19.632  0.00  0.00    +0.000 HD
ENDROOT
BRANCH   2   5
ATOM      5  C   UNL     1       1.267   9.260  18.994  0.00  0.00    +0.000 A 
ATOM      6  C   UNL     1       0.705  10.448  18.557  0.00  0.00    +0.000 A 
ATOM      7  C   UNL     1      -0.077  11.165  19.455  0.00  0.00    +0.000 A 
ATOM      8  C   UNL     1      -0.224  10.705  20.768  0.00  0.00    +0.000 A 
ATOM      9  C   UNL     1      -0.935  11.448  21.721  0.00  0.00    +0.000 A 
ATOM     10  C   UNL     1      -1.031  10.998  23.039  0.00  0.00    +0.000 A 
ATOM     11  C   UNL     1      -0.450   9.786  23.391  0.00  0.00    +0.000 A 
ATOM     12  C   UNL     1       0.239   9.038  22.431  0.00  0.00    +0.000 A 
ATOM     13  C   UNL     1       0.387   9.481  21.124  0.00  0.00    +0.000 A 
ATOM     14  N   UNL     1       1.113   8.758  20.253  0.00  0.00    +0.000 NA
ENDBRANCH   2   5
BRANCH   3  15
ATOM     15  C   UNL     1       3.577   6.476  18.011  0.00  0.00    +0.000 A 
ATOM     16  C   UNL     1       4.469   7.076  17.106  0.00  0.00    +0.000 A 
ATOM     17  C   UNL     1       5.405   6.311  16.416  0.00  0.00    +0.000 A 
ATOM     18  C   UNL     1       5.491   4.949  16.662  0.00  0.00    +0.000 A 
ATOM     19  C   UNL     1       4.618   4.348  17.576  0.00  0.00    +0.000 A 
ATOM     20  C   UNL     1       3.613   5.080  18.248  0.00  0.00    +0.000 A 
BRANCH  20  21
ATOM     21  C   UNL     1       2.675   4.366  19.162  0.00  0.00    +0.000 A 
ATOM     22  C   UNL     1       1.560   3.645  18.696  0.00  0.00    +0.000 A 
ATOM     23  C   UNL     1       0.763   2.886  19.560  0.00  0.00    +0.000 A 
ATOM     24  C   UNL     1       1.017   2.890  20.926  0.00  0.00    +0.000 A 
ATOM     25  C   UNL     1       2.065   3.655  21.426  0.00  0.00    +0.000 A 
ATOM     26  C   UNL     1       2.888   4.374  20.554  0.00  0.00    +0.000 A 
ENDBRANCH  20  21
ENDBRANCH   3  15
TORSDOF 3
ENDMDL
MODEL 3
REMARK VINA RESULT:      -9.1      0.868      1.597
REMARK  Name = 
REMARK  3 active torsions:
REMARK  status: ('A' for Active; 'I' for Inactive)
REMARK    1  A    between atoms: C_2  and  C_16
REMARK    2  A    between atoms: N_3  and  C_4
REMARK    3  A    between atoms: C_9  and  C_10
REMARK                            x       y       z     vdW  Elec       q    Type
REMARK                         _______ _______ _______ _____ _____    ______ ____
ROOT
ATOM      1  O   UNL     1       2.613   8.715  16.895  0.00  0.00    +0.000 OA
ATOM      2  C   UNL     1       2.363   8.304  18.020  0.00  0.00    +0.000 C 
ATOM      3  N   UNL     1       2.848   7.140  18.598  0.00  0.00    +0.000 N 
ATOM      4  H   UNL     1       2.750   7.103  19.610  0.00  0.00    +0.000 HD
ENDROOT
BRANCH   2   5
ATOM      5  C   UNL     1       1.525   9.122  18.955  0.00  0.00    +0.000 A 
ATOM      6  C   UNL     1       1.042  10.351  18.539  0.00  0.00    +0.000 A 
ATOM      7  C   UNL     1       0.278  11.086  19.437  0.00  0.00    +0.000 A 
ATOM      8  C   UNL     1       0.069  10.598  20.732  0.00  0.00    +0.000 A 
ATOM      9  C   UNL     1      -0.625  11.354  21.688  0.00  0.00    +0.000 A 
ATOM     10  C   UNL     1      -0.783  10.873  22.989  0.00  0.00    +0.000 A 
ATOM     11  C   UNL     1      -0.281   9.621  23.319  0.00  0.00    +0.000 A 
ATOM     12  C   UNL     1       0.391   8.862  22.356  0.00  0.00    +0.000 A 
ATOM     13  C   UNL     1       0.600   9.332  21.067  0.00  0.00    +0.000 A 
ATOM     14  N   UNL     1       1.308   8.594  20.194  0.00  0.00    +0.000 NA
ENDBRANCH   2   5
BRANCH   3  15
ATOM     15  C   UNL     1       3.809   6.312  17.983  0.00  0.00    +0.000 A 
ATOM     16  C   UNL     1       4.759   6.912  17.139  0.00  0.00    +0.000 A 
ATOM     17  C   UNL     1       5.686   6.137  16.448  0.00  0.00    +0.000 A 
ATOM     18  C   UNL     1       5.703   4.763  16.632  0.00  0.00    +0.000 A 
ATOM     19  C   UNL     1       4.772   4.162  17.485  0.00  0.00    +0.000 A 
ATOM     20  C   UNL     1       3.775   4.907  18.155  0.00  0.00    +0.000 A 
BRANCH  20  21
ATOM     21  C   UNL     1       2.774   4.196  19.002  0.00  0.00    +0.000 A 
ATOM     22  C   UNL     1       2.767   4.281  20.407  0.00  0.00    +0.000 A 
ATOM     23  C   UNL     1       1.748   3.704  21.173  0.00  0.00    +0.000 A 
ATOM     24  C   UNL     1       0.750   2.960  20.556  0.00  0.00    +0.000 A 
ATOM     25  C   UNL     1       0.773   2.793  19.176  0.00  0.00    +0.000 A 
ATOM     26  C   UNL     1       1.765   3.412  18.410  0.00  0.00    +0.000 A 
ENDBRANCH  20  21
ENDBRANCH   3  15
TORSDOF 3
ENDMDL
MODEL 4
REMARK VINA RESULT:      -9.1      1.928      3.848
REMARK  Name = 
REMARK  3 active torsions:
REMARK  status: ('A' for Active; 'I' for Inactive)
REMARK    1  A    between atoms: C_2  and  C_16
REMARK    2  A    between atoms: N_3  and  C_4
REMARK    3  A    between atoms: C_9  and  C_10
REMARK                            x       y       z     vdW  Elec       q    Type
REMARK                         _______ _______ _______ _____ _____    ______ ____
ROOT
ATOM      1  O   UNL     1       2.389   6.295  20.481  0.00  0.00    +0.000 OA
ATOM      2  C   UNL     1       2.302   6.790  19.366  0.00  0.00    +0.000 C 
ATOM      3  N   UNL     1       2.493   6.135  18.158  0.00  0.00    +0.000 N 
ATOM      4  H   UNL     1       2.122   6.631  17.350  0.00  0.00    +0.000 HD
ENDROOT
BRANCH   2   5
ATOM      5  C   UNL     1       1.871   8.216  19.203  0.00  0.00    +0.000 A 
ATOM      6  C   UNL     1       2.195   8.897  18.041  0.00  0.00    +0.000 A 
ATOM      7  C   UNL     1       1.788  10.221  17.931  0.00  0.00    +0.000 A 
ATOM      8  C   UNL     1       1.125  10.834  18.999  0.00  0.00    +0.000 A 
ATOM      9  C   UNL     1       0.777  12.192  18.953  0.00  0.00    +0.000 A 
ATOM     10  C   UNL     1       0.159  12.800  20.047  0.00  0.00    +0.000 A 
ATOM     11  C   UNL     1      -0.145  12.040  21.169  0.00  0.00    +0.000 A 
ATOM     12  C   UNL     1       0.184  10.681  21.201  0.00  0.00    +0.000 A 
ATOM     13  C   UNL     1       0.837  10.059  20.146  0.00  0.00    +0.000 A 
ATOM     14  N   UNL     1       1.190   8.766  20.248  0.00  0.00    +0.000 NA
ENDBRANCH   2   5
BRANCH   3  15
ATOM     15  C   UNL     1       2.710   4.746  18.055  0.00  0.00    +0.000 A 
ATOM     16  C   UNL     1       1.590   3.899  18.041  0.00  0.00    +0.000 A 
ATOM     17  C   UNL     1       1.744   2.516  18.015  0.00  0.00    +0.000 A 
ATOM     18  C   UNL     1       3.017   1.970  17.952  0.00  0.00    +0.000 A 
ATOM     19  C   UNL     1       4.137   2.809  17.948  0.00  0.00    +0.000 A 
ATOM     20  C   UNL     1       4.023   4.215  18.037  0.00  0.00    +0.000 A 
BRANCH  20  21
ATOM     21  C   UNL     1       5.259   5.048  18.089  0.00  0.00    +0.000 A 
ATOM     22  C   UNL     1       6.093   5.102  19.223  0.00  0.00    +0.000 A 
ATOM     23  C   UNL     1       7.308   5.795  19.209  0.00  0.00    +0.000 A 
ATOM     24  C   UNL     1       7.685   6.516  18.082  0.00  0.00    +0.000 A 
ATOM     25  C   UNL     1       6.846   6.545  16.974  0.00  0.00    +0.000 A 
ATOM     26  C   UNL     1       5.655   5.812  16.975  0.00  0.00    +0.000 A 
ENDBRANCH  20  21
ENDBRANCH   3  15
TORSDOF 3
ENDMDL
MODEL 5
REMARK VINA RESULT:      -8.9      0.647      1.050
REMARK  Name = 
REMARK  3 active torsions:
REMARK  status: ('A' for Active; 'I' for Inactive)
REMARK    1  A    between atoms: C_2  and  C_16
REMARK    2  A    between atoms: N_3  and  C_4
REMARK    3  A    between atoms: C_9  and  C_10
REMARK                            x       y       z     vdW  Elec       q    Type
REMARK                         _______ _______ _______ _____ _____    ______ ____
ROOT
ATOM      1  O   UNL     1       2.076   8.570  17.269  0.00  0.00    +0.000 OA
ATOM      2  C   UNL     1       2.217   8.002  18.343  0.00  0.00    +0.000 C 
ATOM      3  N   UNL     1       3.003   6.886  18.586  0.00  0.00    +0.000 N 
ATOM      4  H   UNL     1       3.205   6.723  19.571  0.00  0.00    +0.000 HD
ENDROOT
BRANCH   2   5
ATOM      5  C   UNL     1       1.577   8.554  19.580  0.00  0.00    +0.000 A 
ATOM      6  C   UNL     1       1.584   7.804  20.744  0.00  0.00    +0.000 A 
ATOM      7  C   UNL     1       0.971   8.344  21.868  0.00  0.00    +0.000 A 
ATOM      8  C   UNL     1       0.325   9.583  21.778  0.00  0.00    +0.000 A 
ATOM      9  C   UNL     1      -0.375  10.116  22.870  0.00  0.00    +0.000 A 
ATOM     10  C   UNL     1      -1.054  11.329  22.749  0.00  0.00    +0.000 A 
ATOM     11  C   UNL     1      -0.997  12.026  21.549  0.00  0.00    +0.000 A 
ATOM     12  C   UNL     1      -0.279  11.502  20.470  0.00  0.00    +0.000 A 
ATOM     13  C   UNL     1       0.371  10.277  20.548  0.00  0.00    +0.000 A 
ATOM     14  N   UNL     1       0.995   9.783  19.464  0.00  0.00    +0.000 NA
ENDBRANCH   2   5
BRANCH   3  15
ATOM     15  C   UNL     1       3.853   6.311  17.620  0.00  0.00    +0.000 A 
ATOM     16  C   UNL     1       4.686   7.164  16.878  0.00  0.00    +0.000 A 
ATOM     17  C   UNL     1       5.493   6.663  15.860  0.00  0.00    +0.000 A 
ATOM     18  C   UNL     1       5.511   5.299  15.610  0.00  0.00    +0.000 A 
ATOM     19  C   UNL     1       4.697   4.442  16.357  0.00  0.00    +0.000 A 
ATOM     20  C   UNL     1       3.818   4.920  17.356  0.00  0.00    +0.000 A 
BRANCH  20  21
ATOM     21  C   UNL     1       2.932   3.958  18.073  0.00  0.00    +0.000 A 
ATOM     22  C   UNL     1       1.528   4.064  18.063  0.00  0.00    +0.000 A 
ATOM     23  C   UNL     1       0.713   3.085  18.642  0.00  0.00    +0.000 A 
ATOM     24  C   UNL     1       1.285   2.012  19.314  0.00  0.00    +0.000 A 
ATOM     25  C   UNL     1       2.669   1.921  19.409  0.00  0.00    +0.000 A 
ATOM     26  C   UNL     1       3.480   2.876  18.787  0.00  0.00    +0.000 A 
ENDBRANCH  20  21
ENDBRANCH   3  15
TORSDOF 3
ENDMDL
MODEL 6
REMARK VINA RESULT:      -8.8      1.872      3.876
REMARK  Name = 
REMARK  3 active torsions:
REMARK  status: ('A' for Active; 'I' for Inactive)
REMARK    1  A    between atoms: C_2  and  C_16
REMARK    2  A    between atoms: N_3  and  C_4
REMARK    3  A    between atoms: C_9  and  C_10
REMARK                            x       y       z     vdW  Elec       q    Type
REMARK                         _______ _______ _______ _____ _____    ______ ____
ROOT
ATOM      1  O   UNL     1       2.372   5.619  21.018  0.00  0.00    +0.000 OA
ATOM      2  C   UNL     1       2.162   6.266  20.002  0.00  0.00    +0.000 C 
ATOM      3  N   UNL     1       2.303   5.817  18.697  0.00  0.00    +0.000 N 
ATOM      4  H   UNL     1       1.834   6.395  18.003  0.00  0.00    +0.000 HD
ENDROOT
BRANCH   2   5
ATOM      5  C   UNL     1       1.618   7.659  20.091  0.00  0.00    +0.000 A 
ATOM      6  C   UNL     1       1.845   8.547  19.053  0.00  0.00    +0.000 A 
ATOM      7  C   UNL     1       1.334   9.833  19.177  0.00  0.00    +0.000 A 
ATOM      8  C   UNL     1       0.666  10.205  20.349  0.00  0.00    +0.000 A 
ATOM      9  C   UNL     1       0.214  11.519  20.539  0.00  0.00    +0.000 A 
ATOM     10  C   UNL     1      -0.408  11.885  21.734  0.00  0.00    +0.000 A 
ATOM     11  C   UNL     1      -0.611  10.927  22.719  0.00  0.00    +0.000 A 
ATOM     12  C   UNL     1      -0.178   9.613  22.515  0.00  0.00    +0.000 A 
ATOM     13  C   UNL     1       0.481   9.230  21.355  0.00  0.00    +0.000 A 
ATOM     14  N   UNL     1       0.936   7.971  21.230  0.00  0.00    +0.000 NA
ENDBRANCH   2   5
BRANCH   3  15
ATOM     15  C   UNL     1       2.611   4.482  18.366  0.00  0.00    +0.000 A 
ATOM     16  C   UNL     1       1.596   3.518  18.483  0.00  0.00    +0.000 A 
ATOM     17  C   UNL     1       1.860   2.173  18.241  0.00  0.00    +0.000 A 
ATOM     18  C   UNL     1       3.128   1.787  17.831  0.00  0.00    +0.000 A 
ATOM     19  C   UNL     1       4.139   2.745  17.695  0.00  0.00    +0.000 A 
ATOM     20  C   UNL     1       3.926   4.110  17.993  0.00  0.00    +0.000 A 
BRANCH  20  21
ATOM     21  C   UNL     1       5.064   5.069  17.886  0.00  0.00    +0.000 A 
ATOM     22  C   UNL     1       5.114   6.085  16.914  0.00  0.00    +0.000 A 
ATOM     23  C   UNL     1       6.131   7.046  16.907  0.00  0.00    +0.000 A 
ATOM     24  C   UNL     1       7.167   6.969  17.829  0.00  0.00    +0.000 A 
ATOM     25  C   UNL     1       7.187   5.931  18.754  0.00  0.00    +0.000 A 
ATOM     26  C   UNL     1       6.143   5.001  18.788  0.00  0.00    +0.000 A 
ENDBRANCH  20  21
ENDBRANCH   3  15
TORSDOF 3
ENDMDL
MODEL 7
REMARK VINA RESULT:      -8.6      1.972      3.757
REMARK  Name = 
REMARK  3 active torsions:
REMARK  status: ('A' for Active; 'I' for Inactive)
REMARK    1  A    between atoms: C_2  and  C_16
REMARK    2  A    between atoms: N_3  and  C_4
REMARK    3  A    between atoms: C_9  and  C_10
REMARK                            x       y       z     vdW  Elec       q    Type
REMARK                         _______ _______ _______ _____ _____    ______ ____
ROOT
ATOM      1  O   UNL     1       1.965   5.558  21.167  0.00  0.00    +0.000 OA
ATOM      2  C   UNL     1       2.019   6.359  20.243  0.00  0.00    +0.000 C 
ATOM      3  N   UNL     1       2.359   6.077  18.929  0.00  0.00    +0.000 N 
ATOM      4  H   UNL     1       2.093   6.799  18.264  0.00  0.00    +0.000 HD
ENDROOT
BRANCH   2   5
ATOM      5  C   UNL     1       1.612   7.786  20.455  0.00  0.00    +0.000 A 
ATOM      6  C   UNL     1       1.152   8.186  21.698  0.00  0.00    +0.000 A 
ATOM      7  C   UNL     1       0.774   9.514  21.853  0.00  0.00    +0.000 A 
ATOM      8  C   UNL     1       0.815  10.380  20.754  0.00  0.00    +0.000 A 
ATOM      9  C   UNL     1       0.360  11.702  20.856  0.00  0.00    +0.000 A 
ATOM     10  C   UNL     1       0.363  12.538  19.739  0.00  0.00    +0.000 A 
ATOM     11  C   UNL     1       0.857  12.062  18.531  0.00  0.00    +0.000 A 
ATOM     12  C   UNL     1       1.330  10.749  18.440  0.00  0.00    +0.000 A 
ATOM     13  C   UNL     1       1.300   9.882  19.523  0.00  0.00    +0.000 A 
ATOM     14  N   UNL     1       1.706   8.609  19.371  0.00  0.00    +0.000 NA
ENDBRANCH   2   5
BRANCH   3  15
ATOM     15  C   UNL     1       2.587   4.771  18.451  0.00  0.00    +0.000 A 
ATOM     16  C   UNL     1       1.504   3.876  18.423  0.00  0.00    +0.000 A 
ATOM     17  C   UNL     1       1.684   2.553  18.030  0.00  0.00    +0.000 A 
ATOM     18  C   UNL     1       2.936   2.126  17.615  0.00  0.00    +0.000 A 
ATOM     19  C   UNL     1       4.016   3.017  17.623  0.00  0.00    +0.000 A 
ATOM     20  C   UNL     1       3.887   4.350  18.075  0.00  0.00    +0.000 A 
BRANCH  20  21
ATOM     21  C   UNL     1       5.091   5.229  18.116  0.00  0.00    +0.000 A 
ATOM     22  C   UNL     1       6.096   5.097  19.092  0.00  0.00    +0.000 A 
ATOM     23  C   UNL     1       7.273   5.852  19.042  0.00  0.00    +0.000 A 
ATOM     24  C   UNL     1       7.440   6.815  18.055  0.00  0.00    +0.000 A 
ATOM     25  C   UNL     1       6.430   7.024  17.122  0.00  0.00    +0.000 A 
ATOM     26  C   UNL     1       5.277   6.233  17.147  0.00  0.00    +0.000 A 
ENDBRANCH  20  21
ENDBRANCH   3  15
TORSDOF 3
ENDMDL
MODEL 8
REMARK VINA RESULT:      -8.6      2.896      8.296
REMARK  Name = 
REMARK  3 active torsions:
REMARK  status: ('A' for Active; 'I' for Inactive)
REMARK    1  A    between atoms: C_2  and  C_16
REMARK    2  A    between atoms: N_3  and  C_4
REMARK    3  A    between atoms: C_9  and  C_10
REMARK                            x       y       z     vdW  Elec       q    Type
REMARK                         _______ _______ _______ _____ _____    ______ ____
ROOT
ATOM      1  O   UNL     1       3.054   3.335  16.854  0.00  0.00    +0.000 OA
ATOM      2  C   UNL     1       4.004   4.032  17.182  0.00  0.00    +0.000 C 
ATOM      3  N   UNL     1       4.266   4.519  18.454  0.00  0.00    +0.000 N 
ATOM      4  H   UNL     1       5.221   4.844  18.588  0.00  0.00    +0.000 HD
ENDROOT
BRANCH   2   5
ATOM      5  C   UNL     1       5.076   4.366  16.190  0.00  0.00    +0.000 A 
ATOM      6  C   UNL     1       6.047   5.295  16.522  0.00  0.00    +0.000 A 
ATOM      7  C   UNL     1       7.018   5.586  15.572  0.00  0.00    +0.000 A 
ATOM      8  C   UNL     1       6.955   4.987  14.309  0.00  0.00    +0.000 A 
ATOM      9  C   UNL     1       7.869   5.324  13.300  0.00  0.00    +0.000 A 
ATOM     10  C   UNL     1       7.763   4.753  12.031  0.00  0.00    +0.000 A 
ATOM     11  C   UNL     1       6.767   3.817  11.786  0.00  0.00    +0.000 A 
ATOM     12  C   UNL     1       5.871   3.467  12.801  0.00  0.00    +0.000 A 
ATOM     13  C   UNL     1       5.927   4.050  14.060  0.00  0.00    +0.000 A 
ATOM     14  N   UNL     1       5.005   3.730  14.985  0.00  0.00    +0.000 NA
ENDBRANCH   2   5
BRANCH   3  15
ATOM     15  C   UNL     1       3.506   4.171  19.589  0.00  0.00    +0.000 A 
ATOM     16  C   UNL     1       3.656   2.878  20.116  0.00  0.00    +0.000 A 
ATOM     17  C   UNL     1       2.879   2.453  21.191  0.00  0.00    +0.000 A 
ATOM     18  C   UNL     1       1.983   3.333  21.778  0.00  0.00    +0.000 A 
ATOM     19  C   UNL     1       1.842   4.629  21.269  0.00  0.00    +0.000 A 
ATOM     20  C   UNL     1       2.567   5.077  20.141  0.00  0.00    +0.000 A 
BRANCH  20  21
ATOM     21  C   UNL     1       2.324   6.450  19.611  0.00  0.00    +0.000 A 
ATOM     22  C   UNL     1       2.601   6.811  18.279  0.00  0.00    +0.000 A 
ATOM     23  C   UNL     1       2.254   8.068  17.772  0.00  0.00    +0.000 A 
ATOM     24  C   UNL     1       1.691   9.025  18.608  0.00  0.00    +0.000 A 
ATOM     25  C   UNL     1       1.477   8.724  19.949  0.00  0.00    +0.000 A 
ATOM     26  C   UNL     1       1.780   7.450  20.439  0.00  0.00    +0.000 A 
ENDBRANCH  20  21
ENDBRANCH   3  15
TORSDOF 3
ENDMDL
MODEL 9
REMARK VINA RESULT:      -8.5      3.209      8.277
REMARK  Name = 
REMARK  3 active torsions:
REMARK  status: ('A' for Active; 'I' for Inactive)
REMARK    1  A    between atoms: C_2  and  C_16
REMARK    2  A    between atoms: N_3  and  C_4
REMARK    3  A    between atoms: C_9  and  C_10
REMARK                            x       y       z     vdW  Elec       q    Type
REMARK                         _______ _______ _______ _____ _____    ______ ____
ROOT
ATOM      1  O   UNL     1       5.881   3.898  19.230  0.00  0.00    +0.000 OA
ATOM      2  C   UNL     1       5.253   3.984  18.184  0.00  0.00    +0.000 C 
ATOM      3  N   UNL     1       3.880   3.853  18.036  0.00  0.00    +0.000 N 
ATOM      4  H   UNL     1       3.518   4.216  17.157  0.00  0.00    +0.000 HD
ENDROOT
BRANCH   2   5
ATOM      5  C   UNL     1       5.952   4.345  16.909  0.00  0.00    +0.000 A 
ATOM      6  C   UNL     1       6.866   5.386  16.905  0.00  0.00    +0.000 A 
ATOM      7  C   UNL     1       7.486   5.699  15.702  0.00  0.00    +0.000 A 
ATOM      8  C   UNL     1       7.136   5.004  14.538  0.00  0.00    +0.000 A 
ATOM      9  C   UNL     1       7.681   5.353  13.295  0.00  0.00    +0.000 A 
ATOM     10  C   UNL     1       7.285   4.681  12.137  0.00  0.00    +0.000 A 
ATOM     11  C   UNL     1       6.374   3.636  12.232  0.00  0.00    +0.000 A 
ATOM     12  C   UNL     1       5.850   3.278  13.478  0.00  0.00    +0.000 A 
ATOM     13  C   UNL     1       6.194   3.956  14.640  0.00  0.00    +0.000 A 
ATOM     14  N   UNL     1       5.616   3.617  15.806  0.00  0.00    +0.000 NA
ENDBRANCH   2   5
BRANCH   3  15
ATOM     15  C   UNL     1       2.994   3.709  19.122  0.00  0.00    +0.000 A 
ATOM     16  C   UNL     1       2.795   2.422  19.650  0.00  0.00    +0.000 A 
ATOM     17  C   UNL     1       1.877   2.207  20.674  0.00  0.00    +0.000 A 
ATOM     18  C   UNL     1       1.187   3.282  21.212  0.00  0.00    +0.000 A 
ATOM     19  C   UNL     1       1.393   4.569  20.702  0.00  0.00    +0.000 A 
ATOM     20  C   UNL     1       2.269   4.819  19.622  0.00  0.00    +0.000 A 
BRANCH  20  21
ATOM     21  C   UNL     1       2.396   6.205  19.086  0.00  0.00    +0.000 A 
ATOM     22  C   UNL     1       3.017   6.492  17.856  0.00  0.00    +0.000 A 
ATOM     23  C   UNL     1       3.019   7.783  17.317  0.00  0.00    +0.000 A 
ATOM     24  C   UNL     1       2.465   8.837  18.033  0.00  0.00    +0.000 A 
ATOM     25  C   UNL     1       1.912   8.599  19.287  0.00  0.00    +0.000 A 
ATOM     26  C   UNL     1       1.870   7.298  19.800  0.00  0.00    +0.000 A 
ENDBRANCH  20  21
ENDBRANCH   3  15
TORSDOF 3
ENDMDL
