MODEL 1
REMARK VINA RESULT:      -9.5      0.000      0.000
REMARK  Name = 
REMARK  7 active torsions:
REMARK  status: ('A' for Active; 'I' for Inactive)
REMARK    1  A    between atoms: C_1  and  C_2
REMARK    2  A    between atoms: C_5  and  C_6
REMARK    3  A    between atoms: C_8  and  O_9
REMARK    4  A    between atoms: C_12  and  C_14
REMARK    5  A    between atoms: C_18  and  C_19
REMARK    6  A    between atoms: C_19  and  O_20
REMARK    7  A    between atoms: O_20  and  C_21
REMARK                            x       y       z     vdW  Elec       q    Type
REMARK                         _______ _______ _______ _____ _____    ______ ____
ROOT
ATOM      1  C   UNL     1       6.805   4.127  17.259  0.00  0.00    +0.000 C 
ATOM      2  C   UNL     1       7.979   4.881  17.914  0.00  0.00    +0.000 C 
ATOM      3  C   UNL     1       7.388   6.236  18.289  0.00  0.00    +0.000 C 
ATOM      4  C   UNL     1       5.952   5.886  18.646  0.00  0.00    +0.000 C 
ATOM      5  N   UNL     1       5.626   4.633  17.989  0.00  0.00    +0.000 N 
ATOM      6  C   UNL     1       4.447   3.893  18.085  0.00  0.00    +0.000 C 
ATOM      7  O   UNL     1       4.347   2.836  17.460  0.00  0.00    +0.000 OA
ENDROOT
BRANCH   1  12
ATOM      8  C   UNL     1       5.826   3.478  12.541  0.00  0.00    +0.000 C 
ATOM      9  C   UNL     1       6.394   4.127  13.734  0.00  0.00    +0.000 A 
ATOM     10  N   UNL     1       7.198   5.166  13.809  0.00  0.00    +0.000 NA
ATOM     11  N   UNL     1       7.415   5.393  15.147  0.00  0.00    +0.000 NA
ATOM     12  C   UNL     1       6.736   4.469  15.804  0.00  0.00    +0.000 A 
ATOM     13  O   UNL     1       6.068   3.611  14.963  0.00  0.00    +0.000 OA
ENDBRANCH   1  12
BRANCH   6  14
ATOM     14  C   UNL     1       3.278   4.309  18.969  0.00  0.00    +0.000 A 
ATOM     15  C   UNL     1       2.352   3.439  19.556  0.00  0.00    +0.000 A 
ATOM     16  C   UNL     1       1.254   3.888  20.290  0.00  0.00    +0.000 A 
ATOM     17  C   UNL     1       1.075   5.238  20.507  0.00  0.00    +0.000 A 
ATOM     18  C   UNL     1       2.007   6.148  20.002  0.00  0.00    +0.000 A 
ATOM     19  C   UNL     1       3.082   5.686  19.210  0.00  0.00    +0.000 A 
BRANCH  18  20
ATOM     20  C   UNL     1       1.839   7.604  20.351  0.00  0.00    +0.000 C 
BRANCH  20  21
ATOM     21  O   UNL     1       1.032   7.734  21.516  0.00  0.00    +0.000 OA
BRANCH  21  22
ATOM     22  C   UNL     1       0.429   8.950  21.692  0.00  0.00    +0.000 A 
ATOM     23  C   UNL     1      -0.187   9.389  22.870  0.00  0.00    +0.000 A 
ATOM     24  C   UNL     1      -0.762  10.664  22.941  0.00  0.00    +0.000 A 
ATOM     25  C   UNL     1      -0.725  11.501  21.829  0.00  0.00    +0.000 A 
ATOM     26  C   UNL     1      -0.122  11.057  20.657  0.00  0.00    +0.000 A 
ATOM     27  F   UNL     1      -0.087  11.862  19.590  0.00  0.00    +0.000 F 
ATOM     28  C   UNL     1       0.453   9.785  20.578  0.00  0.00    +0.000 A 
ENDBRANCH  21  22
ENDBRANCH  20  21
ENDBRANCH  18  20
ENDBRANCH   6  14
BRANCH   3  29
ATOM     29  O   UNL     1       7.468   7.187  17.238  0.00  0.00    +0.000 OA
ATOM     30  H   UNL     1       7.721   6.744  16.401  0.00  0.00    +0.000 HD
ENDBRANCH   3  29
TORSDOF 6
ENDMDL
MODEL 2
REMARK VINA RESULT:      -9.4      1.297      1.986
REMARK  Name = 
REMARK  7 active torsions:
REMARK  status: ('A' for Active; 'I' for Inactive)
REMARK    1  A    between atoms: C_1  and  C_2
REMARK    2  A    between atoms: C_5  and  C_6
REMARK    3  A    between atoms: C_8  and  O_9
REMARK    4  A    between atoms: C_12  and  C_14
REMARK    5  A    between atoms: C_18  and  C_19
REMARK    6  A    between atoms: C_19  and  O_20
REMARK    7  A    between atoms: O_20  and  C_21
REMARK                            x       y       z     vdW  Elec       q    Type
REMARK                         _______ _______ _______ _____ _____    ______ ____
ROOT
ATOM      1  C   UNL     1       6.776   4.276  16.992  0.00  0.00    +0.000 C 
ATOM      2  C   UNL     1       7.593   5.367  17.712  0.00  0.00    +0.000 C 
ATOM      3  C   UNL     1       6.585   6.485  17.956  0.00  0.00    +0.000 C 
ATOM      4  C   UNL     1       5.292   5.722  18.197  0.00  0.00    +0.000 C 
ATOM      5  N   UNL     1       5.430   4.415  17.580  0.00  0.00    +0.000 N 
ATOM      6  C   UNL     1       4.526   3.353  17.606  0.00  0.00    +0.000 C 
ATOM      7  O   UNL     1       4.815   2.302  17.032  0.00  0.00    +0.000 OA
ENDROOT
BRANCH   1  12
ATOM      8  C   UNL     1       6.001   3.386  12.275  0.00  0.00    +0.000 C 
ATOM      9  C   UNL     1       6.509   4.102  13.457  0.00  0.00    +0.000 A 
ATOM     10  N   UNL     1       7.293   5.157  13.514  0.00  0.00    +0.000 NA
ATOM     11  N   UNL     1       7.452   5.451  14.848  0.00  0.00    +0.000 NA
ATOM     12  C   UNL     1       6.761   4.547  15.520  0.00  0.00    +0.000 A 
ATOM     13  O   UNL     1       6.142   3.639  14.696  0.00  0.00    +0.000 OA
ENDBRANCH   1  12
BRANCH   6  14
ATOM     14  C   UNL     1       3.199   3.413  18.353  0.00  0.00    +0.000 A 
ATOM     15  C   UNL     1       2.188   2.446  18.294  0.00  0.00    +0.000 A 
ATOM     16  C   UNL     1       0.961   2.596  18.940  0.00  0.00    +0.000 A 
ATOM     17  C   UNL     1       0.722   3.711  19.716  0.00  0.00    +0.000 A 
ATOM     18  C   UNL     1       1.721   4.676  19.865  0.00  0.00    +0.000 A 
ATOM     19  C   UNL     1       2.938   4.541  19.160  0.00  0.00    +0.000 A 
BRANCH  18  20
ATOM     20  C   UNL     1       1.466   5.823  20.807  0.00  0.00    +0.000 C 
BRANCH  20  21
ATOM     21  O   UNL     1       2.375   6.884  20.540  0.00  0.00    +0.000 OA
BRANCH  21  22
ATOM     22  C   UNL     1       1.878   7.926  19.805  0.00  0.00    +0.000 A 
ATOM     23  C   UNL     1       2.149   8.170  18.453  0.00  0.00    +0.000 A 
ATOM     24  C   UNL     1       1.571   9.264  17.797  0.00  0.00    +0.000 A 
ATOM     25  C   UNL     1       0.723  10.119  18.495  0.00  0.00    +0.000 A 
ATOM     26  C   UNL     1       0.464   9.879  19.840  0.00  0.00    +0.000 A 
ATOM     27  F   UNL     1      -0.350  10.702  20.509  0.00  0.00    +0.000 F 
ATOM     28  C   UNL     1       1.039   8.791  20.503  0.00  0.00    +0.000 A 
ENDBRANCH  21  22
ENDBRANCH  20  21
ENDBRANCH  18  20
ENDBRANCH   6  14
BRANCH   3  29
ATOM     29  O   UNL     1       6.486   7.391  16.868  0.00  0.00    +0.000 OA
ATOM     30  H   UNL     1       6.677   8.303  17.171  0.00  0.00    +0.000 HD
ENDBRANCH   3  29
TORSDOF 6
ENDMDL
MODEL 3
REMARK VINA RESULT:      -9.4      0.865      1.231
REMARK  Name = 
REMARK  7 active torsions:
REMARK  status: ('A' for Active; 'I' for Inactive)
REMARK    1  A    between atoms: C_1  and  C_2
REMARK    2  A    between atoms: C_5  and  C_6
REMARK    3  A    between atoms: C_8  and  O_9
REMARK    4  A    between atoms: C_12  and  C_14
REMARK    5  A    between atoms: C_18  and  C_19
REMARK    6  A    between atoms: C_19  and  O_20
REMARK    7  A    between atoms: O_20  and  C_21
REMARK                            x       y       z     vdW  Elec       q    Type
REMARK                         _______ _______ _______ _____ _____    ______ ____
ROOT
ATOM      1  C   UNL     1       6.788   4.091  17.218  0.00  0.00    +0.000 C 
ATOM      2  C   UNL     1       7.994   4.805  17.861  0.00  0.00    +0.000 C 
ATOM      3  C   UNL     1       7.449   6.175  18.252  0.00  0.00    +0.000 C 
ATOM      4  C   UNL     1       6.008   5.866  18.627  0.00  0.00    +0.000 C 
ATOM      5  N   UNL     1       5.636   4.628  17.967  0.00  0.00    +0.000 N 
ATOM      6  C   UNL     1       4.436   3.924  18.075  0.00  0.00    +0.000 C 
ATOM      7  O   UNL     1       4.296   2.874  17.445  0.00  0.00    +0.000 OA
ENDROOT
BRANCH   1  12
ATOM      8  C   UNL     1       5.699   3.515  12.515  0.00  0.00    +0.000 C 
ATOM      9  C   UNL     1       6.317   4.131  13.701  0.00  0.00    +0.000 A 
ATOM     10  N   UNL     1       7.170   5.130  13.766  0.00  0.00    +0.000 NA
ATOM     11  N   UNL     1       7.421   5.339  15.102  0.00  0.00    +0.000 NA
ATOM     12  C   UNL     1       6.710   4.445  15.766  0.00  0.00    +0.000 A 
ATOM     13  O   UNL     1       5.989   3.624  14.933  0.00  0.00    +0.000 OA
ENDBRANCH   1  12
BRANCH   6  14
ATOM     14  C   UNL     1       3.292   4.369  18.977  0.00  0.00    +0.000 A 
ATOM     15  C   UNL     1       2.362   3.521  19.591  0.00  0.00    +0.000 A 
ATOM     16  C   UNL     1       1.288   3.997  20.342  0.00  0.00    +0.000 A 
ATOM     17  C   UNL     1       1.136   5.352  20.547  0.00  0.00    +0.000 A 
ATOM     18  C   UNL     1       2.074   6.241  20.015  0.00  0.00    +0.000 A 
ATOM     19  C   UNL     1       3.125   5.752  19.207  0.00  0.00    +0.000 A 
BRANCH  18  20
ATOM     20  C   UNL     1       1.938   7.703  20.352  0.00  0.00    +0.000 C 
BRANCH  20  21
ATOM     21  O   UNL     1       0.780   7.912  21.151  0.00  0.00    +0.000 OA
BRANCH  21  22
ATOM     22  C   UNL     1       0.365   9.210  21.273  0.00  0.00    +0.000 A 
ATOM     23  C   UNL     1       0.685  10.253  20.395  0.00  0.00    +0.000 A 
ATOM     24  C   UNL     1       0.190  11.545  20.611  0.00  0.00    +0.000 A 
ATOM     25  C   UNL     1      -0.624  11.796  21.712  0.00  0.00    +0.000 A 
ATOM     26  C   UNL     1      -0.932  10.761  22.588  0.00  0.00    +0.000 A 
ATOM     27  F   UNL     1      -1.713  11.005  23.645  0.00  0.00    +0.000 F 
ATOM     28  C   UNL     1      -0.440   9.469  22.380  0.00  0.00    +0.000 A 
ENDBRANCH  21  22
ENDBRANCH  20  21
ENDBRANCH  18  20
ENDBRANCH   6  14
BRANCH   3  29
ATOM     29  O   UNL     1       7.544   7.130  17.206  0.00  0.00    +0.000 OA
ATOM     30  H   UNL     1       8.143   7.859  17.469  0.00  0.00    +0.000 HD
ENDBRANCH   3  29
TORSDOF 6
ENDMDL
MODEL 4
REMARK VINA RESULT:      -9.3      4.299      9.232
REMARK  Name = 
REMARK  7 active torsions:
REMARK  status: ('A' for Active; 'I' for Inactive)
REMARK    1  A    between atoms: C_1  and  C_2
REMARK    2  A    between atoms: C_5  and  C_6
REMARK    3  A    between atoms: C_8  and  O_9
REMARK    4  A    between atoms: C_12  and  C_14
REMARK    5  A    between atoms: C_18  and  C_19
REMARK    6  A    between atoms: C_19  and  O_20
REMARK    7  A    between atoms: O_20  and  C_21
REMARK                            x       y       z     vdW  Elec       q    Type
REMARK                         _______ _______ _______ _____ _____    ______ ____
ROOT
ATOM      1  C   UNL     1       1.038  10.136  19.586  0.00  0.00    +0.000 C 
ATOM      2  C   UNL     1       1.050  10.256  21.123  0.00  0.00    +0.000 C 
ATOM      3  C   UNL     1       0.754   8.840  21.608  0.00  0.00    +0.000 C 
ATOM      4  C   UNL     1       1.429   7.978  20.553  0.00  0.00    +0.000 C 
ATOM      5  N   UNL     1       1.556   8.776  19.347  0.00  0.00    +0.000 N 
ATOM      6  C   UNL     1       2.175   8.425  18.147  0.00  0.00    +0.000 C 
ATOM      7  O   UNL     1       2.199   9.238  17.221  0.00  0.00    +0.000 OA
ENDROOT
BRANCH   1  12
ATOM      8  C   UNL     1      -2.608  10.005  16.372  0.00  0.00    +0.000 C 
ATOM      9  C   UNL     1      -1.922  10.317  17.637  0.00  0.00    +0.000 A 
ATOM     10  N   UNL     1      -2.354  11.020  18.662  0.00  0.00    +0.000 NA
ATOM     11  N   UNL     1      -1.349  10.994  19.600  0.00  0.00    +0.000 NA
ATOM     12  C   UNL     1      -0.363  10.285  19.081  0.00  0.00    +0.000 A 
ATOM     13  O   UNL     1      -0.652   9.831  17.816  0.00  0.00    +0.000 OA
ENDBRANCH   1  12
BRANCH   6  14
ATOM     14  C   UNL     1       2.869   7.085  17.932  0.00  0.00    +0.000 A 
ATOM     15  C   UNL     1       2.323   5.830  18.228  0.00  0.00    +0.000 A 
ATOM     16  C   UNL     1       3.040   4.643  18.083  0.00  0.00    +0.000 A 
ATOM     17  C   UNL     1       4.325   4.669  17.582  0.00  0.00    +0.000 A 
ATOM     18  C   UNL     1       4.894   5.888  17.205  0.00  0.00    +0.000 A 
ATOM     19  C   UNL     1       4.180   7.090  17.411  0.00  0.00    +0.000 A 
BRANCH  18  20
ATOM     20  C   UNL     1       6.255   5.866  16.560  0.00  0.00    +0.000 C 
BRANCH  20  21
ATOM     21  O   UNL     1       6.513   4.579  16.011  0.00  0.00    +0.000 OA
BRANCH  21  22
ATOM     22  C   UNL     1       6.732   4.538  14.661  0.00  0.00    +0.000 A 
ATOM     23  C   UNL     1       7.658   5.322  13.962  0.00  0.00    +0.000 A 
ATOM     24  C   UNL     1       7.807   5.184  12.577  0.00  0.00    +0.000 A 
ATOM     25  C   UNL     1       7.025   4.263  11.887  0.00  0.00    +0.000 A 
ATOM     26  C   UNL     1       6.098   3.494  12.582  0.00  0.00    +0.000 A 
ATOM     27  F   UNL     1       5.347   2.610  11.917  0.00  0.00    +0.000 F 
ATOM     28  C   UNL     1       5.942   3.627  13.965  0.00  0.00    +0.000 A 
ENDBRANCH  21  22
ENDBRANCH  20  21
ENDBRANCH  18  20
ENDBRANCH   6  14
BRANCH   3  29
ATOM     29  O   UNL     1      -0.635   8.571  21.720  0.00  0.00    +0.000 OA
ATOM     30  H   UNL     1      -0.839   7.689  21.344  0.00  0.00    +0.000 HD
ENDBRANCH   3  29
TORSDOF 6
ENDMDL
MODEL 5
REMARK VINA RESULT:      -9.3      3.112      4.905
REMARK  Name = 
REMARK  7 active torsions:
REMARK  status: ('A' for Active; 'I' for Inactive)
REMARK    1  A    between atoms: C_1  and  C_2
REMARK    2  A    between atoms: C_5  and  C_6
REMARK    3  A    between atoms: C_8  and  O_9
REMARK    4  A    between atoms: C_12  and  C_14
REMARK    5  A    between atoms: C_18  and  C_19
REMARK    6  A    between atoms: C_19  and  O_20
REMARK    7  A    between atoms: O_20  and  C_21
REMARK                            x       y       z     vdW  Elec       q    Type
REMARK                         _______ _______ _______ _____ _____    ______ ____
ROOT
ATOM      1  C   UNL     1       3.585   4.786  17.389  0.00  0.00    +0.000 C 
ATOM      2  C   UNL     1       2.945   3.401  17.610  0.00  0.00    +0.000 C 
ATOM      3  C   UNL     1       2.686   3.347  19.112  0.00  0.00    +0.000 C 
ATOM      4  C   UNL     1       2.354   4.792  19.446  0.00  0.00    +0.000 C 
ATOM      5  N   UNL     1       2.934   5.629  18.410  0.00  0.00    +0.000 N 
ATOM      6  C   UNL     1       2.826   7.012  18.263  0.00  0.00    +0.000 C 
ATOM      7  O   UNL     1       3.379   7.560  17.308  0.00  0.00    +0.000 OA
ENDROOT
BRANCH   1  12
ATOM      8  C   UNL     1       7.864   5.718  19.504  0.00  0.00    +0.000 C 
ATOM      9  C   UNL     1       6.936   5.196  18.487  0.00  0.00    +0.000 A 
ATOM     10  N   UNL     1       7.206   4.626  17.333  0.00  0.00    +0.000 NA
ATOM     11  N   UNL     1       5.996   4.296  16.769  0.00  0.00    +0.000 NA
ATOM     12  C   UNL     1       5.063   4.699  17.614  0.00  0.00    +0.000 A 
ATOM     13  O   UNL     1       5.589   5.300  18.731  0.00  0.00    +0.000 OA
ENDBRANCH   1  12
BRANCH   6  14
ATOM     14  C   UNL     1       2.014   7.886  19.211  0.00  0.00    +0.000 A 
ATOM     15  C   UNL     1       1.858   7.668  20.585  0.00  0.00    +0.000 A 
ATOM     16  C   UNL     1       1.036   8.461  21.386  0.00  0.00    +0.000 A 
ATOM     17  C   UNL     1       0.375   9.541  20.840  0.00  0.00    +0.000 A 
ATOM     18  C   UNL     1       0.548   9.845  19.487  0.00  0.00    +0.000 A 
ATOM     19  C   UNL     1       1.337   9.002  18.674  0.00  0.00    +0.000 A 
BRANCH  18  20
ATOM     20  C   UNL     1      -0.100  11.095  18.952  0.00  0.00    +0.000 C 
BRANCH  20  21
ATOM     21  O   UNL     1      -1.510  11.024  19.126  0.00  0.00    +0.000 OA
BRANCH  21  22
ATOM     22  C   UNL     1      -2.245  10.849  17.986  0.00  0.00    +0.000 A 
ATOM     23  C   UNL     1      -1.893  10.025  16.909  0.00  0.00    +0.000 A 
ATOM     24  C   UNL     1      -2.733   9.911  15.794  0.00  0.00    +0.000 A 
ATOM     25  C   UNL     1      -3.926  10.626  15.753  0.00  0.00    +0.000 A 
ATOM     26  C   UNL     1      -4.268  11.452  16.819  0.00  0.00    +0.000 A 
ATOM     27  F   UNL     1      -5.414  12.138  16.777  0.00  0.00    +0.000 F 
ATOM     28  C   UNL     1      -3.434  11.572  17.935  0.00  0.00    +0.000 A 
ENDBRANCH  21  22
ENDBRANCH  20  21
ENDBRANCH  18  20
ENDBRANCH   6  14
BRANCH   3  29
ATOM     29  O   UNL     1       3.798   2.861  19.850  0.00  0.00    +0.000 OA
ATOM     30  H   UNL     1       4.323   3.610  20.200  0.00  0.00    +0.000 HD
ENDBRANCH   3  29
TORSDOF 6
ENDMDL
MODEL 6
REMARK VINA RESULT:      -9.3      1.144      1.585
REMARK  Name = 
REMARK  7 active torsions:
REMARK  status: ('A' for Active; 'I' for Inactive)
REMARK    1  A    between atoms: C_1  and  C_2
REMARK    2  A    between atoms: C_5  and  C_6
REMARK    3  A    between atoms: C_8  and  O_9
REMARK    4  A    between atoms: C_12  and  C_14
REMARK    5  A    between atoms: C_18  and  C_19
REMARK    6  A    between atoms: C_19  and  O_20
REMARK    7  A    between atoms: O_20  and  C_21
REMARK                            x       y       z     vdW  Elec       q    Type
REMARK                         _______ _______ _______ _____ _____    ______ ____
ROOT
ATOM      1  C   UNL     1       6.763   4.272  17.111  0.00  0.00    +0.000 C 
ATOM      2  C   UNL     1       7.626   5.331  17.826  0.00  0.00    +0.000 C 
ATOM      3  C   UNL     1       6.659   6.481  18.089  0.00  0.00    +0.000 C 
ATOM      4  C   UNL     1       5.344   5.762  18.341  0.00  0.00    +0.000 C 
ATOM      5  N   UNL     1       5.430   4.454  17.715  0.00  0.00    +0.000 N 
ATOM      6  C   UNL     1       4.489   3.424  17.746  0.00  0.00    +0.000 C 
ATOM      7  O   UNL     1       4.735   2.367  17.163  0.00  0.00    +0.000 OA
ENDROOT
BRANCH   1  12
ATOM      8  C   UNL     1       5.967   3.410  12.392  0.00  0.00    +0.000 C 
ATOM      9  C   UNL     1       6.479   4.119  13.576  0.00  0.00    +0.000 A 
ATOM     10  N   UNL     1       7.260   5.176  13.635  0.00  0.00    +0.000 NA
ATOM     11  N   UNL     1       7.425   5.463  14.970  0.00  0.00    +0.000 NA
ATOM     12  C   UNL     1       6.740   4.553  15.641  0.00  0.00    +0.000 A 
ATOM     13  O   UNL     1       6.120   3.648  14.813  0.00  0.00    +0.000 OA
ENDBRANCH   1  12
BRANCH   6  14
ATOM     14  C   UNL     1       3.174   3.525  18.509  0.00  0.00    +0.000 A 
ATOM     15  C   UNL     1       2.152   2.568  18.498  0.00  0.00    +0.000 A 
ATOM     16  C   UNL     1       0.936   2.755  19.155  0.00  0.00    +0.000 A 
ATOM     17  C   UNL     1       0.721   3.898  19.896  0.00  0.00    +0.000 A 
ATOM     18  C   UNL     1       1.733   4.856  19.998  0.00  0.00    +0.000 A 
ATOM     19  C   UNL     1       2.938   4.683  19.281  0.00  0.00    +0.000 A 
BRANCH  18  20
ATOM     20  C   UNL     1       1.505   6.037  20.904  0.00  0.00    +0.000 C 
BRANCH  20  21
ATOM     21  O   UNL     1       2.075   7.208  20.331  0.00  0.00    +0.000 OA
BRANCH  21  22
ATOM     22  C   UNL     1       1.387   8.371  20.541  0.00  0.00    +0.000 A 
ATOM     23  C   UNL     1       1.037   9.300  19.552  0.00  0.00    +0.000 A 
ATOM     24  C   UNL     1       0.316  10.454  19.882  0.00  0.00    +0.000 A 
ATOM     25  C   UNL     1      -0.052  10.684  21.205  0.00  0.00    +0.000 A 
ATOM     26  C   UNL     1       0.306   9.766  22.185  0.00  0.00    +0.000 A 
ATOM     27  F   UNL     1      -0.048   9.989  23.455  0.00  0.00    +0.000 F 
ATOM     28  C   UNL     1       1.027   8.612  21.865  0.00  0.00    +0.000 A 
ENDBRANCH  21  22
ENDBRANCH  20  21
ENDBRANCH  18  20
ENDBRANCH   6  14
BRANCH   3  29
ATOM     29  O   UNL     1       6.579   7.397  17.007  0.00  0.00    +0.000 OA
ATOM     30  H   UNL     1       5.848   7.143  16.406  0.00  0.00    +0.000 HD
ENDBRANCH   3  29
TORSDOF 6
ENDMDL
MODEL 7
REMARK VINA RESULT:      -9.2      2.708      4.386
REMARK  Name = 
REMARK  7 active torsions:
REMARK  status: ('A' for Active; 'I' for Inactive)
REMARK    1  A    between atoms: C_1  and  C_2
REMARK    2  A    between atoms: C_5  and  C_6
REMARK    3  A    between atoms: C_8  and  O_9
REMARK    4  A    between atoms: C_12  and  C_14
REMARK    5  A    between atoms: C_18  and  C_19
REMARK    6  A    between atoms: C_19  and  O_20
REMARK    7  A    between atoms: O_20  and  C_21
REMARK                            x       y       z     vdW  Elec       q    Type
REMARK                         _______ _______ _______ _____ _____    ______ ____
ROOT
ATOM      1  C   UNL     1       3.992   5.413  17.069  0.00  0.00    +0.000 C 
ATOM      2  C   UNL     1       3.854   3.916  17.408  0.00  0.00    +0.000 C 
ATOM      3  C   UNL     1       3.967   3.867  18.929  0.00  0.00    +0.000 C 
ATOM      4  C   UNL     1       3.308   5.170  19.354  0.00  0.00    +0.000 C 
ATOM      5  N   UNL     1       3.368   6.083  18.226  0.00  0.00    +0.000 N 
ATOM      6  C   UNL     1       2.828   7.366  18.130  0.00  0.00    +0.000 C 
ATOM      7  O   UNL     1       2.966   8.000  17.083  0.00  0.00    +0.000 OA
ENDROOT
BRANCH   1  12
ATOM      8  C   UNL     1       8.226   7.465  18.298  0.00  0.00    +0.000 C 
ATOM      9  C   UNL     1       7.255   6.757  17.447  0.00  0.00    +0.000 A 
ATOM     10  N   UNL     1       7.374   6.381  16.192  0.00  0.00    +0.000 NA
ATOM     11  N   UNL     1       6.203   5.735  15.868  0.00  0.00    +0.000 NA
ATOM     12  C   UNL     1       5.441   5.770  16.947  0.00  0.00    +0.000 A 
ATOM     13  O   UNL     1       6.043   6.423  17.995  0.00  0.00    +0.000 OA
ENDBRANCH   1  12
BRANCH   6  14
ATOM     14  C   UNL     1       2.029   8.016  19.253  0.00  0.00    +0.000 A 
ATOM     15  C   UNL     1       1.766   7.440  20.502  0.00  0.00    +0.000 A 
ATOM     16  C   UNL     1       0.961   8.054  21.461  0.00  0.00    +0.000 A 
ATOM     17  C   UNL     1       0.427   9.302  21.217  0.00  0.00    +0.000 A 
ATOM     18  C   UNL     1       0.713   9.953  20.014  0.00  0.00    +0.000 A 
ATOM     19  C   UNL     1       1.482   9.297  19.027  0.00  0.00    +0.000 A 
BRANCH  18  20
ATOM     20  C   UNL     1       0.205  11.359  19.829  0.00  0.00    +0.000 C 
BRANCH  20  21
ATOM     21  O   UNL     1      -0.201  11.556  18.480  0.00  0.00    +0.000 OA
BRANCH  21  22
ATOM     22  C   UNL     1      -1.479  11.171  18.179  0.00  0.00    +0.000 A 
ATOM     23  C   UNL     1      -1.832  10.087  17.365  0.00  0.00    +0.000 A 
ATOM     24  C   UNL     1      -3.178   9.776  17.137  0.00  0.00    +0.000 A 
ATOM     25  C   UNL     1      -4.175  10.554  17.719  0.00  0.00    +0.000 A 
ATOM     26  C   UNL     1      -3.821  11.636  18.518  0.00  0.00    +0.000 A 
ATOM     27  F   UNL     1      -4.780  12.382  19.076  0.00  0.00    +0.000 F 
ATOM     28  C   UNL     1      -2.479  11.954  18.749  0.00  0.00    +0.000 A 
ENDBRANCH  21  22
ENDBRANCH  20  21
ENDBRANCH  18  20
ENDBRANCH   6  14
BRANCH   3  29
ATOM     29  O   UNL     1       5.307   3.764  19.383  0.00  0.00    +0.000 OA
ATOM     30  H   UNL     1       5.792   4.594  19.193  0.00  0.00    +0.000 HD
ENDBRANCH   3  29
TORSDOF 6
ENDMDL
MODEL 8
REMARK VINA RESULT:      -9.1      4.219      9.199
REMARK  Name = 
REMARK  7 active torsions:
REMARK  status: ('A' for Active; 'I' for Inactive)
REMARK    1  A    between atoms: C_1  and  C_2
REMARK    2  A    between atoms: C_5  and  C_6
REMARK    3  A    between atoms: C_8  and  O_9
REMARK    4  A    between atoms: C_12  and  C_14
REMARK    5  A    between atoms: C_18  and  C_19
REMARK    6  A    between atoms: C_19  and  O_20
REMARK    7  A    between atoms: O_20  and  C_21
REMARK                            x       y       z     vdW  Elec       q    Type
REMARK                         _______ _______ _______ _____ _____    ______ ____
ROOT
ATOM      1  C   UNL     1       1.023  10.217  19.596  0.00  0.00    +0.000 C 
ATOM      2  C   UNL     1       1.031  10.508  21.110  0.00  0.00    +0.000 C 
ATOM      3  C   UNL     1       0.694   9.164  21.748  0.00  0.00    +0.000 C 
ATOM      4  C   UNL     1       1.351   8.171  20.802  0.00  0.00    +0.000 C 
ATOM      5  N   UNL     1       1.505   8.825  19.515  0.00  0.00    +0.000 N 
ATOM      6  C   UNL     1       2.120   8.325  18.366  0.00  0.00    +0.000 C 
ATOM      7  O   UNL     1       2.170   9.029  17.356  0.00  0.00    +0.000 OA
ENDROOT
BRANCH   1  12
ATOM      8  C   UNL     1      -2.579   9.962  16.340  0.00  0.00    +0.000 C 
ATOM      9  C   UNL     1      -1.911  10.322  17.602  0.00  0.00    +0.000 A 
ATOM     10  N   UNL     1      -2.357  11.061  18.594  0.00  0.00    +0.000 NA
ATOM     11  N   UNL     1      -1.365  11.072  19.547  0.00  0.00    +0.000 NA
ATOM     12  C   UNL     1      -0.371  10.345  19.067  0.00  0.00    +0.000 A 
ATOM     13  O   UNL     1      -0.643   9.844  17.817  0.00  0.00    +0.000 OA
ENDBRANCH   1  12
BRANCH   6  14
ATOM     14  C   UNL     1       2.777   6.952  18.308  0.00  0.00    +0.000 A 
ATOM     15  C   UNL     1       2.368   5.823  19.027  0.00  0.00    +0.000 A 
ATOM     16  C   UNL     1       3.061   4.613  18.991  0.00  0.00    +0.000 A 
ATOM     17  C   UNL     1       4.172   4.478  18.185  0.00  0.00    +0.000 A 
ATOM     18  C   UNL     1       4.586   5.552  17.394  0.00  0.00    +0.000 A 
ATOM     19  C   UNL     1       3.910   6.790  17.482  0.00  0.00    +0.000 A 
BRANCH  18  20
ATOM     20  C   UNL     1       5.734   5.334  16.445  0.00  0.00    +0.000 C 
BRANCH  20  21
ATOM     21  O   UNL     1       5.490   4.186  15.641  0.00  0.00    +0.000 OA
BRANCH  21  22
ATOM     22  C   UNL     1       6.058   4.196  14.396  0.00  0.00    +0.000 A 
ATOM     23  C   UNL     1       5.624   3.443  13.298  0.00  0.00    +0.000 A 
ATOM     24  C   UNL     1       6.276   3.544  12.062  0.00  0.00    +0.000 A 
ATOM     25  C   UNL     1       7.367   4.397  11.926  0.00  0.00    +0.000 A 
ATOM     26  C   UNL     1       7.801   5.135  13.021  0.00  0.00    +0.000 A 
ATOM     27  F   UNL     1       8.850   5.954  12.888  0.00  0.00    +0.000 F 
ATOM     28  C   UNL     1       7.157   5.038  14.258  0.00  0.00    +0.000 A 
ENDBRANCH  21  22
ENDBRANCH  20  21
ENDBRANCH  18  20
ENDBRANCH   6  14
BRANCH   3  29
ATOM     29  O   UNL     1      -0.702   8.946  21.880  0.00  0.00    +0.000 OA
ATOM     30  H   UNL     1      -1.082   9.576  22.527  0.00  0.00    +0.000 HD
ENDBRANCH   3  29
TORSDOF 6
ENDMDL
MODEL 9
REMARK VINA RESULT:      -9.1      2.886      4.450
REMARK  Name = 
REMARK  7 active torsions:
REMARK  status: ('A' for Active; 'I' for Inactive)
REMARK    1  A    between atoms: C_1  and  C_2
REMARK    2  A    between atoms: C_5  and  C_6
REMARK    3  A    between atoms: C_8  and  O_9
REMARK    4  A    between atoms: C_12  and  C_14
REMARK    5  A    between atoms: C_18  and  C_19
REMARK    6  A    between atoms: C_19  and  O_20
REMARK    7  A    between atoms: O_20  and  C_21
REMARK                            x       y       z     vdW  Elec       q    Type
REMARK                         _______ _______ _______ _____ _____    ______ ____
ROOT
ATOM      1  C   UNL     1       4.125   5.568  17.050  0.00  0.00    +0.000 C 
ATOM      2  C   UNL     1       4.043   4.060  17.361  0.00  0.00    +0.000 C 
ATOM      3  C   UNL     1       4.131   3.990  18.883  0.00  0.00    +0.000 C 
ATOM      4  C   UNL     1       3.413   5.258  19.318  0.00  0.00    +0.000 C 
ATOM      5  N   UNL     1       3.454   6.191  18.206  0.00  0.00    +0.000 N 
ATOM      6  C   UNL     1       2.864   7.453  18.122  0.00  0.00    +0.000 C 
ATOM      7  O   UNL     1       2.994   8.110  17.088  0.00  0.00    +0.000 OA
ENDROOT
BRANCH   1  12
ATOM      8  C   UNL     1       8.050   8.331  17.825  0.00  0.00    +0.000 C 
ATOM      9  C   UNL     1       7.241   7.258  17.224  0.00  0.00    +0.000 A 
ATOM     10  N   UNL     1       7.551   6.436  16.245  0.00  0.00    +0.000 NA
ATOM     11  N   UNL     1       6.467   5.607  16.076  0.00  0.00    +0.000 NA
ATOM     12  C   UNL     1       5.559   5.985  16.958  0.00  0.00    +0.000 A 
ATOM     13  O   UNL     1       5.979   7.049  17.720  0.00  0.00    +0.000 OA
ENDBRANCH   1  12
BRANCH   6  14
ATOM     14  C   UNL     1       2.020   8.050  19.242  0.00  0.00    +0.000 A 
ATOM     15  C   UNL     1       1.791   7.460  20.490  0.00  0.00    +0.000 A 
ATOM     16  C   UNL     1       0.943   8.020  21.446  0.00  0.00    +0.000 A 
ATOM     17  C   UNL     1       0.330   9.231  21.199  0.00  0.00    +0.000 A 
ATOM     18  C   UNL     1       0.578   9.898  19.996  0.00  0.00    +0.000 A 
ATOM     19  C   UNL     1       1.392   9.293  19.013  0.00  0.00    +0.000 A 
BRANCH  18  20
ATOM     20  C   UNL     1      -0.019  11.268  19.808  0.00  0.00    +0.000 C 
BRANCH  20  21
ATOM     21  O   UNL     1      -0.354  11.469  18.440  0.00  0.00    +0.000 OA
BRANCH  21  22
ATOM     22  C   UNL     1      -1.664  11.258  18.108  0.00  0.00    +0.000 A 
ATOM     23  C   UNL     1      -2.771  11.787  18.785  0.00  0.00    +0.000 A 
ATOM     24  C   UNL     1      -4.072  11.514  18.345  0.00  0.00    +0.000 A 
ATOM     25  C   UNL     1      -4.268  10.706  17.228  0.00  0.00    +0.000 A 
ATOM     26  C   UNL     1      -3.168  10.174  16.565  0.00  0.00    +0.000 A 
ATOM     27  F   UNL     1      -3.358   9.398  15.493  0.00  0.00    +0.000 F 
ATOM     28  C   UNL     1      -1.865  10.440  16.999  0.00  0.00    +0.000 A 
ENDBRANCH  21  22
ENDBRANCH  20  21
ENDBRANCH  18  20
ENDBRANCH   6  14
BRANCH   3  29
ATOM     29  O   UNL     1       5.467   3.934  19.359  0.00  0.00    +0.000 OA
ATOM     30  H   UNL     1       6.091   3.875  18.606  0.00  0.00    +0.000 HD
ENDBRANCH   3  29
TORSDOF 6
ENDMDL
