MODEL 1
REMARK VINA RESULT:      -9.4      0.000      0.000
REMARK  Name = 
REMARK  7 active torsions:
REMARK  status: ('A' for Active; 'I' for Inactive)
REMARK    1  A    between atoms: C_1  and  N_2
REMARK    2  A    between atoms: C_6  and  C_7
REMARK    3  A    between atoms: C_7  and  C_8
REMARK    4  A    between atoms: C_8  and  C_9
REMARK    5  A    between atoms: C_13  and  N_14
REMARK    6  A    between atoms: C_19  and  C_20
REMARK    7  A    between atoms: C_24  and  C_25
REMARK                            x       y       z     vdW  Elec       q    Type
REMARK                         _______ _______ _______ _____ _____    ______ ____
ROOT
ATOM      1  N   UNL     1       4.089   4.441  19.116  0.00  0.00    +0.000 N 
ATOM      2  C   UNL     1       5.428   5.074  19.231  0.00  0.00    +0.000 C 
ATOM      3  C   UNL     1       5.955   4.943  17.832  0.00  0.00    +0.000 A 
ATOM      4  C   UNL     1       5.343   3.819  17.262  0.00  0.00    +0.000 A 
ATOM      5  C   UNL     1       5.483   3.479  15.931  0.00  0.00    +0.000 A 
ATOM      6  C   UNL     1       6.266   4.326  15.148  0.00  0.00    +0.000 A 
ATOM      7  C   UNL     1       6.879   5.474  15.693  0.00  0.00    +0.000 A 
ATOM      8  C   UNL     1       6.730   5.807  17.059  0.00  0.00    +0.000 A 
ATOM      9  C   UNL     1       4.239   3.402  18.155  0.00  0.00    +0.000 C 
ATOM     10  O   UNL     1       3.503   2.464  17.926  0.00  0.00    +0.000 OA
ENDROOT
BRANCH   1  15
ATOM     11  C   UNL     1       1.846   7.170  19.971  0.00  0.00    +0.000 A 
ATOM     12  C   UNL     1       2.335   8.106  19.049  0.00  0.00    +0.000 A 
ATOM     13  C   UNL     1       3.008   7.687  17.907  0.00  0.00    +0.000 A 
ATOM     14  C   UNL     1       3.319   6.342  17.744  0.00  0.00    +0.000 A 
ATOM     15  C   UNL     1       3.083   5.450  18.802  0.00  0.00    +0.000 A 
ATOM     16  C   UNL     1       2.202   5.825  19.824  0.00  0.00    +0.000 A 
BRANCH  11  17
ATOM     17  C   UNL     1       1.052   7.622  21.171  0.00  0.00    +0.000 C 
BRANCH  17  18
ATOM     18  C   UNL     1       1.582   8.945  21.729  0.00  0.00    +0.000 C 
BRANCH  18  24
ATOM     19  C   UNL     1       0.046  10.927  19.921  0.00  0.00    +0.000 C 
ATOM     20  N   UNL     1      -0.170  10.726  21.327  0.00  0.00    +0.000 N 
ATOM     21  C   UNL     1      -1.062  11.391  22.108  0.00  0.00    +0.000 A 
ATOM     22  N   UNL     1      -0.983  10.946  23.337  0.00  0.00    +0.000 NA
ATOM     23  N   UNL     1      -0.010   9.981  23.372  0.00  0.00    +0.000 NA
ATOM     24  C   UNL     1       0.479   9.846  22.154  0.00  0.00    +0.000 A 
ENDBRANCH  18  24
ENDBRANCH  17  18
ENDBRANCH  11  17
ENDBRANCH   1  15
BRANCH   8  25
ATOM     25  C   UNL     1       7.304   7.108  17.566  0.00  0.00    +0.000 C 
ATOM     26  F   UNL     1       7.991   6.995  18.734  0.00  0.00    +0.000 F 
ATOM     27  F   UNL     1       8.173   7.662  16.679  0.00  0.00    +0.000 F 
ATOM     28  F   UNL     1       6.341   8.044  17.787  0.00  0.00    +0.000 F 
ENDBRANCH   8  25
BRANCH   6  29
ATOM     29  C   UNL     1       6.369   4.084  13.758  0.00  0.00    +0.000 C 
ATOM     30  N   UNL     1       5.863   3.454  12.786  0.00  0.00    +0.000 NA
ATOM     31  O   UNL     1       7.042   4.346  12.686  0.00  0.00    +0.000 OA
ENDBRANCH   6  29
TORSDOF 6
ENDMDL
MODEL 2
REMARK VINA RESULT:      -9.0      3.998      6.780
REMARK  Name = 
REMARK  7 active torsions:
REMARK  status: ('A' for Active; 'I' for Inactive)
REMARK    1  A    between atoms: C_1  and  N_2
REMARK    2  A    between atoms: C_6  and  C_7
REMARK    3  A    between atoms: C_7  and  C_8
REMARK    4  A    between atoms: C_8  and  C_9
REMARK    5  A    between atoms: C_13  and  N_14
REMARK    6  A    between atoms: C_19  and  C_20
REMARK    7  A    between atoms: C_24  and  C_25
REMARK                            x       y       z     vdW  Elec       q    Type
REMARK                         _______ _______ _______ _____ _____    ______ ____
ROOT
ATOM      1  N   UNL     1       6.110   5.310  15.611  0.00  0.00    +0.000 N 
ATOM      2  C   UNL     1       4.981   6.268  15.734  0.00  0.00    +0.000 C 
ATOM      3  C   UNL     1       4.132   5.615  16.786  0.00  0.00    +0.000 A 
ATOM      4  C   UNL     1       4.370   4.236  16.712  0.00  0.00    +0.000 A 
ATOM      5  C   UNL     1       3.866   3.334  17.630  0.00  0.00    +0.000 A 
ATOM      6  C   UNL     1       3.103   3.862  18.670  0.00  0.00    +0.000 A 
ATOM      7  C   UNL     1       2.864   5.249  18.778  0.00  0.00    +0.000 A 
ATOM      8  C   UNL     1       3.383   6.158  17.828  0.00  0.00    +0.000 A 
ATOM      9  C   UNL     1       5.547   4.024  15.840  0.00  0.00    +0.000 C 
ATOM     10  O   UNL     1       6.016   2.931  15.593  0.00  0.00    +0.000 OA
ENDROOT
BRANCH   1  15
ATOM     11  C   UNL     1       7.838   7.630  17.811  0.00  0.00    +0.000 A 
ATOM     12  C   UNL     1       7.864   6.817  18.952  0.00  0.00    +0.000 A 
ATOM     13  C   UNL     1       7.767   5.435  18.837  0.00  0.00    +0.000 A 
ATOM     14  C   UNL     1       7.504   4.863  17.597  0.00  0.00    +0.000 A 
ATOM     15  C   UNL     1       7.193   5.695  16.511  0.00  0.00    +0.000 A 
ATOM     16  C   UNL     1       7.528   7.053  16.575  0.00  0.00    +0.000 A 
BRANCH  11  17
ATOM     17  C   UNL     1       8.018   9.124  17.931  0.00  0.00    +0.000 C 
BRANCH  17  18
ATOM     18  C   UNL     1       9.069   9.479  18.985  0.00  0.00    +0.000 C 
BRANCH  18  24
ATOM     19  C   UNL     1       9.020  11.562  21.270  0.00  0.00    +0.000 C 
ATOM     20  N   UNL     1       9.443  11.801  19.918  0.00  0.00    +0.000 N 
ATOM     21  C   UNL     1       9.864  12.987  19.404  0.00  0.00    +0.000 A 
ATOM     22  N   UNL     1      10.168  12.832  18.140  0.00  0.00    +0.000 NA
ATOM     23  N   UNL     1       9.929  11.523  17.809  0.00  0.00    +0.000 NA
ATOM     24  C   UNL     1       9.493  10.900  18.886  0.00  0.00    +0.000 A 
ENDBRANCH  18  24
ENDBRANCH  17  18
ENDBRANCH  11  17
ENDBRANCH   1  15
BRANCH   8  25
ATOM     25  C   UNL     1       3.202   7.640  18.054  0.00  0.00    +0.000 C 
ATOM     26  F   UNL     1       2.401   8.248  17.139  0.00  0.00    +0.000 F 
ATOM     27  F   UNL     1       2.648   7.907  19.266  0.00  0.00    +0.000 F 
ATOM     28  F   UNL     1       4.385   8.314  18.023  0.00  0.00    +0.000 F 
ENDBRANCH   8  25
BRANCH   6  29
ATOM     29  C   UNL     1       2.640   3.001  19.693  0.00  0.00    +0.000 C 
ATOM     30  N   UNL     1       2.814   2.649  20.894  0.00  0.00    +0.000 NA
ATOM     31  O   UNL     1       1.793   2.071  19.990  0.00  0.00    +0.000 OA
ENDBRANCH   6  29
TORSDOF 6
ENDMDL
MODEL 3
REMARK VINA RESULT:      -8.9      0.707      1.418
REMARK  Name = 
REMARK  7 active torsions:
REMARK  status: ('A' for Active; 'I' for Inactive)
REMARK    1  A    between atoms: C_1  and  N_2
REMARK    2  A    between atoms: C_6  and  C_7
REMARK    3  A    between atoms: C_7  and  C_8
REMARK    4  A    between atoms: C_8  and  C_9
REMARK    5  A    between atoms: C_13  and  N_14
REMARK    6  A    between atoms: C_19  and  C_20
REMARK    7  A    between atoms: C_24  and  C_25
REMARK                            x       y       z     vdW  Elec       q    Type
REMARK                         _______ _______ _______ _____ _____    ______ ____
ROOT
ATOM      1  N   UNL     1       4.020   4.510  19.198  0.00  0.00    +0.000 N 
ATOM      2  C   UNL     1       5.367   5.127  19.304  0.00  0.00    +0.000 C 
ATOM      3  C   UNL     1       5.888   4.978  17.904  0.00  0.00    +0.000 A 
ATOM      4  C   UNL     1       5.259   3.858  17.344  0.00  0.00    +0.000 A 
ATOM      5  C   UNL     1       5.390   3.505  16.016  0.00  0.00    +0.000 A 
ATOM      6  C   UNL     1       6.182   4.336  15.224  0.00  0.00    +0.000 A 
ATOM      7  C   UNL     1       6.812   5.480  15.758  0.00  0.00    +0.000 A 
ATOM      8  C   UNL     1       6.672   5.825  17.121  0.00  0.00    +0.000 A 
ATOM      9  C   UNL     1       4.153   3.462  18.245  0.00  0.00    +0.000 C 
ATOM     10  O   UNL     1       3.404   2.532  18.025  0.00  0.00    +0.000 OA
ENDROOT
BRANCH   1  15
ATOM     11  C   UNL     1       2.076   7.493  19.927  0.00  0.00    +0.000 A 
ATOM     12  C   UNL     1       2.456   8.240  18.804  0.00  0.00    +0.000 A 
ATOM     13  C   UNL     1       2.917   7.604  17.656  0.00  0.00    +0.000 A 
ATOM     14  C   UNL     1       3.133   6.231  17.668  0.00  0.00    +0.000 A 
ATOM     15  C   UNL     1       3.027   5.530  18.879  0.00  0.00    +0.000 A 
ATOM     16  C   UNL     1       2.339   6.119  19.948  0.00  0.00    +0.000 A 
BRANCH  11  17
ATOM     17  C   UNL     1       1.506   8.178  21.145  0.00  0.00    +0.000 C 
BRANCH  17  18
ATOM     18  C   UNL     1      -0.000   8.411  21.004  0.00  0.00    +0.000 C 
BRANCH  18  24
ATOM     19  C   UNL     1      -0.903  10.473  23.124  0.00  0.00    +0.000 C 
ATOM     20  N   UNL     1      -0.732  10.725  21.720  0.00  0.00    +0.000 N 
ATOM     21  C   UNL     1      -0.965  11.901  21.078  0.00  0.00    +0.000 A 
ATOM     22  N   UNL     1      -0.701  11.762  19.803  0.00  0.00    +0.000 NA
ATOM     23  N   UNL     1      -0.302  10.467  19.596  0.00  0.00    +0.000 NA
ATOM     24  C   UNL     1      -0.318   9.841  20.757  0.00  0.00    +0.000 A 
ENDBRANCH  18  24
ENDBRANCH  17  18
ENDBRANCH  11  17
ENDBRANCH   1  15
BRANCH   8  25
ATOM     25  C   UNL     1       7.264   7.122  17.616  0.00  0.00    +0.000 C 
ATOM     26  F   UNL     1       8.134   7.703  16.747  0.00  0.00    +0.000 F 
ATOM     27  F   UNL     1       6.309   8.057  17.864  0.00  0.00    +0.000 F 
ATOM     28  F   UNL     1       7.949   6.964  18.782  0.00  0.00    +0.000 F 
ENDBRANCH   8  25
BRANCH   6  29
ATOM     29  C   UNL     1       6.277   4.081  13.835  0.00  0.00    +0.000 C 
ATOM     30  N   UNL     1       5.742   3.474  12.864  0.00  0.00    +0.000 NA
ATOM     31  O   UNL     1       6.965   4.303  12.764  0.00  0.00    +0.000 OA
ENDBRANCH   6  29
TORSDOF 6
ENDMDL
MODEL 4
REMARK VINA RESULT:      -8.6      3.895      6.548
REMARK  Name = 
REMARK  7 active torsions:
REMARK  status: ('A' for Active; 'I' for Inactive)
REMARK    1  A    between atoms: C_1  and  N_2
REMARK    2  A    between atoms: C_6  and  C_7
REMARK    3  A    between atoms: C_7  and  C_8
REMARK    4  A    between atoms: C_8  and  C_9
REMARK    5  A    between atoms: C_13  and  N_14
REMARK    6  A    between atoms: C_19  and  C_20
REMARK    7  A    between atoms: C_24  and  C_25
REMARK                            x       y       z     vdW  Elec       q    Type
REMARK                         _______ _______ _______ _____ _____    ______ ____
ROOT
ATOM      1  N   UNL     1       6.087   5.317  15.651  0.00  0.00    +0.000 N 
ATOM      2  C   UNL     1       4.947   6.264  15.757  0.00  0.00    +0.000 C 
ATOM      3  C   UNL     1       4.114   5.629  16.832  0.00  0.00    +0.000 A 
ATOM      4  C   UNL     1       4.368   4.251  16.793  0.00  0.00    +0.000 A 
ATOM      5  C   UNL     1       3.882   3.369  17.738  0.00  0.00    +0.000 A 
ATOM      6  C   UNL     1       3.120   3.915  18.770  0.00  0.00    +0.000 A 
ATOM      7  C   UNL     1       2.864   5.300  18.842  0.00  0.00    +0.000 A 
ATOM      8  C   UNL     1       3.365   6.191  17.865  0.00  0.00    +0.000 A 
ATOM      9  C   UNL     1       5.541   4.030  15.919  0.00  0.00    +0.000 C 
ATOM     10  O   UNL     1       6.022   2.937  15.697  0.00  0.00    +0.000 OA
ENDROOT
BRANCH   1  15
ATOM     11  C   UNL     1       7.757   7.684  17.845  0.00  0.00    +0.000 A 
ATOM     12  C   UNL     1       7.846   6.859  18.975  0.00  0.00    +0.000 A 
ATOM     13  C   UNL     1       7.808   5.475  18.842  0.00  0.00    +0.000 A 
ATOM     14  C   UNL     1       7.543   4.908  17.600  0.00  0.00    +0.000 A 
ATOM     15  C   UNL     1       7.171   5.738  16.532  0.00  0.00    +0.000 A 
ATOM     16  C   UNL     1       7.446   7.109  16.609  0.00  0.00    +0.000 A 
BRANCH  11  17
ATOM     17  C   UNL     1       7.873   9.182  17.983  0.00  0.00    +0.000 C 
BRANCH  17  18
ATOM     18  C   UNL     1       9.271   9.597  18.447  0.00  0.00    +0.000 C 
BRANCH  18  24
ATOM     19  C   UNL     1       9.284  12.601  17.711  0.00  0.00    +0.000 C 
ATOM     20  N   UNL     1       9.245  12.057  19.041  0.00  0.00    +0.000 N 
ATOM     21  C   UNL     1       9.238  12.765  20.201  0.00  0.00    +0.000 A 
ATOM     22  N   UNL     1       9.198  11.940  21.216  0.00  0.00    +0.000 NA
ATOM     23  N   UNL     1       9.196  10.662  20.719  0.00  0.00    +0.000 NA
ATOM     24  C   UNL     1       9.222  10.734  19.402  0.00  0.00    +0.000 A 
ENDBRANCH  18  24
ENDBRANCH  17  18
ENDBRANCH  11  17
ENDBRANCH   1  15
BRANCH   8  25
ATOM     25  C   UNL     1       3.168   7.676  18.053  0.00  0.00    +0.000 C 
ATOM     26  F   UNL     1       2.353   8.250  17.128  0.00  0.00    +0.000 F 
ATOM     27  F   UNL     1       2.619   7.968  19.262  0.00  0.00    +0.000 F 
ATOM     28  F   UNL     1       4.342   8.362  17.996  0.00  0.00    +0.000 F 
ENDBRANCH   8  25
BRANCH   6  29
ATOM     29  C   UNL     1       2.674   3.075  19.819  0.00  0.00    +0.000 C 
ATOM     30  N   UNL     1       1.669   2.481  20.301  0.00  0.00    +0.000 NA
ATOM     31  O   UNL     1       3.026   2.448  20.893  0.00  0.00    +0.000 OA
ENDBRANCH   6  29
TORSDOF 6
ENDMDL
MODEL 5
REMARK VINA RESULT:      -8.4      0.835      1.164
REMARK  Name = 
REMARK  7 active torsions:
REMARK  status: ('A' for Active; 'I' for Inactive)
REMARK    1  A    between atoms: C_1  and  N_2
REMARK    2  A    between atoms: C_6  and  C_7
REMARK    3  A    between atoms: C_7  and  C_8
REMARK    4  A    between atoms: C_8  and  C_9
REMARK    5  A    between atoms: C_13  and  N_14
REMARK    6  A    between atoms: C_19  and  C_20
REMARK    7  A    between atoms: C_24  and  C_25
REMARK                            x       y       z     vdW  Elec       q    Type
REMARK                         _______ _______ _______ _____ _____    ______ ____
ROOT
ATOM      1  N   UNL     1       3.085   3.890  18.983  0.00  0.00    +0.000 N 
ATOM      2  C   UNL     1       4.484   4.154  19.409  0.00  0.00    +0.000 C 
ATOM      3  C   UNL     1       5.211   4.170  18.095  0.00  0.00    +0.000 A 
ATOM      4  C   UNL     1       4.491   3.354  17.213  0.00  0.00    +0.000 A 
ATOM      5  C   UNL     1       4.790   3.250  15.869  0.00  0.00    +0.000 A 
ATOM      6  C   UNL     1       5.856   4.020  15.404  0.00  0.00    +0.000 A 
ATOM      7  C   UNL     1       6.585   4.864  16.268  0.00  0.00    +0.000 A 
ATOM      8  C   UNL     1       6.270   4.956  17.642  0.00  0.00    +0.000 A 
ATOM      9  C   UNL     1       3.186   3.048  17.840  0.00  0.00    +0.000 C 
ATOM     10  O   UNL     1       2.325   2.373  17.313  0.00  0.00    +0.000 OA
ENDROOT
BRANCH   1  15
ATOM     11  C   UNL     1       1.654   7.034  20.111  0.00  0.00    +0.000 A 
ATOM     12  C   UNL     1       2.363   7.881  19.247  0.00  0.00    +0.000 A 
ATOM     13  C   UNL     1       2.888   7.393  18.056  0.00  0.00    +0.000 A 
ATOM     14  C   UNL     1       2.831   6.031  17.783  0.00  0.00    +0.000 A 
ATOM     15  C   UNL     1       2.379   5.151  18.777  0.00  0.00    +0.000 A 
ATOM     16  C   UNL     1       1.640   5.660  19.853  0.00  0.00    +0.000 A 
BRANCH  11  17
ATOM     17  C   UNL     1       1.020   7.581  21.367  0.00  0.00    +0.000 C 
BRANCH  17  18
ATOM     18  C   UNL     1       1.571   8.964  21.717  0.00  0.00    +0.000 C 
BRANCH  18  24
ATOM     19  C   UNL     1       0.173  11.034  19.894  0.00  0.00    +0.000 C 
ATOM     20  N   UNL     1      -0.096  10.820  21.290  0.00  0.00    +0.000 N 
ATOM     21  C   UNL     1      -0.985  11.508  22.054  0.00  0.00    +0.000 A 
ATOM     22  N   UNL     1      -0.963  11.041  23.277  0.00  0.00    +0.000 NA
ATOM     23  N   UNL     1      -0.030  10.038  23.326  0.00  0.00    +0.000 NA
ATOM     24  C   UNL     1       0.492   9.903  22.123  0.00  0.00    +0.000 A 
ENDBRANCH  18  24
ENDBRANCH  17  18
ENDBRANCH  11  17
ENDBRANCH   1  15
BRANCH   8  25
ATOM     25  C   UNL     1       7.000   5.963  18.499  0.00  0.00    +0.000 C 
ATOM     26  F   UNL     1       6.626   7.252  18.282  0.00  0.00    +0.000 F 
ATOM     27  F   UNL     1       6.805   5.740  19.826  0.00  0.00    +0.000 F 
ATOM     28  F   UNL     1       8.346   5.925  18.303  0.00  0.00    +0.000 F 
ENDBRANCH   8  25
BRANCH   6  29
ATOM     29  C   UNL     1       6.149   4.030  14.019  0.00  0.00    +0.000 C 
ATOM     30  N   UNL     1       5.752   3.645  12.884  0.00  0.00    +0.000 NA
ATOM     31  O   UNL     1       6.993   4.417  13.120  0.00  0.00    +0.000 OA
ENDBRANCH   6  29
TORSDOF 6
ENDMDL
MODEL 6
REMARK VINA RESULT:      -8.4      1.082      1.407
REMARK  Name = 
REMARK  7 active torsions:
REMARK  status: ('A' for Active; 'I' for Inactive)
REMARK    1  A    between atoms: C_1  and  N_2
REMARK    2  A    between atoms: C_6  and  C_7
REMARK    3  A    between atoms: C_7  and  C_8
REMARK    4  A    between atoms: C_8  and  C_9
REMARK    5  A    between atoms: C_13  and  N_14
REMARK    6  A    between atoms: C_19  and  C_20
REMARK    7  A    between atoms: C_24  and  C_25
REMARK                            x       y       z     vdW  Elec       q    Type
REMARK                         _______ _______ _______ _____ _____    ______ ____
ROOT
ATOM      1  N   UNL     1       3.974   4.637  19.189  0.00  0.00    +0.000 N 
ATOM      2  C   UNL     1       5.330   5.237  19.291  0.00  0.00    +0.000 C 
ATOM      3  C   UNL     1       5.860   5.046  17.899  0.00  0.00    +0.000 A 
ATOM      4  C   UNL     1       5.219   3.922  17.363  0.00  0.00    +0.000 A 
ATOM      5  C   UNL     1       5.356   3.535  16.044  0.00  0.00    +0.000 A 
ATOM      6  C   UNL     1       6.167   4.334  15.239  0.00  0.00    +0.000 A 
ATOM      7  C   UNL     1       6.809   5.481  15.750  0.00  0.00    +0.000 A 
ATOM      8  C   UNL     1       6.663   5.862  17.103  0.00  0.00    +0.000 A 
ATOM      9  C   UNL     1       4.100   3.564  18.263  0.00  0.00    +0.000 C 
ATOM     10  O   UNL     1       3.339   2.640  18.059  0.00  0.00    +0.000 OA
ENDROOT
BRANCH   1  15
ATOM     11  C   UNL     1       1.875   7.513  19.918  0.00  0.00    +0.000 A 
ATOM     12  C   UNL     1       2.367   8.360  18.915  0.00  0.00    +0.000 A 
ATOM     13  C   UNL     1       2.980   7.832  17.784  0.00  0.00    +0.000 A 
ATOM     14  C   UNL     1       3.231   6.467  17.709  0.00  0.00    +0.000 A 
ATOM     15  C   UNL     1       2.999   5.664  18.836  0.00  0.00    +0.000 A 
ATOM     16  C   UNL     1       2.172   6.148  19.858  0.00  0.00    +0.000 A 
BRANCH  11  17
ATOM     17  C   UNL     1       1.144   8.083  21.109  0.00  0.00    +0.000 C 
BRANCH  17  18
ATOM     18  C   UNL     1       1.397   9.585  21.257  0.00  0.00    +0.000 C 
BRANCH  18  24
ATOM     19  C   UNL     1       1.615  12.595  20.581  0.00  0.00    +0.000 C 
ATOM     20  N   UNL     1       0.521  11.729  20.236  0.00  0.00    +0.000 N 
ATOM     21  C   UNL     1      -0.615  12.088  19.583  0.00  0.00    +0.000 A 
ATOM     22  N   UNL     1      -1.388  11.041  19.442  0.00  0.00    +0.000 NA
ATOM     23  N   UNL     1      -0.757   9.973  20.027  0.00  0.00    +0.000 NA
ATOM     24  C   UNL     1       0.399  10.390  20.505  0.00  0.00    +0.000 A 
ENDBRANCH  18  24
ENDBRANCH  17  18
ENDBRANCH  11  17
ENDBRANCH   1  15
BRANCH   8  25
ATOM     25  C   UNL     1       7.270   7.163  17.571  0.00  0.00    +0.000 C 
ATOM     26  F   UNL     1       8.158   7.708  16.697  0.00  0.00    +0.000 F 
ATOM     27  F   UNL     1       6.327   8.118  17.784  0.00  0.00    +0.000 F 
ATOM     28  F   UNL     1       7.939   7.025  18.749  0.00  0.00    +0.000 F 
ENDBRANCH   8  25
BRANCH   6  29
ATOM     29  C   UNL     1       6.270   4.043  13.858  0.00  0.00    +0.000 C 
ATOM     30  N   UNL     1       5.672   3.529  12.870  0.00  0.00    +0.000 NA
ATOM     31  O   UNL     1       7.031   4.117  12.816  0.00  0.00    +0.000 OA
ENDBRANCH   6  29
TORSDOF 6
ENDMDL
MODEL 7
REMARK VINA RESULT:      -8.4      4.040      6.929
REMARK  Name = 
REMARK  7 active torsions:
REMARK  status: ('A' for Active; 'I' for Inactive)
REMARK    1  A    between atoms: C_1  and  N_2
REMARK    2  A    between atoms: C_6  and  C_7
REMARK    3  A    between atoms: C_7  and  C_8
REMARK    4  A    between atoms: C_8  and  C_9
REMARK    5  A    between atoms: C_13  and  N_14
REMARK    6  A    between atoms: C_19  and  C_20
REMARK    7  A    between atoms: C_24  and  C_25
REMARK                            x       y       z     vdW  Elec       q    Type
REMARK                         _______ _______ _______ _____ _____    ______ ____
ROOT
ATOM      1  N   UNL     1       6.068   5.296  15.729  0.00  0.00    +0.000 N 
ATOM      2  C   UNL     1       4.922   6.239  15.809  0.00  0.00    +0.000 C 
ATOM      3  C   UNL     1       4.106   5.644  16.920  0.00  0.00    +0.000 A 
ATOM      4  C   UNL     1       4.369   4.268  16.935  0.00  0.00    +0.000 A 
ATOM      5  C   UNL     1       3.899   3.423  17.921  0.00  0.00    +0.000 A 
ATOM      6  C   UNL     1       3.145   4.007  18.938  0.00  0.00    +0.000 A 
ATOM      7  C   UNL     1       2.882   5.393  18.956  0.00  0.00    +0.000 A 
ATOM      8  C   UNL     1       3.365   6.244  17.937  0.00  0.00    +0.000 A 
ATOM      9  C   UNL     1       5.533   4.018  16.057  0.00  0.00    +0.000 C 
ATOM     10  O   UNL     1       6.019   2.920  15.875  0.00  0.00    +0.000 OA
ENDROOT
BRANCH   1  15
ATOM     11  C   UNL     1       7.812   7.804  17.697  0.00  0.00    +0.000 A 
ATOM     12  C   UNL     1       7.853   7.095  18.906  0.00  0.00    +0.000 A 
ATOM     13  C   UNL     1       7.759   5.708  18.913  0.00  0.00    +0.000 A 
ATOM     14  C   UNL     1       7.484   5.029  17.732  0.00  0.00    +0.000 A 
ATOM     15  C   UNL     1       7.158   5.760  16.580  0.00  0.00    +0.000 A 
ATOM     16  C   UNL     1       7.490   7.120  16.521  0.00  0.00    +0.000 A 
BRANCH  11  17
ATOM     17  C   UNL     1       7.989   9.303  17.684  0.00  0.00    +0.000 C 
BRANCH  17  18
ATOM     18  C   UNL     1       8.837   9.779  18.865  0.00  0.00    +0.000 C 
BRANCH  18  24
ATOM     19  C   UNL     1       7.918  12.358  17.428  0.00  0.00    +0.000 C 
ATOM     20  N   UNL     1       9.260  12.056  17.844  0.00  0.00    +0.000 N 
ATOM     21  C   UNL     1      10.358  12.834  17.653  0.00  0.00    +0.000 A 
ATOM     22  N   UNL     1      11.408  12.242  18.163  0.00  0.00    +0.000 NA
ATOM     23  N   UNL     1      10.999  11.043  18.688  0.00  0.00    +0.000 NA
ATOM     24  C   UNL     1       9.699  10.932  18.497  0.00  0.00    +0.000 A 
ENDBRANCH  18  24
ENDBRANCH  17  18
ENDBRANCH  11  17
ENDBRANCH   1  15
BRANCH   8  25
ATOM     25  C   UNL     1       3.160   7.734  18.064  0.00  0.00    +0.000 C 
ATOM     26  F   UNL     1       4.305   8.463  17.971  0.00  0.00    +0.000 F 
ATOM     27  F   UNL     1       2.334   8.220  17.100  0.00  0.00    +0.000 F 
ATOM     28  F   UNL     1       2.594   8.077  19.254  0.00  0.00    +0.000 F 
ENDBRANCH   8  25
BRANCH   6  29
ATOM     29  C   UNL     1       2.718   3.209  20.027  0.00  0.00    +0.000 C 
ATOM     30  N   UNL     1       3.110   2.525  21.013  0.00  0.00    +0.000 NA
ATOM     31  O   UNL     1       1.691   2.707  20.630  0.00  0.00    +0.000 OA
ENDBRANCH   6  29
TORSDOF 6
ENDMDL
MODEL 8
REMARK VINA RESULT:      -8.3      3.956      8.218
REMARK  Name = 
REMARK  7 active torsions:
REMARK  status: ('A' for Active; 'I' for Inactive)
REMARK    1  A    between atoms: C_1  and  N_2
REMARK    2  A    between atoms: C_6  and  C_7
REMARK    3  A    between atoms: C_7  and  C_8
REMARK    4  A    between atoms: C_8  and  C_9
REMARK    5  A    between atoms: C_13  and  N_14
REMARK    6  A    between atoms: C_19  and  C_20
REMARK    7  A    between atoms: C_24  and  C_25
REMARK                            x       y       z     vdW  Elec       q    Type
REMARK                         _______ _______ _______ _____ _____    ______ ____
ROOT
ATOM      1  N   UNL     1       2.541   7.443  19.376  0.00  0.00    +0.000 N 
ATOM      2  C   UNL     1       2.227   8.230  20.596  0.00  0.00    +0.000 C 
ATOM      3  C   UNL     1       1.110   9.113  20.119  0.00  0.00    +0.000 A 
ATOM      4  C   UNL     1       1.284   9.290  18.740  0.00  0.00    +0.000 A 
ATOM      5  C   UNL     1       0.357   9.931  17.940  0.00  0.00    +0.000 A 
ATOM      6  C   UNL     1      -0.797  10.394  18.570  0.00  0.00    +0.000 A 
ATOM      7  C   UNL     1      -1.005  10.212  19.953  0.00  0.00    +0.000 A 
ATOM      8  C   UNL     1      -0.045   9.559  20.759  0.00  0.00    +0.000 A 
ATOM      9  C   UNL     1       2.308   8.324  18.283  0.00  0.00    +0.000 C 
ATOM     10  O   UNL     1       2.668   8.217  17.128  0.00  0.00    +0.000 OA
ENDROOT
BRANCH   1  15
ATOM     11  C   UNL     1       2.015   3.945  18.542  0.00  0.00    +0.000 A 
ATOM     12  C   UNL     1       1.784   3.478  19.843  0.00  0.00    +0.000 A 
ATOM     13  C   UNL     1       1.342   4.345  20.837  0.00  0.00    +0.000 A 
ATOM     14  C   UNL     1       1.260   5.708  20.575  0.00  0.00    +0.000 A 
ATOM     15  C   UNL     1       1.766   6.206  19.365  0.00  0.00    +0.000 A 
ATOM     16  C   UNL     1       1.975   5.321  18.300  0.00  0.00    +0.000 A 
BRANCH  11  17
ATOM     17  C   UNL     1       2.423   2.989  17.448  0.00  0.00    +0.000 C 
BRANCH  17  18
ATOM     18  C   UNL     1       3.795   2.370  17.725  0.00  0.00    +0.000 C 
BRANCH  18  24
ATOM     19  C   UNL     1       5.218   4.281  15.754  0.00  0.00    +0.000 C 
ATOM     20  N   UNL     1       5.429   4.223  17.174  0.00  0.00    +0.000 N 
ATOM     21  C   UNL     1       6.308   4.973  17.889  0.00  0.00    +0.000 A 
ATOM     22  N   UNL     1       6.228   4.651  19.156  0.00  0.00    +0.000 NA
ATOM     23  N   UNL     1       5.290   3.658  19.277  0.00  0.00    +0.000 NA
ATOM     24  C   UNL     1       4.805   3.402  18.078  0.00  0.00    +0.000 A 
ENDBRANCH  18  24
ENDBRANCH  17  18
ENDBRANCH  11  17
ENDBRANCH   1  15
BRANCH   8  25
ATOM     25  C   UNL     1      -0.367   9.282  22.208  0.00  0.00    +0.000 C 
ATOM     26  F   UNL     1       0.718   9.283  23.028  0.00  0.00    +0.000 F 
ATOM     27  F   UNL     1      -1.223  10.202  22.725  0.00  0.00    +0.000 F 
ATOM     28  F   UNL     1      -0.965   8.071  22.380  0.00  0.00    +0.000 F 
ENDBRANCH   8  25
BRANCH   6  29
ATOM     29  C   UNL     1      -1.825  10.973  17.788  0.00  0.00    +0.000 C 
ATOM     30  N   UNL     1      -2.321  11.034  16.627  0.00  0.00    +0.000 NA
ATOM     31  O   UNL     1      -2.835  11.780  17.799  0.00  0.00    +0.000 OA
ENDBRANCH   6  29
TORSDOF 6
ENDMDL
MODEL 9
REMARK VINA RESULT:      -8.2      4.016      8.331
REMARK  Name = 
REMARK  7 active torsions:
REMARK  status: ('A' for Active; 'I' for Inactive)
REMARK    1  A    between atoms: C_1  and  N_2
REMARK    2  A    between atoms: C_6  and  C_7
REMARK    3  A    between atoms: C_7  and  C_8
REMARK    4  A    between atoms: C_8  and  C_9
REMARK    5  A    between atoms: C_13  and  N_14
REMARK    6  A    between atoms: C_19  and  C_20
REMARK    7  A    between atoms: C_24  and  C_25
REMARK                            x       y       z     vdW  Elec       q    Type
REMARK                         _______ _______ _______ _____ _____    ______ ____
ROOT
ATOM      1  N   UNL     1       2.553   7.626  19.384  0.00  0.00    +0.000 N 
ATOM      2  C   UNL     1       2.211   8.414  20.596  0.00  0.00    +0.000 C 
ATOM      3  C   UNL     1       1.047   9.232  20.116  0.00  0.00    +0.000 A 
ATOM      4  C   UNL     1       1.199   9.398  18.733  0.00  0.00    +0.000 A 
ATOM      5  C   UNL     1       0.234   9.978  17.933  0.00  0.00    +0.000 A 
ATOM      6  C   UNL     1      -0.936  10.393  18.567  0.00  0.00    +0.000 A 
ATOM      7  C   UNL     1      -1.122  10.222  19.955  0.00  0.00    +0.000 A 
ATOM      8  C   UNL     1      -0.123   9.630  20.761  0.00  0.00    +0.000 A 
ATOM      9  C   UNL     1       2.266   8.477  18.280  0.00  0.00    +0.000 C 
ATOM     10  O   UNL     1       2.620   8.371  17.124  0.00  0.00    +0.000 OA
ENDROOT
BRANCH   1  15
ATOM     11  C   UNL     1       2.142   4.123  18.507  0.00  0.00    +0.000 A 
ATOM     12  C   UNL     1       2.029   3.618  19.810  0.00  0.00    +0.000 A 
ATOM     13  C   UNL     1       1.617   4.442  20.852  0.00  0.00    +0.000 A 
ATOM     14  C   UNL     1       1.450   5.804  20.630  0.00  0.00    +0.000 A 
ATOM     15  C   UNL     1       1.842   6.351  19.399  0.00  0.00    +0.000 A 
ATOM     16  C   UNL     1       2.017   5.500  18.300  0.00  0.00    +0.000 A 
BRANCH  11  17
ATOM     17  C   UNL     1       2.517   3.211  17.364  0.00  0.00    +0.000 C 
BRANCH  17  18
ATOM     18  C   UNL     1       4.001   2.840  17.406  0.00  0.00    +0.000 C 
BRANCH  18  24
ATOM     19  C   UNL     1       5.662   4.853  19.063  0.00  0.00    +0.000 C 
ATOM     20  N   UNL     1       5.570   4.812  17.629  0.00  0.00    +0.000 N 
ATOM     21  C   UNL     1       6.170   5.666  16.759  0.00  0.00    +0.000 A 
ATOM     22  N   UNL     1       5.863   5.327  15.532  0.00  0.00    +0.000 NA
ATOM     23  N   UNL     1       5.032   4.238  15.594  0.00  0.00    +0.000 NA
ATOM     24  C   UNL     1       4.858   3.926  16.863  0.00  0.00    +0.000 A 
ENDBRANCH  18  24
ENDBRANCH  17  18
ENDBRANCH  11  17
ENDBRANCH   1  15
BRANCH   8  25
ATOM     25  C   UNL     1      -0.418   9.358  22.217  0.00  0.00    +0.000 C 
ATOM     26  F   UNL     1      -0.953   8.131  22.456  0.00  0.00    +0.000 F 
ATOM     27  F   UNL     1       0.701   9.430  22.985  0.00  0.00    +0.000 F 
ATOM     28  F   UNL     1      -1.295  10.258  22.742  0.00  0.00    +0.000 F 
ENDBRANCH   8  25
BRANCH   6  29
ATOM     29  C   UNL     1      -1.999  10.907  17.787  0.00  0.00    +0.000 C 
ATOM     30  N   UNL     1      -2.376  11.166  16.609  0.00  0.00    +0.000 NA
ATOM     31  O   UNL     1      -3.184  11.423  17.823  0.00  0.00    +0.000 OA
ENDBRANCH   6  29
TORSDOF 6
ENDMDL
