MODEL 1
REMARK VINA RESULT:      -8.1      0.000      0.000
REMARK  Name = 
REMARK  5 active torsions:
REMARK  status: ('A' for Active; 'I' for Inactive)
REMARK    1  A    between atoms: C_1  and  C_2
REMARK    2  A    between atoms: C_6  and  N_7
REMARK    3  A    between atoms: C_8  and  C_10
REMARK    4  A    between atoms: N_12  and  C_13
REMARK    5  A    between atoms: N_22  and  C_23
REMARK                            x       y       z     vdW  Elec       q    Type
REMARK                         _______ _______ _______ _____ _____    ______ ____
ROOT
ATOM      1  C   UNL     1       2.105   6.223  20.257  0.00  0.00    +0.000 C 
ATOM      2  O   UNL     1       1.177   5.640  20.809  0.00  0.00    +0.000 OA
ATOM      3  N   UNL     1       2.232   7.574  19.969  0.00  0.00    +0.000 N 
ATOM      4  H   UNL     1       3.034   7.822  19.389  0.00  0.00    +0.000 HD
ENDROOT
BRANCH   3   5
ATOM      5  C   UNL     1       1.292   8.575  20.288  0.00  0.00    +0.000 A 
ATOM      6  C   UNL     1       0.618   9.289  19.274  0.00  0.00    +0.000 A 
ATOM      7  C   UNL     1      -0.263  10.330  19.570  0.00  0.00    +0.000 A 
ATOM      8  C   UNL     1      -0.439  10.635  20.897  0.00  0.00    +0.000 A 
ATOM      9  C   UNL     1       0.185   9.931  21.906  0.00  0.00    +0.000 A 
ATOM     10  C   UNL     1       1.039   8.876  21.635  0.00  0.00    +0.000 A 
ATOM     11  O   UNL     1      -0.127  10.431  23.165  0.00  0.00    +0.000 OA
ATOM     12  C   UNL     1      -0.982  11.511  22.871  0.00  0.00    +0.000 A 
ATOM     13  O   UNL     1      -1.463  12.232  23.732  0.00  0.00    +0.000 OA
ATOM     14  N   UNL     1      -1.181  11.618  21.511  0.00  0.00    +0.000 N 
ATOM     15  C   UNL     1      -1.988  12.589  20.829  0.00  0.00    +0.000 C 
ENDBRANCH   3   5
BRANCH   1  17
ATOM     16  N   UNL     1       4.159   6.065  18.916  0.00  0.00    +0.000 N 
ATOM     17  C   UNL     1       3.281   5.384  19.747  0.00  0.00    +0.000 C 
ATOM     18  O   UNL     1       3.329   4.222  20.126  0.00  0.00    +0.000 OA
ATOM     19  H   UNL     1       3.934   7.044  18.728  0.00  0.00    +0.000 HD
BRANCH  16  25
ATOM     20  C   UNL     1       6.316   3.804  15.033  0.00  0.00    +0.000 C 
ATOM     21  C   UNL     1       6.394   4.424  16.397  0.00  0.00    +0.000 A 
ATOM     22  C   UNL     1       7.622   4.470  17.066  0.00  0.00    +0.000 A 
ATOM     23  C   UNL     1       7.708   5.037  18.332  0.00  0.00    +0.000 A 
ATOM     24  C   UNL     1       6.574   5.566  18.950  0.00  0.00    +0.000 A 
ATOM     25  C   UNL     1       5.329   5.540  18.313  0.00  0.00    +0.000 A 
ATOM     26  C   UNL     1       5.259   4.964  17.029  0.00  0.00    +0.000 A 
ATOM     27  F   UNL     1       4.077   4.923  16.392  0.00  0.00    +0.000 F 
ENDBRANCH  16  25
ENDBRANCH   1  17
TORSDOF 3
ENDMDL
MODEL 2
REMARK VINA RESULT:      -8.0      1.144      1.620
REMARK  Name = 
REMARK  5 active torsions:
REMARK  status: ('A' for Active; 'I' for Inactive)
REMARK    1  A    between atoms: C_1  and  C_2
REMARK    2  A    between atoms: C_6  and  N_7
REMARK    3  A    between atoms: C_8  and  C_10
REMARK    4  A    between atoms: N_12  and  C_13
REMARK    5  A    between atoms: N_22  and  C_23
REMARK                            x       y       z     vdW  Elec       q    Type
REMARK                         _______ _______ _______ _____ _____    ______ ____
ROOT
ATOM      1  C   UNL     1       2.060   6.147  20.323  0.00  0.00    +0.000 C 
ATOM      2  O   UNL     1       1.095   5.560  20.804  0.00  0.00    +0.000 OA
ATOM      3  N   UNL     1       2.285   7.512  20.225  0.00  0.00    +0.000 N 
ATOM      4  H   UNL     1       3.099   7.780  19.671  0.00  0.00    +0.000 HD
ENDROOT
BRANCH   3   5
ATOM      5  C   UNL     1       1.425   8.523  20.698  0.00  0.00    +0.000 A 
ATOM      6  C   UNL     1       1.129   8.642  22.073  0.00  0.00    +0.000 A 
ATOM      7  C   UNL     1       0.226   9.593  22.550  0.00  0.00    +0.000 A 
ATOM      8  C   UNL     1      -0.371  10.405  21.619  0.00  0.00    +0.000 A 
ATOM      9  C   UNL     1      -0.074  10.328  20.274  0.00  0.00    +0.000 A 
ATOM     10  C   UNL     1       0.841   9.413  19.782  0.00  0.00    +0.000 A 
ATOM     11  O   UNL     1      -0.814  11.233  19.521  0.00  0.00    +0.000 OA
ATOM     12  C   UNL     1      -1.608  11.875  20.491  0.00  0.00    +0.000 A 
ATOM     13  O   UNL     1      -2.424  12.740  20.216  0.00  0.00    +0.000 OA
ATOM     14  N   UNL     1      -1.326  11.387  21.750  0.00  0.00    +0.000 N 
ATOM     15  C   UNL     1      -1.926  11.793  22.988  0.00  0.00    +0.000 C 
ENDBRANCH   3   5
BRANCH   1  17
ATOM     16  N   UNL     1       4.149   6.040  19.033  0.00  0.00    +0.000 N 
ATOM     17  C   UNL     1       3.165   5.305  19.678  0.00  0.00    +0.000 C 
ATOM     18  O   UNL     1       3.074   4.092  19.806  0.00  0.00    +0.000 OA
ATOM     19  H   UNL     1       4.036   7.055  19.049  0.00  0.00    +0.000 HD
BRANCH  16  25
ATOM     20  C   UNL     1       6.108   3.848  15.007  0.00  0.00    +0.000 C 
ATOM     21  C   UNL     1       6.255   4.442  16.378  0.00  0.00    +0.000 A 
ATOM     22  C   UNL     1       7.513   4.470  16.988  0.00  0.00    +0.000 A 
ATOM     23  C   UNL     1       7.662   5.012  18.259  0.00  0.00    +0.000 A 
ATOM     24  C   UNL     1       6.561   5.533  18.941  0.00  0.00    +0.000 A 
ATOM     25  C   UNL     1       5.287   5.524  18.364  0.00  0.00    +0.000 A 
ATOM     26  C   UNL     1       5.153   4.972  17.074  0.00  0.00    +0.000 A 
ATOM     27  F   UNL     1       3.942   4.948  16.494  0.00  0.00    +0.000 F 
ENDBRANCH  16  25
ENDBRANCH   1  17
TORSDOF 3
ENDMDL
MODEL 3
REMARK VINA RESULT:      -8.0      7.107      8.802
REMARK  Name = 
REMARK  5 active torsions:
REMARK  status: ('A' for Active; 'I' for Inactive)
REMARK    1  A    between atoms: C_1  and  C_2
REMARK    2  A    between atoms: C_6  and  N_7
REMARK    3  A    between atoms: C_8  and  C_10
REMARK    4  A    between atoms: N_12  and  C_13
REMARK    5  A    between atoms: N_22  and  C_23
REMARK                            x       y       z     vdW  Elec       q    Type
REMARK                         _______ _______ _______ _____ _____    ______ ____
ROOT
ATOM      1  C   UNL     1       8.188   9.249  18.118  0.00  0.00    +0.000 C 
ATOM      2  O   UNL     1       7.620  10.047  17.378  0.00  0.00    +0.000 OA
ATOM      3  N   UNL     1       9.214   9.483  19.022  0.00  0.00    +0.000 N 
ATOM      4  H   UNL     1       9.623   8.649  19.442  0.00  0.00    +0.000 HD
ENDROOT
BRANCH   3   5
ATOM      5  C   UNL     1       9.805  10.735  19.289  0.00  0.00    +0.000 A 
ATOM      6  C   UNL     1       9.726  11.318  20.571  0.00  0.00    +0.000 A 
ATOM      7  C   UNL     1      10.245  12.587  20.834  0.00  0.00    +0.000 A 
ATOM      8  C   UNL     1      10.832  13.248  19.784  0.00  0.00    +0.000 A 
ATOM      9  C   UNL     1      10.949  12.684  18.530  0.00  0.00    +0.000 A 
ATOM     10  C   UNL     1      10.468  11.415  18.255  0.00  0.00    +0.000 A 
ATOM     11  O   UNL     1      11.559  13.544  17.623  0.00  0.00    +0.000 OA
ATOM     12  C   UNL     1      11.803  14.695  18.397  0.00  0.00    +0.000 A 
ATOM     13  O   UNL     1      12.320  15.704  17.943  0.00  0.00    +0.000 OA
ATOM     14  N   UNL     1      11.382  14.506  19.697  0.00  0.00    +0.000 N 
ATOM     15  C   UNL     1      11.463  15.446  20.777  0.00  0.00    +0.000 C 
ENDBRANCH   3   5
BRANCH   1  17
ATOM     16  N   UNL     1       6.811   7.496  17.083  0.00  0.00    +0.000 N 
ATOM     17  C   UNL     1       7.787   7.773  18.029  0.00  0.00    +0.000 C 
ATOM     18  O   UNL     1       8.366   7.002  18.781  0.00  0.00    +0.000 OA
ATOM     19  H   UNL     1       6.460   8.295  16.550  0.00  0.00    +0.000 HD
BRANCH  16  25
ATOM     20  C   UNL     1       3.089   4.220  17.595  0.00  0.00    +0.000 C 
ATOM     21  C   UNL     1       4.427   4.607  17.035  0.00  0.00    +0.000 A 
ATOM     22  C   UNL     1       5.126   3.702  16.229  0.00  0.00    +0.000 A 
ATOM     23  C   UNL     1       6.368   4.045  15.707  0.00  0.00    +0.000 A 
ATOM     24  C   UNL     1       6.932   5.293  15.982  0.00  0.00    +0.000 A 
ATOM     25  C   UNL     1       6.264   6.224  16.782  0.00  0.00    +0.000 A 
ATOM     26  C   UNL     1       5.004   5.862  17.301  0.00  0.00    +0.000 A 
ATOM     27  F   UNL     1       4.338   6.735  18.074  0.00  0.00    +0.000 F 
ENDBRANCH  16  25
ENDBRANCH   1  17
TORSDOF 3
ENDMDL
MODEL 4
REMARK VINA RESULT:      -7.7      1.767      1.878
REMARK  Name = 
REMARK  5 active torsions:
REMARK  status: ('A' for Active; 'I' for Inactive)
REMARK    1  A    between atoms: C_1  and  C_2
REMARK    2  A    between atoms: C_6  and  N_7
REMARK    3  A    between atoms: C_8  and  C_10
REMARK    4  A    between atoms: N_12  and  C_13
REMARK    5  A    between atoms: N_22  and  C_23
REMARK                            x       y       z     vdW  Elec       q    Type
REMARK                         _______ _______ _______ _____ _____    ______ ____
ROOT
ATOM      1  C   UNL     1       2.160   8.532  18.232  0.00  0.00    +0.000 C 
ATOM      2  O   UNL     1       2.302   9.443  17.422  0.00  0.00    +0.000 OA
ATOM      3  N   UNL     1       1.375   8.502  19.376  0.00  0.00    +0.000 N 
ATOM      4  H   UNL     1       1.507   7.685  19.973  0.00  0.00    +0.000 HD
ENDROOT
BRANCH   3   5
ATOM      5  C   UNL     1       0.543   9.545  19.830  0.00  0.00    +0.000 A 
ATOM      6  C   UNL     1      -0.311  10.232  18.941  0.00  0.00    +0.000 A 
ATOM      7  C   UNL     1      -1.090  11.313  19.359  0.00  0.00    +0.000 A 
ATOM      8  C   UNL     1      -0.982  11.684  20.675  0.00  0.00    +0.000 A 
ATOM      9  C   UNL     1      -0.178  11.007  21.569  0.00  0.00    +0.000 A 
ATOM     10  C   UNL     1       0.580   9.915  21.184  0.00  0.00    +0.000 A 
ATOM     11  O   UNL     1      -0.212  11.573  22.838  0.00  0.00    +0.000 OA
ATOM     12  C   UNL     1      -1.087  12.665  22.672  0.00  0.00    +0.000 A 
ATOM     13  O   UNL     1      -1.364  13.438  23.576  0.00  0.00    +0.000 OA
ATOM     14  N   UNL     1      -1.560  12.716  21.378  0.00  0.00    +0.000 N 
ATOM     15  C   UNL     1      -2.470  13.679  20.828  0.00  0.00    +0.000 C 
ENDBRANCH   3   5
BRANCH   1  17
ATOM     16  N   UNL     1       4.278   7.468  17.585  0.00  0.00    +0.000 N 
ATOM     17  C   UNL     1       2.982   7.255  18.031  0.00  0.00    +0.000 C 
ATOM     18  O   UNL     1       2.424   6.198  18.289  0.00  0.00    +0.000 OA
ATOM     19  H   UNL     1       4.550   8.441  17.434  0.00  0.00    +0.000 HD
BRANCH  16  25
ATOM     20  C   UNL     1       6.794   4.711  14.280  0.00  0.00    +0.000 C 
ATOM     21  C   UNL     1       6.497   5.114  15.695  0.00  0.00    +0.000 A 
ATOM     22  C   UNL     1       7.182   4.496  16.746  0.00  0.00    +0.000 A 
ATOM     23  C   UNL     1       6.914   4.855  18.062  0.00  0.00    +0.000 A 
ATOM     24  C   UNL     1       5.960   5.833  18.349  0.00  0.00    +0.000 A 
ATOM     25  C   UNL     1       5.256   6.474  17.326  0.00  0.00    +0.000 A 
ATOM     26  C   UNL     1       5.541   6.100  15.997  0.00  0.00    +0.000 A 
ATOM     27  F   UNL     1       4.880   6.697  14.992  0.00  0.00    +0.000 F 
ENDBRANCH  16  25
ENDBRANCH   1  17
TORSDOF 3
ENDMDL
MODEL 5
REMARK VINA RESULT:      -7.6      3.261      9.402
REMARK  Name = 
REMARK  5 active torsions:
REMARK  status: ('A' for Active; 'I' for Inactive)
REMARK    1  A    between atoms: C_1  and  C_2
REMARK    2  A    between atoms: C_6  and  N_7
REMARK    3  A    between atoms: C_8  and  C_10
REMARK    4  A    between atoms: N_12  and  C_13
REMARK    5  A    between atoms: N_22  and  C_23
REMARK                            x       y       z     vdW  Elec       q    Type
REMARK                         _______ _______ _______ _____ _____    ______ ____
ROOT
ATOM      1  C   UNL     1       0.280   8.476  21.533  0.00  0.00    +0.000 C 
ATOM      2  O   UNL     1      -0.756   7.827  21.425  0.00  0.00    +0.000 OA
ATOM      3  N   UNL     1       1.554   8.158  21.086  0.00  0.00    +0.000 N 
ATOM      4  H   UNL     1       2.294   8.787  21.398  0.00  0.00    +0.000 HD
ENDROOT
BRANCH   3   5
ATOM      5  C   UNL     1       1.909   6.995  20.374  0.00  0.00    +0.000 A 
ATOM      6  C   UNL     1       1.611   5.712  20.882  0.00  0.00    +0.000 A 
ATOM      7  C   UNL     1       2.016   4.549  20.225  0.00  0.00    +0.000 A 
ATOM      8  C   UNL     1       2.729   4.709  19.063  0.00  0.00    +0.000 A 
ATOM      9  C   UNL     1       3.005   5.952  18.531  0.00  0.00    +0.000 A 
ATOM     10  C   UNL     1       2.586   7.118  19.150  0.00  0.00    +0.000 A 
ATOM     11  O   UNL     1       3.754   5.868  17.363  0.00  0.00    +0.000 OA
ATOM     12  C   UNL     1       3.940   4.481  17.208  0.00  0.00    +0.000 A 
ATOM     13  O   UNL     1       4.580   3.994  16.288  0.00  0.00    +0.000 OA
ATOM     14  N   UNL     1       3.308   3.789  18.219  0.00  0.00    +0.000 N 
ATOM     15  C   UNL     1       3.270   2.366  18.401  0.00  0.00    +0.000 C 
ENDBRANCH   3   5
BRANCH   1  17
ATOM     16  N   UNL     1      -0.359  10.848  21.620  0.00  0.00    +0.000 N 
ATOM     17  C   UNL     1       0.225   9.795  22.310  0.00  0.00    +0.000 C 
ATOM     18  O   UNL     1       0.684   9.783  23.443  0.00  0.00    +0.000 OA
ATOM     19  H   UNL     1      -0.686  10.640  20.674  0.00  0.00    +0.000 HD
BRANCH  16  25
ATOM     20  C   UNL     1      -2.959  14.036  24.434  0.00  0.00    +0.000 C 
ATOM     21  C   UNL     1      -1.833  13.743  23.486  0.00  0.00    +0.000 A 
ATOM     22  C   UNL     1      -0.988  14.779  23.074  0.00  0.00    +0.000 A 
ATOM     23  C   UNL     1       0.055  14.522  22.192  0.00  0.00    +0.000 A 
ATOM     24  C   UNL     1       0.272  13.230  21.708  0.00  0.00    +0.000 A 
ATOM     25  C   UNL     1      -0.550  12.168  22.097  0.00  0.00    +0.000 A 
ATOM     26  C   UNL     1      -1.602  12.445  22.994  0.00  0.00    +0.000 A 
ATOM     27  F   UNL     1      -2.410  11.446  23.385  0.00  0.00    +0.000 F 
ENDBRANCH  16  25
ENDBRANCH   1  17
TORSDOF 3
ENDMDL
MODEL 6
REMARK VINA RESULT:      -7.5      3.409      9.351
REMARK  Name = 
REMARK  5 active torsions:
REMARK  status: ('A' for Active; 'I' for Inactive)
REMARK    1  A    between atoms: C_1  and  C_2
REMARK    2  A    between atoms: C_6  and  N_7
REMARK    3  A    between atoms: C_8  and  C_10
REMARK    4  A    between atoms: N_12  and  C_13
REMARK    5  A    between atoms: N_22  and  C_23
REMARK                            x       y       z     vdW  Elec       q    Type
REMARK                         _______ _______ _______ _____ _____    ______ ____
ROOT
ATOM      1  C   UNL     1       0.165   8.641  21.627  0.00  0.00    +0.000 C 
ATOM      2  O   UNL     1      -0.824   7.921  21.533  0.00  0.00    +0.000 OA
ATOM      3  N   UNL     1       1.443   8.430  21.130  0.00  0.00    +0.000 N 
ATOM      4  H   UNL     1       2.146   9.102  21.436  0.00  0.00    +0.000 HD
ENDROOT
BRANCH   3   5
ATOM      5  C   UNL     1       1.856   7.316  20.372  0.00  0.00    +0.000 A 
ATOM      6  C   UNL     1       2.396   7.476  19.078  0.00  0.00    +0.000 A 
ATOM      7  C   UNL     1       2.746   6.380  18.287  0.00  0.00    +0.000 A 
ATOM      8  C   UNL     1       2.533   5.135  18.823  0.00  0.00    +0.000 A 
ATOM      9  C   UNL     1       2.037   4.954  20.097  0.00  0.00    +0.000 A 
ATOM     10  C   UNL     1       1.711   6.027  20.910  0.00  0.00    +0.000 A 
ATOM     11  O   UNL     1       1.887   3.610  20.416  0.00  0.00    +0.000 OA
ATOM     12  C   UNL     1       2.314   2.959  19.242  0.00  0.00    +0.000 A 
ATOM     13  O   UNL     1       2.311   1.744  19.117  0.00  0.00    +0.000 OA
ATOM     14  N   UNL     1       2.717   3.877  18.296  0.00  0.00    +0.000 N 
ATOM     15  C   UNL     1       3.216   3.600  16.980  0.00  0.00    +0.000 C 
ENDBRANCH   3   5
BRANCH   1  17
ATOM     16  N   UNL     1      -0.480  11.010  21.746  0.00  0.00    +0.000 N 
ATOM     17  C   UNL     1       0.041   9.931  22.445  0.00  0.00    +0.000 C 
ATOM     18  O   UNL     1       0.399   9.875  23.613  0.00  0.00    +0.000 OA
ATOM     19  H   UNL     1      -0.723  10.838  20.767  0.00  0.00    +0.000 HD
BRANCH  16  25
ATOM     20  C   UNL     1      -3.230  14.065  24.564  0.00  0.00    +0.000 C 
ATOM     21  C   UNL     1      -2.070  13.821  23.644  0.00  0.00    +0.000 A 
ATOM     22  C   UNL     1      -1.235  14.885  23.287  0.00  0.00    +0.000 A 
ATOM     23  C   UNL     1      -0.160  14.673  22.432  0.00  0.00    +0.000 A 
ATOM     24  C   UNL     1       0.098  13.401  21.919  0.00  0.00    +0.000 A 
ATOM     25  C   UNL     1      -0.713  12.312  22.253  0.00  0.00    +0.000 A 
ATOM     26  C   UNL     1      -1.797  12.543  23.123  0.00  0.00    +0.000 A 
ATOM     27  F   UNL     1      -2.596  11.517  23.462  0.00  0.00    +0.000 F 
ENDBRANCH  16  25
ENDBRANCH   1  17
TORSDOF 3
ENDMDL
MODEL 7
REMARK VINA RESULT:      -7.5      3.006      9.331
REMARK  Name = 
REMARK  5 active torsions:
REMARK  status: ('A' for Active; 'I' for Inactive)
REMARK    1  A    between atoms: C_1  and  C_2
REMARK    2  A    between atoms: C_6  and  N_7
REMARK    3  A    between atoms: C_8  and  C_10
REMARK    4  A    between atoms: N_12  and  C_13
REMARK    5  A    between atoms: N_22  and  C_23
REMARK                            x       y       z     vdW  Elec       q    Type
REMARK                         _______ _______ _______ _____ _____    ______ ____
ROOT
ATOM      1  C   UNL     1       1.256   8.767  20.436  0.00  0.00    +0.000 C 
ATOM      2  O   UNL     1       1.098   9.086  19.261  0.00  0.00    +0.000 OA
ATOM      3  N   UNL     1       1.695   7.558  20.955  0.00  0.00    +0.000 N 
ATOM      4  H   UNL     1       1.629   7.470  21.969  0.00  0.00    +0.000 HD
ENDROOT
BRANCH   3   5
ATOM      5  C   UNL     1       2.078   6.430  20.202  0.00  0.00    +0.000 A 
ATOM      6  C   UNL     1       1.614   5.140  20.536  0.00  0.00    +0.000 A 
ATOM      7  C   UNL     1       2.038   4.005  19.845  0.00  0.00    +0.000 A 
ATOM      8  C   UNL     1       2.938   4.198  18.826  0.00  0.00    +0.000 A 
ATOM      9  C   UNL     1       3.382   5.452  18.461  0.00  0.00    +0.000 A 
ATOM     10  C   UNL     1       2.951   6.595  19.114  0.00  0.00    +0.000 A 
ATOM     11  O   UNL     1       4.301   5.401  17.420  0.00  0.00    +0.000 OA
ATOM     12  C   UNL     1       4.413   4.020  17.167  0.00  0.00    +0.000 A 
ATOM     13  O   UNL     1       5.158   3.558  16.317  0.00  0.00    +0.000 OA
ATOM     14  N   UNL     1       3.580   3.304  18.001  0.00  0.00    +0.000 N 
ATOM     15  C   UNL     1       3.415   1.879  18.041  0.00  0.00    +0.000 C 
ENDBRANCH   3   5
BRANCH   1  17
ATOM     16  N   UNL     1      -0.033  10.750  21.106  0.00  0.00    +0.000 N 
ATOM     17  C   UNL     1       0.877   9.786  21.516  0.00  0.00    +0.000 C 
ATOM     18  O   UNL     1       1.400   9.641  22.612  0.00  0.00    +0.000 OA
ATOM     19  H   UNL     1      -0.352  10.686  20.137  0.00  0.00    +0.000 HD
BRANCH  16  25
ATOM     20  C   UNL     1       0.148  15.519  22.542  0.00  0.00    +0.000 C 
ATOM     21  C   UNL     1      -0.474  14.154  22.605  0.00  0.00    +0.000 A 
ATOM     22  C   UNL     1      -1.564  13.930  23.452  0.00  0.00    +0.000 A 
ATOM     23  C   UNL     1      -2.146  12.670  23.524  0.00  0.00    +0.000 A 
ATOM     24  C   UNL     1      -1.650  11.616  22.755  0.00  0.00    +0.000 A 
ATOM     25  C   UNL     1      -0.562  11.801  21.896  0.00  0.00    +0.000 A 
ATOM     26  C   UNL     1       0.015  13.085  21.833  0.00  0.00    +0.000 A 
ATOM     27  F   UNL     1       1.062  13.294  21.018  0.00  0.00    +0.000 F 
ENDBRANCH  16  25
ENDBRANCH   1  17
TORSDOF 3
ENDMDL
MODEL 8
REMARK VINA RESULT:      -7.5      6.659      8.554
REMARK  Name = 
REMARK  5 active torsions:
REMARK  status: ('A' for Active; 'I' for Inactive)
REMARK    1  A    between atoms: C_1  and  C_2
REMARK    2  A    between atoms: C_6  and  N_7
REMARK    3  A    between atoms: C_8  and  C_10
REMARK    4  A    between atoms: N_12  and  C_13
REMARK    5  A    between atoms: N_22  and  C_23
REMARK                            x       y       z     vdW  Elec       q    Type
REMARK                         _______ _______ _______ _____ _____    ______ ____
ROOT
ATOM      1  C   UNL     1       7.898   8.581  17.997  0.00  0.00    +0.000 C 
ATOM      2  O   UNL     1       7.495   9.258  17.056  0.00  0.00    +0.000 OA
ATOM      3  N   UNL     1       8.789   8.933  19.001  0.00  0.00    +0.000 N 
ATOM      4  H   UNL     1       9.081   8.170  19.611  0.00  0.00    +0.000 HD
ENDROOT
BRANCH   3   5
ATOM      5  C   UNL     1       9.406  10.192  19.148  0.00  0.00    +0.000 A 
ATOM      6  C   UNL     1       9.471  10.827  20.406  0.00  0.00    +0.000 A 
ATOM      7  C   UNL     1      10.016  12.103  20.558  0.00  0.00    +0.000 A 
ATOM      8  C   UNL     1      10.481  12.718  19.423  0.00  0.00    +0.000 A 
ATOM      9  C   UNL     1      10.457  12.104  18.188  0.00  0.00    +0.000 A 
ATOM     10  C   UNL     1       9.948  10.827  18.020  0.00  0.00    +0.000 A 
ATOM     11  O   UNL     1      10.961  12.924  17.184  0.00  0.00    +0.000 OA
ATOM     12  C   UNL     1      11.290  14.104  17.878  0.00  0.00    +0.000 A 
ATOM     13  O   UNL     1      11.752  15.092  17.328  0.00  0.00    +0.000 OA
ATOM     14  N   UNL     1      11.017  13.970  19.223  0.00  0.00    +0.000 N 
ATOM     15  C   UNL     1      11.219  14.953  20.248  0.00  0.00    +0.000 C 
ENDBRANCH   3   5
BRANCH   1  17
ATOM     16  N   UNL     1       6.193   6.879  17.510  0.00  0.00    +0.000 N 
ATOM     17  C   UNL     1       7.429   7.126  18.089  0.00  0.00    +0.000 C 
ATOM     18  O   UNL     1       8.185   6.342  18.646  0.00  0.00    +0.000 OA
ATOM     19  H   UNL     1       5.724   7.684  17.088  0.00  0.00    +0.000 HD
BRANCH  16  25
ATOM     20  C   UNL     1       3.687   3.244  19.822  0.00  0.00    +0.000 C 
ATOM     21  C   UNL     1       4.290   3.836  18.581  0.00  0.00    +0.000 A 
ATOM     22  C   UNL     1       4.198   3.143  17.370  0.00  0.00    +0.000 A 
ATOM     23  C   UNL     1       4.757   3.677  16.215  0.00  0.00    +0.000 A 
ATOM     24  C   UNL     1       5.415   4.907  16.250  0.00  0.00    +0.000 A 
ATOM     25  C   UNL     1       5.527   5.630  17.441  0.00  0.00    +0.000 A 
ATOM     26  C   UNL     1       4.953   5.076  18.603  0.00  0.00    +0.000 A 
ATOM     27  F   UNL     1       5.045   5.746  19.763  0.00  0.00    +0.000 F 
ENDBRANCH  16  25
ENDBRANCH   1  17
TORSDOF 3
ENDMDL
MODEL 9
REMARK VINA RESULT:      -7.5      2.425      2.924
REMARK  Name = 
REMARK  5 active torsions:
REMARK  status: ('A' for Active; 'I' for Inactive)
REMARK    1  A    between atoms: C_1  and  C_2
REMARK    2  A    between atoms: C_6  and  N_7
REMARK    3  A    between atoms: C_8  and  C_10
REMARK    4  A    between atoms: N_12  and  C_13
REMARK    5  A    between atoms: N_22  and  C_23
REMARK                            x       y       z     vdW  Elec       q    Type
REMARK                         _______ _______ _______ _____ _____    ______ ____
ROOT
ATOM      1  C   UNL     1       1.846   9.250  18.267  0.00  0.00    +0.000 C 
ATOM      2  O   UNL     1       2.045  10.260  17.599  0.00  0.00    +0.000 OA
ATOM      3  N   UNL     1       0.992   9.078  19.347  0.00  0.00    +0.000 N 
ATOM      4  H   UNL     1       1.080   8.186  19.834  0.00  0.00    +0.000 HD
ENDROOT
BRANCH   3   5
ATOM      5  C   UNL     1       0.143  10.064  19.888  0.00  0.00    +0.000 A 
ATOM      6  C   UNL     1      -0.861  10.670  19.102  0.00  0.00    +0.000 A 
ATOM      7  C   UNL     1      -1.665  11.696  19.601  0.00  0.00    +0.000 A 
ATOM      8  C   UNL     1      -1.430  12.097  20.892  0.00  0.00    +0.000 A 
ATOM      9  C   UNL     1      -0.477  11.498  21.690  0.00  0.00    +0.000 A 
ATOM     10  C   UNL     1       0.312  10.458  21.225  0.00  0.00    +0.000 A 
ATOM     11  O   UNL     1      -0.403  12.082  22.949  0.00  0.00    +0.000 OA
ATOM     12  C   UNL     1      -1.372  13.101  22.879  0.00  0.00    +0.000 A 
ATOM     13  O   UNL     1      -1.598  13.868  23.803  0.00  0.00    +0.000 OA
ATOM     14  N   UNL     1      -1.998  13.095  21.651  0.00  0.00    +0.000 N 
ATOM     15  C   UNL     1      -3.037  13.978  21.205  0.00  0.00    +0.000 C 
ENDBRANCH   3   5
BRANCH   1  17
ATOM     16  N   UNL     1       2.575   6.986  18.886  0.00  0.00    +0.000 N 
ATOM     17  C   UNL     1       2.668   7.999  17.942  0.00  0.00    +0.000 C 
ATOM     18  O   UNL     1       3.304   8.017  16.898  0.00  0.00    +0.000 OA
ATOM     19  H   UNL     1       1.978   7.175  19.693  0.00  0.00    +0.000 HD
BRANCH  16  25
ATOM     20  C   UNL     1       2.426   2.168  17.618  0.00  0.00    +0.000 C 
ATOM     21  C   UNL     1       3.144   3.345  18.211  0.00  0.00    +0.000 A 
ATOM     22  C   UNL     1       4.437   3.183  18.718  0.00  0.00    +0.000 A 
ATOM     23  C   UNL     1       5.112   4.264  19.273  0.00  0.00    +0.000 A 
ATOM     24  C   UNL     1       4.508   5.521  19.333  0.00  0.00    +0.000 A 
ATOM     25  C   UNL     1       3.217   5.724  18.836  0.00  0.00    +0.000 A 
ATOM     26  C   UNL     1       2.548   4.618  18.273  0.00  0.00    +0.000 A 
ATOM     27  F   UNL     1       1.306   4.781  17.788  0.00  0.00    +0.000 F 
ENDBRANCH  16  25
ENDBRANCH   1  17
TORSDOF 3
ENDMDL
