MODEL 1
REMARK VINA RESULT:      -8.9      0.000      0.000
REMARK  Name = 
REMARK  3 active torsions:
REMARK  status: ('A' for Active; 'I' for Inactive)
REMARK    1  A    between atoms: C_1  and  C_2
REMARK    2  A    between atoms: N_21  and  C_22
REMARK    3  A    between atoms: C_22  and  C_23
REMARK                            x       y       z     vdW  Elec       q    Type
REMARK                         _______ _______ _______ _____ _____    ______ ____
ROOT
ATOM      1  C   UNL     1       2.838   2.730  20.892  0.00  0.00    +0.000 C 
ATOM      2  C   UNL     1       2.736   4.143  20.460  0.00  0.00    +0.000 A 
ATOM      3  C   UNL     1       1.834   5.121  20.825  0.00  0.00    +0.000 A 
ATOM      4  C   UNL     1       2.177   6.272  20.073  0.00  0.00    +0.000 A 
ATOM      5  N   UNL     1       1.464   7.454  20.134  0.00  0.00    +0.000 N 
ATOM      6  C   UNL     1       1.604   8.516  19.271  0.00  0.00    +0.000 C 
ATOM      7  O   UNL     1       2.339   8.525  18.285  0.00  0.00    +0.000 OA
ATOM      8  N   UNL     1       0.797   9.624  19.565  0.00  0.00    +0.000 N 
ATOM      9  C   UNL     1      -0.042   9.815  20.757  0.00  0.00    +0.000 C 
ATOM     10  C   UNL     1       0.365  11.032  21.588  0.00  0.00    +0.000 C 
ATOM     11  O   UNL     1      -0.021  12.252  20.942  0.00  0.00    +0.000 OA
ATOM     12  C   UNL     1       0.988  12.702  20.135  0.00  0.00    +0.000 A 
ATOM     13  C   UNL     1       1.528  13.954  20.454  0.00  0.00    +0.000 A 
ATOM     14  C   UNL     1       2.547  14.485  19.673  0.00  0.00    +0.000 A 
ATOM     15  C   UNL     1       3.007  13.774  18.574  0.00  0.00    +0.000 A 
ATOM     16  F   UNL     1       3.976  14.290  17.813  0.00  0.00    +0.000 F 
ATOM     17  C   UNL     1       2.458  12.532  18.240  0.00  0.00    +0.000 A 
ATOM     18  C   UNL     1       1.424  11.984  19.014  0.00  0.00    +0.000 A 
ATOM     19  C   UNL     1       0.753  10.704  18.575  0.00  0.00    +0.000 C 
ATOM     20  N   UNL     1       3.267   6.047  19.345  0.00  0.00    +0.000 NA
ATOM     21  N   UNL     1       3.556   4.742  19.534  0.00  0.00    +0.000 N 
ATOM     22  H   UNL     1       0.635   7.394  20.691  0.00  0.00    +0.000 HD
ENDROOT
BRANCH  21  23
ATOM     23  C   UNL     1       4.668   4.158  18.786  0.00  0.00    +0.000 C 
BRANCH  23  24
ATOM     24  C   UNL     1       5.726   5.185  18.461  0.00  0.00    +0.000 A 
ATOM     25  C   UNL     1       5.604   5.997  17.321  0.00  0.00    +0.000 A 
ATOM     26  C   UNL     1       6.608   6.906  16.983  0.00  0.00    +0.000 A 
ATOM     27  C   UNL     1       7.736   7.030  17.791  0.00  0.00    +0.000 A 
ATOM     28  C   UNL     1       7.848   6.264  18.951  0.00  0.00    +0.000 A 
ATOM     29  C   UNL     1       6.846   5.351  19.288  0.00  0.00    +0.000 A 
ENDBRANCH  23  24
ENDBRANCH  21  23
TORSDOF 2
ENDMDL
MODEL 2
REMARK VINA RESULT:      -8.7      3.156      5.103
REMARK  Name = 
REMARK  3 active torsions:
REMARK  status: ('A' for Active; 'I' for Inactive)
REMARK    1  A    between atoms: C_1  and  C_2
REMARK    2  A    between atoms: N_21  and  C_22
REMARK    3  A    between atoms: C_22  and  C_23
REMARK                            x       y       z     vdW  Elec       q    Type
REMARK                         _______ _______ _______ _____ _____    ______ ____
ROOT
ATOM      1  C   UNL     1       3.785   5.837  17.464  0.00  0.00    +0.000 C 
ATOM      2  C   UNL     1       2.993   6.771  18.298  0.00  0.00    +0.000 A 
ATOM      3  C   UNL     1       2.480   8.015  17.994  0.00  0.00    +0.000 A 
ATOM      4  C   UNL     1       1.847   8.477  19.175  0.00  0.00    +0.000 A 
ATOM      5  N   UNL     1       1.251   9.719  19.274  0.00  0.00    +0.000 N 
ATOM      6  C   UNL     1       0.829  10.311  20.443  0.00  0.00    +0.000 C 
ATOM      7  O   UNL     1       0.992   9.837  21.566  0.00  0.00    +0.000 OA
ATOM      8  N   UNL     1       0.213  11.559  20.281  0.00  0.00    +0.000 N 
ATOM      9  C   UNL     1      -0.156  12.207  19.015  0.00  0.00    +0.000 C 
ATOM     10  C   UNL     1      -1.658  12.461  18.886  0.00  0.00    +0.000 C 
ATOM     11  O   UNL     1      -2.074  13.544  19.727  0.00  0.00    +0.000 OA
ATOM     12  C   UNL     1      -2.450  13.074  20.955  0.00  0.00    +0.000 A 
ATOM     13  C   UNL     1      -3.781  13.302  21.328  0.00  0.00    +0.000 A 
ATOM     14  C   UNL     1      -4.235  12.866  22.565  0.00  0.00    +0.000 A 
ATOM     15  C   UNL     1      -3.359  12.222  23.428  0.00  0.00    +0.000 A 
ATOM     16  F   UNL     1      -3.789  11.816  24.626  0.00  0.00    +0.000 F 
ATOM     17  C   UNL     1      -2.023  12.010  23.069  0.00  0.00    +0.000 A 
ATOM     18  C   UNL     1      -1.547  12.449  21.825  0.00  0.00    +0.000 A 
ATOM     19  C   UNL     1      -0.078  12.327  21.497  0.00  0.00    +0.000 C 
ATOM     20  N   UNL     1       1.898   7.550  20.126  0.00  0.00    +0.000 NA
ATOM     21  N   UNL     1       2.649   6.554  19.610  0.00  0.00    +0.000 N 
ATOM     22  H   UNL     1       1.383  10.294  18.466  0.00  0.00    +0.000 HD
ENDROOT
BRANCH  21  23
ATOM     23  C   UNL     1       2.967   5.407  20.460  0.00  0.00    +0.000 C 
BRANCH  23  24
ATOM     24  C   UNL     1       2.421   4.119  19.892  0.00  0.00    +0.000 A 
ATOM     25  C   UNL     1       3.290   3.088  19.501  0.00  0.00    +0.000 A 
ATOM     26  C   UNL     1       2.794   1.920  18.920  0.00  0.00    +0.000 A 
ATOM     27  C   UNL     1       1.422   1.759  18.741  0.00  0.00    +0.000 A 
ATOM     28  C   UNL     1       0.544   2.755  19.168  0.00  0.00    +0.000 A 
ATOM     29  C   UNL     1       1.039   3.927  19.746  0.00  0.00    +0.000 A 
ENDBRANCH  23  24
ENDBRANCH  21  23
TORSDOF 2
ENDMDL
MODEL 3
REMARK VINA RESULT:      -8.6      0.721      1.142
REMARK  Name = 
REMARK  3 active torsions:
REMARK  status: ('A' for Active; 'I' for Inactive)
REMARK    1  A    between atoms: C_1  and  C_2
REMARK    2  A    between atoms: N_21  and  C_22
REMARK    3  A    between atoms: C_22  and  C_23
REMARK                            x       y       z     vdW  Elec       q    Type
REMARK                         _______ _______ _______ _____ _____    ______ ____
ROOT
ATOM      1  C   UNL     1       2.964   3.320  20.292  0.00  0.00    +0.000 C 
ATOM      2  C   UNL     1       2.758   4.745  19.943  0.00  0.00    +0.000 A 
ATOM      3  C   UNL     1       1.902   5.679  20.489  0.00  0.00    +0.000 A 
ATOM      4  C   UNL     1       2.090   6.868  19.743  0.00  0.00    +0.000 A 
ATOM      5  N   UNL     1       1.366   8.023  19.968  0.00  0.00    +0.000 N 
ATOM      6  C   UNL     1       1.338   9.121  19.140  0.00  0.00    +0.000 C 
ATOM      7  O   UNL     1       1.903   9.192  18.051  0.00  0.00    +0.000 OA
ATOM      8  N   UNL     1       0.561  10.191  19.608  0.00  0.00    +0.000 N 
ATOM      9  C   UNL     1      -0.080  10.309  20.926  0.00  0.00    +0.000 C 
ATOM     10  C   UNL     1       0.425  11.505  21.732  0.00  0.00    +0.000 C 
ATOM     11  O   UNL     1      -0.090  12.737  21.210  0.00  0.00    +0.000 OA
ATOM     12  C   UNL     1       0.763  13.249  20.272  0.00  0.00    +0.000 A 
ATOM     13  C   UNL     1       1.315  14.505  20.554  0.00  0.00    +0.000 A 
ATOM     14  C   UNL     1       2.181  15.097  19.644  0.00  0.00    +0.000 A 
ATOM     15  C   UNL     1       2.476  14.445  18.455  0.00  0.00    +0.000 A 
ATOM     16  F   UNL     1       3.296  15.020  17.571  0.00  0.00    +0.000 F 
ATOM     17  C   UNL     1       1.912  13.199  18.160  0.00  0.00    +0.000 A 
ATOM     18  C   UNL     1       1.031  12.589  19.066  0.00  0.00    +0.000 A 
ATOM     19  C   UNL     1       0.331  11.306  18.685  0.00  0.00    +0.000 C 
ATOM     20  N   UNL     1       3.053   6.706  18.841  0.00  0.00    +0.000 NA
ATOM     21  N   UNL     1       3.401   5.405  18.924  0.00  0.00    +0.000 N 
ATOM     22  H   UNL     1       0.639   7.915  20.647  0.00  0.00    +0.000 HD
ENDROOT
BRANCH  21  23
ATOM     23  C   UNL     1       4.393   4.886  17.983  0.00  0.00    +0.000 C 
BRANCH  23  24
ATOM     24  C   UNL     1       5.721   5.591  18.122  0.00  0.00    +0.000 A 
ATOM     25  C   UNL     1       6.596   5.263  19.171  0.00  0.00    +0.000 A 
ATOM     26  C   UNL     1       7.797   5.953  19.339  0.00  0.00    +0.000 A 
ATOM     27  C   UNL     1       8.149   6.966  18.450  0.00  0.00    +0.000 A 
ATOM     28  C   UNL     1       7.312   7.271  17.377  0.00  0.00    +0.000 A 
ATOM     29  C   UNL     1       6.107   6.583  17.209  0.00  0.00    +0.000 A 
ENDBRANCH  23  24
ENDBRANCH  21  23
TORSDOF 2
ENDMDL
MODEL 4
REMARK VINA RESULT:      -8.4      1.085      1.179
REMARK  Name = 
REMARK  3 active torsions:
REMARK  status: ('A' for Active; 'I' for Inactive)
REMARK    1  A    between atoms: C_1  and  C_2
REMARK    2  A    between atoms: N_21  and  C_22
REMARK    3  A    between atoms: C_22  and  C_23
REMARK                            x       y       z     vdW  Elec       q    Type
REMARK                         _______ _______ _______ _____ _____    ______ ____
ROOT
ATOM      1  C   UNL     1       2.882   3.782  20.144  0.00  0.00    +0.000 C 
ATOM      2  C   UNL     1       2.641   5.209  19.824  0.00  0.00    +0.000 A 
ATOM      3  C   UNL     1       1.791   6.120  20.414  0.00  0.00    +0.000 A 
ATOM      4  C   UNL     1       1.933   7.323  19.679  0.00  0.00    +0.000 A 
ATOM      5  N   UNL     1       1.199   8.462  19.948  0.00  0.00    +0.000 N 
ATOM      6  C   UNL     1       1.123   9.572  19.137  0.00  0.00    +0.000 C 
ATOM      7  O   UNL     1       1.648   9.667  18.029  0.00  0.00    +0.000 OA
ATOM      8  N   UNL     1       0.347  10.621  19.648  0.00  0.00    +0.000 N 
ATOM      9  C   UNL     1      -0.247  10.711  20.989  0.00  0.00    +0.000 C 
ATOM     10  C   UNL     1       0.267  11.904  21.795  0.00  0.00    +0.000 C 
ATOM     11  O   UNL     1      -0.286  13.134  21.309  0.00  0.00    +0.000 OA
ATOM     12  C   UNL     1       0.524  13.673  20.349  0.00  0.00    +0.000 A 
ATOM     13  C   UNL     1       1.066  14.934  20.629  0.00  0.00    +0.000 A 
ATOM     14  C   UNL     1       1.889  15.553  19.697  0.00  0.00    +0.000 A 
ATOM     15  C   UNL     1       2.151  14.922  18.490  0.00  0.00    +0.000 A 
ATOM     16  F   UNL     1       2.929  15.524  17.585  0.00  0.00    +0.000 F 
ATOM     17  C   UNL     1       1.596  13.672  18.197  0.00  0.00    +0.000 A 
ATOM     18  C   UNL     1       0.759  13.035  19.125  0.00  0.00    +0.000 A 
ATOM     19  C   UNL     1       0.066  11.746  18.750  0.00  0.00    +0.000 C 
ATOM     20  N   UNL     1       2.865   7.189  18.741  0.00  0.00    +0.000 NA
ATOM     21  N   UNL     1       3.237   5.893  18.792  0.00  0.00    +0.000 N 
ATOM     22  H   UNL     1       0.499   8.333  20.650  0.00  0.00    +0.000 HD
ENDROOT
BRANCH  21  23
ATOM     23  C   UNL     1       4.203   5.404  17.809  0.00  0.00    +0.000 C 
BRANCH  23  24
ATOM     24  C   UNL     1       5.595   5.918  18.086  0.00  0.00    +0.000 A 
ATOM     25  C   UNL     1       6.143   6.948  17.303  0.00  0.00    +0.000 A 
ATOM     26  C   UNL     1       7.451   7.386  17.516  0.00  0.00    +0.000 A 
ATOM     27  C   UNL     1       8.220   6.814  18.527  0.00  0.00    +0.000 A 
ATOM     28  C   UNL     1       7.674   5.824  19.341  0.00  0.00    +0.000 A 
ATOM     29  C   UNL     1       6.366   5.382  19.127  0.00  0.00    +0.000 A 
ENDBRANCH  23  24
ENDBRANCH  21  23
TORSDOF 2
ENDMDL
MODEL 5
REMARK VINA RESULT:      -8.4      0.961      1.381
REMARK  Name = 
REMARK  3 active torsions:
REMARK  status: ('A' for Active; 'I' for Inactive)
REMARK    1  A    between atoms: C_1  and  C_2
REMARK    2  A    between atoms: N_21  and  C_22
REMARK    3  A    between atoms: C_22  and  C_23
REMARK                            x       y       z     vdW  Elec       q    Type
REMARK                         _______ _______ _______ _____ _____    ______ ____
ROOT
ATOM      1  C   UNL     1       2.825   2.742  21.034  0.00  0.00    +0.000 C 
ATOM      2  C   UNL     1       2.749   4.149  20.575  0.00  0.00    +0.000 A 
ATOM      3  C   UNL     1       1.808   5.121  20.843  0.00  0.00    +0.000 A 
ATOM      4  C   UNL     1       2.206   6.266  20.110  0.00  0.00    +0.000 A 
ATOM      5  N   UNL     1       1.478   7.440  20.090  0.00  0.00    +0.000 N 
ATOM      6  C   UNL     1       1.685   8.493  19.228  0.00  0.00    +0.000 C 
ATOM      7  O   UNL     1       2.506   8.498  18.314  0.00  0.00    +0.000 OA
ATOM      8  N   UNL     1       0.843   9.595  19.433  0.00  0.00    +0.000 N 
ATOM      9  C   UNL     1      -0.103   9.792  20.540  0.00  0.00    +0.000 C 
ATOM     10  C   UNL     1       0.214  11.024  21.388  0.00  0.00    +0.000 C 
ATOM     11  O   UNL     1      -0.123  12.231  20.694  0.00  0.00    +0.000 OA
ATOM     12  C   UNL     1       0.950  12.682  19.976  0.00  0.00    +0.000 A 
ATOM     13  C   UNL     1       1.446  13.945  20.325  0.00  0.00    +0.000 A 
ATOM     14  C   UNL     1       2.526  14.477  19.633  0.00  0.00    +0.000 A 
ATOM     15  C   UNL     1       3.092  13.758  18.591  0.00  0.00    +0.000 A 
ATOM     16  F   UNL     1       4.121  14.275  17.913  0.00  0.00    +0.000 F 
ATOM     17  C   UNL     1       2.588  12.505  18.224  0.00  0.00    +0.000 A 
ATOM     18  C   UNL     1       1.494  11.955  18.909  0.00  0.00    +0.000 A 
ATOM     19  C   UNL     1       0.879  10.662  18.428  0.00  0.00    +0.000 C 
ATOM     20  N   UNL     1       3.359   6.044  19.487  0.00  0.00    +0.000 NA
ATOM     21  N   UNL     1       3.643   4.745  19.719  0.00  0.00    +0.000 N 
ATOM     22  H   UNL     1       0.602   7.378  20.569  0.00  0.00    +0.000 HD
ENDROOT
BRANCH  21  23
ATOM     23  C   UNL     1       4.826   4.165  19.083  0.00  0.00    +0.000 C 
BRANCH  23  24
ATOM     24  C   UNL     1       5.024   4.690  17.682  0.00  0.00    +0.000 A 
ATOM     25  C   UNL     1       4.971   3.820  16.581  0.00  0.00    +0.000 A 
ATOM     26  C   UNL     1       5.213   4.290  15.289  0.00  0.00    +0.000 A 
ATOM     27  C   UNL     1       5.491   5.639  15.080  0.00  0.00    +0.000 A 
ATOM     28  C   UNL     1       5.500   6.523  16.158  0.00  0.00    +0.000 A 
ATOM     29  C   UNL     1       5.262   6.053  17.452  0.00  0.00    +0.000 A 
ENDBRANCH  23  24
ENDBRANCH  21  23
TORSDOF 2
ENDMDL
MODEL 6
REMARK VINA RESULT:      -8.2      1.545      2.006
REMARK  Name = 
REMARK  3 active torsions:
REMARK  status: ('A' for Active; 'I' for Inactive)
REMARK    1  A    between atoms: C_1  and  C_2
REMARK    2  A    between atoms: N_21  and  C_22
REMARK    3  A    between atoms: C_22  and  C_23
REMARK                            x       y       z     vdW  Elec       q    Type
REMARK                         _______ _______ _______ _____ _____    ______ ____
ROOT
ATOM      1  C   UNL     1       4.330   2.537  20.074  0.00  0.00    +0.000 C 
ATOM      2  C   UNL     1       4.039   3.952  19.742  0.00  0.00    +0.000 A 
ATOM      3  C   UNL     1       2.938   4.726  20.041  0.00  0.00    +0.000 A 
ATOM      4  C   UNL     1       3.171   5.988  19.441  0.00  0.00    +0.000 A 
ATOM      5  N   UNL     1       2.258   7.024  19.485  0.00  0.00    +0.000 N 
ATOM      6  C   UNL     1       2.324   8.178  18.737  0.00  0.00    +0.000 C 
ATOM      7  O   UNL     1       3.172   8.407  17.878  0.00  0.00    +0.000 OA
ATOM      8  N   UNL     1       1.301   9.102  18.991  0.00  0.00    +0.000 N 
ATOM      9  C   UNL     1       0.287   9.031  20.053  0.00  0.00    +0.000 C 
ATOM     10  C   UNL     1       0.356  10.207  21.028  0.00  0.00    +0.000 C 
ATOM     11  O   UNL     1      -0.148  11.407  20.428  0.00  0.00    +0.000 OA
ATOM     12  C   UNL     1       0.865  12.096  19.819  0.00  0.00    +0.000 A 
ATOM     13  C   UNL     1       1.127  13.381  20.312  0.00  0.00    +0.000 A 
ATOM     14  C   UNL     1       2.132  14.147  19.738  0.00  0.00    +0.000 A 
ATOM     15  C   UNL     1       2.856  13.638  18.669  0.00  0.00    +0.000 A 
ATOM     16  F   UNL     1       3.813  14.380  18.105  0.00  0.00    +0.000 F 
ATOM     17  C   UNL     1       2.585  12.363  18.161  0.00  0.00    +0.000 A 
ATOM     18  C   UNL     1       1.570  11.577  18.726  0.00  0.00    +0.000 A 
ATOM     19  C   UNL     1       1.201  10.256  18.092  0.00  0.00    +0.000 C 
ATOM     20  N   UNL     1       4.371   6.020  18.871  0.00  0.00    +0.000 NA
ATOM     21  N   UNL     1       4.858   4.768  19.000  0.00  0.00    +0.000 N 
ATOM     22  H   UNL     1       1.384   6.773  19.903  0.00  0.00    +0.000 HD
ENDROOT
BRANCH  21  23
ATOM     23  C   UNL     1       6.148   4.453  18.386  0.00  0.00    +0.000 C 
BRANCH  23  24
ATOM     24  C   UNL     1       6.056   4.413  16.879  0.00  0.00    +0.000 A 
ATOM     25  C   UNL     1       7.156   4.788  16.089  0.00  0.00    +0.000 A 
ATOM     26  C   UNL     1       7.057   4.810  14.697  0.00  0.00    +0.000 A 
ATOM     27  C   UNL     1       5.866   4.441  14.077  0.00  0.00    +0.000 A 
ATOM     28  C   UNL     1       4.782   4.022  14.847  0.00  0.00    +0.000 A 
ATOM     29  C   UNL     1       4.877   4.002  16.241  0.00  0.00    +0.000 A 
ENDBRANCH  23  24
ENDBRANCH  21  23
TORSDOF 2
ENDMDL
MODEL 7
REMARK VINA RESULT:      -8.0      4.670      8.908
REMARK  Name = 
REMARK  3 active torsions:
REMARK  status: ('A' for Active; 'I' for Inactive)
REMARK    1  A    between atoms: C_1  and  C_2
REMARK    2  A    between atoms: N_21  and  C_22
REMARK    3  A    between atoms: C_22  and  C_23
REMARK                            x       y       z     vdW  Elec       q    Type
REMARK                         _______ _______ _______ _____ _____    ______ ____
ROOT
ATOM      1  C   UNL     1      11.714  13.241  19.266  0.00  0.00    +0.000 C 
ATOM      2  C   UNL     1      10.632  12.282  18.943  0.00  0.00    +0.000 A 
ATOM      3  C   UNL     1      10.583  10.912  19.102  0.00  0.00    +0.000 A 
ATOM      4  C   UNL     1       9.329  10.502  18.586  0.00  0.00    +0.000 A 
ATOM      5  N   UNL     1       8.933   9.180  18.530  0.00  0.00    +0.000 N 
ATOM      6  C   UNL     1       7.842   8.703  17.840  0.00  0.00    +0.000 C 
ATOM      7  O   UNL     1       7.113   9.386  17.123  0.00  0.00    +0.000 OA
ATOM      8  N   UNL     1       7.619   7.325  17.971  0.00  0.00    +0.000 N 
ATOM      9  C   UNL     1       8.321   6.397  18.869  0.00  0.00    +0.000 C 
ATOM     10  C   UNL     1       7.394   5.726  19.882  0.00  0.00    +0.000 C 
ATOM     11  O   UNL     1       6.577   4.729  19.255  0.00  0.00    +0.000 OA
ATOM     12  C   UNL     1       5.401   5.280  18.826  0.00  0.00    +0.000 A 
ATOM     13  C   UNL     1       4.229   4.765  19.395  0.00  0.00    +0.000 A 
ATOM     14  C   UNL     1       2.994   5.264  19.002  0.00  0.00    +0.000 A 
ATOM     15  C   UNL     1       2.934   6.258  18.036  0.00  0.00    +0.000 A 
ATOM     16  F   UNL     1       1.746   6.728  17.644  0.00  0.00    +0.000 F 
ATOM     17  C   UNL     1       4.100   6.762  17.450  0.00  0.00    +0.000 A 
ATOM     18  C   UNL     1       5.356   6.265  17.832  0.00  0.00    +0.000 A 
ATOM     19  C   UNL     1       6.598   6.725  17.107  0.00  0.00    +0.000 C 
ATOM     20  N   UNL     1       8.616  11.556  18.201  0.00  0.00    +0.000 NA
ATOM     21  N   UNL     1       9.436  12.616  18.358  0.00  0.00    +0.000 N 
ATOM     22  H   UNL     1       9.645   8.535  18.806  0.00  0.00    +0.000 HD
ENDROOT
BRANCH  21  23
ATOM     23  C   UNL     1       8.964  13.933  17.930  0.00  0.00    +0.000 C 
BRANCH  23  24
ATOM     24  C   UNL     1       7.736  14.364  18.696  0.00  0.00    +0.000 A 
ATOM     25  C   UNL     1       6.544  14.669  18.017  0.00  0.00    +0.000 A 
ATOM     26  C   UNL     1       5.424  15.125  18.714  0.00  0.00    +0.000 A 
ATOM     27  C   UNL     1       5.475  15.264  20.099  0.00  0.00    +0.000 A 
ATOM     28  C   UNL     1       6.637  14.921  20.790  0.00  0.00    +0.000 A 
ATOM     29  C   UNL     1       7.760  14.467  20.094  0.00  0.00    +0.000 A 
ENDBRANCH  23  24
ENDBRANCH  21  23
TORSDOF 2
ENDMDL
MODEL 8
REMARK VINA RESULT:      -7.8      1.582      1.814
REMARK  Name = 
REMARK  3 active torsions:
REMARK  status: ('A' for Active; 'I' for Inactive)
REMARK    1  A    between atoms: C_1  and  C_2
REMARK    2  A    between atoms: N_21  and  C_22
REMARK    3  A    between atoms: C_22  and  C_23
REMARK                            x       y       z     vdW  Elec       q    Type
REMARK                         _______ _______ _______ _____ _____    ______ ____
ROOT
ATOM      1  C   UNL     1       3.177   3.635  17.654  0.00  0.00    +0.000 C 
ATOM      2  C   UNL     1       2.972   5.091  17.837  0.00  0.00    +0.000 A 
ATOM      3  C   UNL     1       1.929   5.773  18.429  0.00  0.00    +0.000 A 
ATOM      4  C   UNL     1       2.230   7.150  18.286  0.00  0.00    +0.000 A 
ATOM      5  N   UNL     1       1.387   8.156  18.720  0.00  0.00    +0.000 N 
ATOM      6  C   UNL     1       1.511   9.491  18.408  0.00  0.00    +0.000 C 
ATOM      7  O   UNL     1       2.354   9.956  17.643  0.00  0.00    +0.000 OA
ATOM      8  N   UNL     1       0.557  10.325  19.006  0.00  0.00    +0.000 N 
ATOM      9  C   UNL     1      -0.436   9.948  20.022  0.00  0.00    +0.000 C 
ATOM     10  C   UNL     1      -0.270  10.712  21.335  0.00  0.00    +0.000 C 
ATOM     11  O   UNL     1      -0.709  12.071  21.202  0.00  0.00    +0.000 OA
ATOM     12  C   UNL     1       0.333  12.872  20.823  0.00  0.00    +0.000 A 
ATOM     13  C   UNL     1       0.688  13.893  21.713  0.00  0.00    +0.000 A 
ATOM     14  C   UNL     1       1.728  14.756  21.392  0.00  0.00    +0.000 A 
ATOM     15  C   UNL     1       2.394  14.606  20.184  0.00  0.00    +0.000 A 
ATOM     16  F   UNL     1       3.384  15.445  19.867  0.00  0.00    +0.000 F 
ATOM     17  C   UNL     1       2.030  13.600  19.283  0.00  0.00    +0.000 A 
ATOM     18  C   UNL     1       0.979  12.723  19.589  0.00  0.00    +0.000 A 
ATOM     19  C   UNL     1       0.512  11.721  18.559  0.00  0.00    +0.000 C 
ATOM     20  N   UNL     1       3.417   7.312  17.710  0.00  0.00    +0.000 NA
ATOM     21  N   UNL     1       3.825   6.068  17.384  0.00  0.00    +0.000 N 
ATOM     22  H   UNL     1       0.509   7.823  19.064  0.00  0.00    +0.000 HD
ENDROOT
BRANCH  21  23
ATOM     23  C   UNL     1       5.078   5.915  16.645  0.00  0.00    +0.000 C 
BRANCH  23  24
ATOM     24  C   UNL     1       6.265   6.385  17.450  0.00  0.00    +0.000 A 
ATOM     25  C   UNL     1       6.874   7.620  17.167  0.00  0.00    +0.000 A 
ATOM     26  C   UNL     1       8.007   8.032  17.869  0.00  0.00    +0.000 A 
ATOM     27  C   UNL     1       8.535   7.227  18.875  0.00  0.00    +0.000 A 
ATOM     28  C   UNL     1       7.914   6.021  19.198  0.00  0.00    +0.000 A 
ATOM     29  C   UNL     1       6.781   5.604  18.494  0.00  0.00    +0.000 A 
ENDBRANCH  23  24
ENDBRANCH  21  23
TORSDOF 2
ENDMDL
MODEL 9
REMARK VINA RESULT:      -7.7      1.374      1.835
REMARK  Name = 
REMARK  3 active torsions:
REMARK  status: ('A' for Active; 'I' for Inactive)
REMARK    1  A    between atoms: C_1  and  C_2
REMARK    2  A    between atoms: N_21  and  C_22
REMARK    3  A    between atoms: C_22  and  C_23
REMARK                            x       y       z     vdW  Elec       q    Type
REMARK                         _______ _______ _______ _____ _____    ______ ____
ROOT
ATOM      1  C   UNL     1       2.889   4.027  18.682  0.00  0.00    +0.000 C 
ATOM      2  C   UNL     1       2.724   5.498  18.612  0.00  0.00    +0.000 A 
ATOM      3  C   UNL     1       1.807   6.320  19.234  0.00  0.00    +0.000 A 
ATOM      4  C   UNL     1       2.082   7.632  18.775  0.00  0.00    +0.000 A 
ATOM      5  N   UNL     1       1.334   8.733  19.147  0.00  0.00    +0.000 N 
ATOM      6  C   UNL     1       1.405   9.978  18.565  0.00  0.00    +0.000 C 
ATOM      7  O   UNL     1       2.097  10.256  17.588  0.00  0.00    +0.000 OA
ATOM      8  N   UNL     1       0.575  10.946  19.147  0.00  0.00    +0.000 N 
ATOM      9  C   UNL     1      -0.220  10.808  20.376  0.00  0.00    +0.000 C 
ATOM     10  C   UNL     1       0.182  11.802  21.465  0.00  0.00    +0.000 C 
ATOM     11  O   UNL     1      -0.268  13.126  21.151  0.00  0.00    +0.000 OA
ATOM     12  C   UNL     1       0.691  13.799  20.446  0.00  0.00    +0.000 A 
ATOM     13  C   UNL     1       1.203  14.958  21.044  0.00  0.00    +0.000 A 
ATOM     14  C   UNL     1       2.172  15.703  20.384  0.00  0.00    +0.000 A 
ATOM     15  C   UNL     1       2.609  15.301  19.131  0.00  0.00    +0.000 A 
ATOM     16  F   UNL     1       3.529  16.025  18.487  0.00  0.00    +0.000 F 
ATOM     17  C   UNL     1       2.086  14.155  18.520  0.00  0.00    +0.000 A 
ATOM     18  C   UNL     1       1.103  13.394  19.170  0.00  0.00    +0.000 A 
ATOM     19  C   UNL     1       0.456  12.233  18.453  0.00  0.00    +0.000 C 
ATOM     20  N   UNL     1       3.147   7.635  17.980  0.00  0.00    +0.000 NA
ATOM     21  N   UNL     1       3.485   6.337  17.834  0.00  0.00    +0.000 N 
ATOM     22  H   UNL     1       0.531   8.505  19.698  0.00  0.00    +0.000 HD
ENDROOT
BRANCH  21  23
ATOM     23  C   UNL     1       4.584   5.998  16.930  0.00  0.00    +0.000 C 
BRANCH  23  24
ATOM     24  C   UNL     1       5.927   6.339  17.529  0.00  0.00    +0.000 A 
ATOM     25  C   UNL     1       6.519   5.491  18.480  0.00  0.00    +0.000 A 
ATOM     26  C   UNL     1       7.732   5.832  19.081  0.00  0.00    +0.000 A 
ATOM     27  C   UNL     1       8.378   7.013  18.725  0.00  0.00    +0.000 A 
ATOM     28  C   UNL     1       7.826   7.841  17.749  0.00  0.00    +0.000 A 
ATOM     29  C   UNL     1       6.610   7.504  17.149  0.00  0.00    +0.000 A 
ENDBRANCH  23  24
ENDBRANCH  21  23
TORSDOF 2
ENDMDL
