MODEL 1
REMARK VINA RESULT:      -8.7      0.000      0.000
REMARK  Name = 
REMARK  5 active torsions:
REMARK  status: ('A' for Active; 'I' for Inactive)
REMARK    1  A    between atoms: C_1  and  C_2
REMARK    2  A    between atoms: C_5  and  C_6
REMARK    3  A    between atoms: C_8  and  C_9
REMARK    4  A    between atoms: C_13  and  N_14
REMARK    5  A    between atoms: C_15  and  C_16
REMARK                            x       y       z     vdW  Elec       q    Type
REMARK                         _______ _______ _______ _____ _____    ______ ____
ROOT
ATOM      1  C   UNL     1       2.641   6.339  19.764  0.00  0.00    +0.000 A 
ATOM      2  C   UNL     1       1.996   5.189  20.236  0.00  0.00    +0.000 A 
ATOM      3  C   UNL     1       2.614   3.939  20.143  0.00  0.00    +0.000 A 
ATOM      4  C   UNL     1       3.877   3.828  19.559  0.00  0.00    +0.000 A 
ATOM      5  C   UNL     1       4.511   4.962  19.042  0.00  0.00    +0.000 A 
ATOM      6  C   UNL     1       3.911   6.215  19.193  0.00  0.00    +0.000 A 
ENDROOT
BRANCH   5   7
ATOM      7  N   UNL     1       5.695   4.840  18.294  0.00  0.00    +0.000 N 
ATOM      8  C   UNL     1       5.842   4.482  16.953  0.00  0.00    +0.000 A 
ATOM      9  C   UNL     1       4.736   4.089  16.037  0.00  0.00    +0.000 C 
ATOM     10  C   UNL     1       7.153   4.452  16.661  0.00  0.00    +0.000 A 
ATOM     11  N   UNL     1       7.869   4.800  17.772  0.00  0.00    +0.000 N 
ATOM     12  C   UNL     1       6.995   5.047  18.846  0.00  0.00    +0.000 A 
ATOM     13  O   UNL     1       7.329   5.392  19.966  0.00  0.00    +0.000 OA
ATOM     14  H   UNL     1       8.871   4.883  17.851  0.00  0.00    +0.000 HD
ENDBRANCH   5   7
BRANCH   1  17
ATOM     15  C   UNL     1       0.762   9.189  20.500  0.00  0.00    +0.000 A 
ATOM     16  N   UNL     1       1.275   8.053  20.901  0.00  0.00    +0.000 NA
ATOM     17  C   UNL     1       1.979   7.631  19.799  0.00  0.00    +0.000 A 
ATOM     18  N   UNL     1       1.923   8.482  18.760  0.00  0.00    +0.000 NA
ATOM     19  O   UNL     1       1.114   9.517  19.224  0.00  0.00    +0.000 OA
BRANCH  15  24
ATOM     20  C   UNL     1      -2.734  12.779  23.220  0.00  0.00    +0.000 C 
ATOM     21  C   UNL     1      -1.803  11.824  22.540  0.00  0.00    +0.000 A 
ATOM     22  C   UNL     1      -1.211  10.782  23.248  0.00  0.00    +0.000 A 
ATOM     23  C   UNL     1      -0.359   9.915  22.571  0.00  0.00    +0.000 A 
ATOM     24  C   UNL     1      -0.112  10.100  21.207  0.00  0.00    +0.000 A 
ATOM     25  C   UNL     1      -0.746  11.166  20.587  0.00  0.00    +0.000 A 
ATOM     26  N   UNL     1      -1.581  12.025  21.221  0.00  0.00    +0.000 NA
ENDBRANCH  15  24
ENDBRANCH   1  17
TORSDOF 3
ENDMDL
MODEL 2
REMARK VINA RESULT:      -8.6      1.423      1.460
REMARK  Name = 
REMARK  5 active torsions:
REMARK  status: ('A' for Active; 'I' for Inactive)
REMARK    1  A    between atoms: C_1  and  C_2
REMARK    2  A    between atoms: C_5  and  C_6
REMARK    3  A    between atoms: C_8  and  C_9
REMARK    4  A    between atoms: C_13  and  N_14
REMARK    5  A    between atoms: C_15  and  C_16
REMARK                            x       y       z     vdW  Elec       q    Type
REMARK                         _______ _______ _______ _____ _____    ______ ____
ROOT
ATOM      1  C   UNL     1       2.558   6.527  18.180  0.00  0.00    +0.000 A 
ATOM      2  C   UNL     1       1.628   5.485  18.083  0.00  0.00    +0.000 A 
ATOM      3  C   UNL     1       2.041   4.192  17.753  0.00  0.00    +0.000 A 
ATOM      4  C   UNL     1       3.389   3.935  17.497  0.00  0.00    +0.000 A 
ATOM      5  C   UNL     1       4.321   4.976  17.545  0.00  0.00    +0.000 A 
ATOM      6  C   UNL     1       3.908   6.253  17.934  0.00  0.00    +0.000 A 
ENDROOT
BRANCH   5   7
ATOM      7  N   UNL     1       5.645   4.772  17.116  0.00  0.00    +0.000 N 
ATOM      8  C   UNL     1       6.125   4.643  15.812  0.00  0.00    +0.000 A 
ATOM      9  C   UNL     1       5.290   4.640  14.580  0.00  0.00    +0.000 C 
ATOM     10  C   UNL     1       7.448   4.420  15.865  0.00  0.00    +0.000 A 
ATOM     11  N   UNL     1       7.851   4.417  17.171  0.00  0.00    +0.000 N 
ATOM     12  C   UNL     1       6.744   4.624  18.014  0.00  0.00    +0.000 A 
ATOM     13  O   UNL     1       6.782   4.689  19.230  0.00  0.00    +0.000 OA
ATOM     14  H   UNL     1       8.790   4.292  17.520  0.00  0.00    +0.000 HD
ENDBRANCH   5   7
BRANCH   1  17
ATOM     15  C   UNL     1       1.277   9.493  19.504  0.00  0.00    +0.000 A 
ATOM     16  N   UNL     1       1.637   8.247  19.691  0.00  0.00    +0.000 NA
ATOM     17  C   UNL     1       2.129   7.885  18.460  0.00  0.00    +0.000 A 
ATOM     18  N   UNL     1       2.095   8.873  17.549  0.00  0.00    +0.000 NA
ATOM     19  O   UNL     1       1.528   9.942  18.241  0.00  0.00    +0.000 OA
BRANCH  15  24
ATOM     20  C   UNL     1      -1.195  13.179  23.083  0.00  0.00    +0.000 C 
ATOM     21  C   UNL     1      -0.553  12.183  22.168  0.00  0.00    +0.000 A 
ATOM     22  C   UNL     1      -0.766  10.818  22.342  0.00  0.00    +0.000 A 
ATOM     23  C   UNL     1      -0.156   9.931  21.461  0.00  0.00    +0.000 A 
ATOM     24  C   UNL     1       0.654  10.415  20.429  0.00  0.00    +0.000 A 
ATOM     25  C   UNL     1       0.807  11.790  20.336  0.00  0.00    +0.000 A 
ATOM     26  N   UNL     1       0.224  12.678  21.178  0.00  0.00    +0.000 NA
ENDBRANCH  15  24
ENDBRANCH   1  17
TORSDOF 3
ENDMDL
MODEL 3
REMARK VINA RESULT:      -8.4      1.151      1.594
REMARK  Name = 
REMARK  5 active torsions:
REMARK  status: ('A' for Active; 'I' for Inactive)
REMARK    1  A    between atoms: C_1  and  C_2
REMARK    2  A    between atoms: C_5  and  C_6
REMARK    3  A    between atoms: C_8  and  C_9
REMARK    4  A    between atoms: C_13  and  N_14
REMARK    5  A    between atoms: C_15  and  C_16
REMARK                            x       y       z     vdW  Elec       q    Type
REMARK                         _______ _______ _______ _____ _____    ______ ____
ROOT
ATOM      1  C   UNL     1       2.658   6.249  19.833  0.00  0.00    +0.000 A 
ATOM      2  C   UNL     1       2.083   5.149  20.482  0.00  0.00    +0.000 A 
ATOM      3  C   UNL     1       2.684   3.890  20.413  0.00  0.00    +0.000 A 
ATOM      4  C   UNL     1       3.856   3.716  19.675  0.00  0.00    +0.000 A 
ATOM      5  C   UNL     1       4.414   4.796  18.985  0.00  0.00    +0.000 A 
ATOM      6  C   UNL     1       3.840   6.064  19.109  0.00  0.00    +0.000 A 
ENDROOT
BRANCH   5   7
ATOM      7  N   UNL     1       5.487   4.600  18.098  0.00  0.00    +0.000 N 
ATOM      8  C   UNL     1       6.836   4.908  18.285  0.00  0.00    +0.000 A 
ATOM      9  C   UNL     1       7.411   5.582  19.482  0.00  0.00    +0.000 C 
ATOM     10  C   UNL     1       7.505   4.591  17.165  0.00  0.00    +0.000 A 
ATOM     11  N   UNL     1       6.633   4.064  16.254  0.00  0.00    +0.000 N 
ATOM     12  C   UNL     1       5.331   4.056  16.788  0.00  0.00    +0.000 A 
ATOM     13  O   UNL     1       4.337   3.633  16.224  0.00  0.00    +0.000 OA
ATOM     14  H   UNL     1       6.849   3.719  15.331  0.00  0.00    +0.000 HD
ENDBRANCH   5   7
BRANCH   1  17
ATOM     15  C   UNL     1       0.813   9.130  20.531  0.00  0.00    +0.000 A 
ATOM     16  N   UNL     1       1.324   8.000  20.951  0.00  0.00    +0.000 NA
ATOM     17  C   UNL     1       2.006   7.547  19.847  0.00  0.00    +0.000 A 
ATOM     18  N   UNL     1       1.939   8.373  18.789  0.00  0.00    +0.000 NA
ATOM     19  O   UNL     1       1.145   9.425  19.242  0.00  0.00    +0.000 OA
BRANCH  15  24
ATOM     20  C   UNL     1      -2.607  12.817  23.218  0.00  0.00    +0.000 C 
ATOM     21  C   UNL     1      -1.698  11.835  22.546  0.00  0.00    +0.000 A 
ATOM     22  C   UNL     1      -1.203  10.735  23.241  0.00  0.00    +0.000 A 
ATOM     23  C   UNL     1      -0.370   9.844  22.572  0.00  0.00    +0.000 A 
ATOM     24  C   UNL     1      -0.043  10.065  21.231  0.00  0.00    +0.000 A 
ATOM     25  C   UNL     1      -0.583  11.188  20.623  0.00  0.00    +0.000 A 
ATOM     26  N   UNL     1      -1.398  12.071  21.249  0.00  0.00    +0.000 NA
ENDBRANCH  15  24
ENDBRANCH   1  17
TORSDOF 3
ENDMDL
MODEL 4
REMARK VINA RESULT:      -8.4      5.467      7.495
REMARK  Name = 
REMARK  5 active torsions:
REMARK  status: ('A' for Active; 'I' for Inactive)
REMARK    1  A    between atoms: C_1  and  C_2
REMARK    2  A    between atoms: C_5  and  C_6
REMARK    3  A    between atoms: C_8  and  C_9
REMARK    4  A    between atoms: C_13  and  N_14
REMARK    5  A    between atoms: C_15  and  C_16
REMARK                            x       y       z     vdW  Elec       q    Type
REMARK                         _______ _______ _______ _____ _____    ______ ____
ROOT
ATOM      1  C   UNL     1       6.393   6.050  17.299  0.00  0.00    +0.000 A 
ATOM      2  C   UNL     1       6.626   5.536  16.017  0.00  0.00    +0.000 A 
ATOM      3  C   UNL     1       5.831   4.504  15.511  0.00  0.00    +0.000 A 
ATOM      4  C   UNL     1       4.808   3.964  16.293  0.00  0.00    +0.000 A 
ATOM      5  C   UNL     1       4.596   4.438  17.591  0.00  0.00    +0.000 A 
ATOM      6  C   UNL     1       5.356   5.510  18.066  0.00  0.00    +0.000 A 
ENDROOT
BRANCH   5   7
ATOM      7  N   UNL     1       3.693   3.787  18.450  0.00  0.00    +0.000 N 
ATOM      8  C   UNL     1       2.299   3.853  18.457  0.00  0.00    +0.000 A 
ATOM      9  C   UNL     1       1.470   4.702  17.557  0.00  0.00    +0.000 C 
ATOM     10  C   UNL     1       1.841   3.106  19.474  0.00  0.00    +0.000 A 
ATOM     11  N   UNL     1       2.899   2.536  20.124  0.00  0.00    +0.000 N 
ATOM     12  C   UNL     1       4.105   2.943  19.524  0.00  0.00    +0.000 A 
ATOM     13  O   UNL     1       5.221   2.591  19.867  0.00  0.00    +0.000 OA
ATOM     14  H   UNL     1       2.865   1.910  20.915  0.00  0.00    +0.000 HD
ENDBRANCH   5   7
BRANCH   1  17
ATOM     15  C   UNL     1       8.196   8.940  18.066  0.00  0.00    +0.000 A 
ATOM     16  N   UNL     1       7.227   8.372  17.392  0.00  0.00    +0.000 NA
ATOM     17  C   UNL     1       7.253   7.079  17.857  0.00  0.00    +0.000 A 
ATOM     18  N   UNL     1       8.188   6.857  18.797  0.00  0.00    +0.000 NA
ATOM     19  O   UNL     1       8.816   8.093  18.936  0.00  0.00    +0.000 OA
BRANCH  15  24
ATOM     20  C   UNL     1      10.047  14.327  17.807  0.00  0.00    +0.000 C 
ATOM     21  C   UNL     1       9.597  12.901  17.881  0.00  0.00    +0.000 A 
ATOM     22  C   UNL     1      10.426  11.922  18.422  0.00  0.00    +0.000 A 
ATOM     23  C   UNL     1       9.961  10.612  18.477  0.00  0.00    +0.000 A 
ATOM     24  C   UNL     1       8.686  10.301  17.994  0.00  0.00    +0.000 A 
ATOM     25  C   UNL     1       7.933  11.343  17.474  0.00  0.00    +0.000 A 
ATOM     26  N   UNL     1       8.360  12.627  17.408  0.00  0.00    +0.000 NA
ENDBRANCH  15  24
ENDBRANCH   1  17
TORSDOF 3
ENDMDL
MODEL 5
REMARK VINA RESULT:      -8.3      2.409      8.759
REMARK  Name = 
REMARK  5 active torsions:
REMARK  status: ('A' for Active; 'I' for Inactive)
REMARK    1  A    between atoms: C_1  and  C_2
REMARK    2  A    between atoms: C_5  and  C_6
REMARK    3  A    between atoms: C_8  and  C_9
REMARK    4  A    between atoms: C_13  and  N_14
REMARK    5  A    between atoms: C_15  and  C_16
REMARK                            x       y       z     vdW  Elec       q    Type
REMARK                         _______ _______ _______ _____ _____    ______ ____
ROOT
ATOM      1  C   UNL     1       1.459   8.334  20.273  0.00  0.00    +0.000 A 
ATOM      2  C   UNL     1       1.232   8.397  21.654  0.00  0.00    +0.000 A 
ATOM      3  C   UNL     1       0.530   9.469  22.210  0.00  0.00    +0.000 A 
ATOM      4  C   UNL     1       0.065  10.499  21.391  0.00  0.00    +0.000 A 
ATOM      5  C   UNL     1       0.325  10.470  20.018  0.00  0.00    +0.000 A 
ATOM      6  C   UNL     1       0.975   9.366  19.462  0.00  0.00    +0.000 A 
ENDROOT
BRANCH   5   7
ATOM      7  N   UNL     1       0.022  11.581  19.210  0.00  0.00    +0.000 N 
ATOM      8  C   UNL     1       0.723  12.782  19.086  0.00  0.00    +0.000 A 
ATOM      9  C   UNL     1       1.940  13.156  19.858  0.00  0.00    +0.000 C 
ATOM     10  C   UNL     1       0.057  13.578  18.234  0.00  0.00    +0.000 A 
ATOM     11  N   UNL     1      -1.054  12.923  17.781  0.00  0.00    +0.000 N 
ATOM     12  C   UNL     1      -1.135  11.651  18.377  0.00  0.00    +0.000 A 
ATOM     13  O   UNL     1      -2.003  10.823  18.163  0.00  0.00    +0.000 OA
ATOM     14  H   UNL     1      -1.735  13.263  17.119  0.00  0.00    +0.000 HD
ENDBRANCH   5   7
BRANCH   1  17
ATOM     15  C   UNL     1       3.439   6.232  18.310  0.00  0.00    +0.000 A 
ATOM     16  N   UNL     1       2.980   7.436  18.550  0.00  0.00    +0.000 NA
ATOM     17  C   UNL     1       2.242   7.257  19.695  0.00  0.00    +0.000 A 
ATOM     18  N   UNL     1       2.258   5.996  20.161  0.00  0.00    +0.000 NA
ATOM     19  O   UNL     1       3.052   5.314  19.241  0.00  0.00    +0.000 OA
BRANCH  15  24
ATOM     20  C   UNL     1       6.734   4.461  14.008  0.00  0.00    +0.000 C 
ATOM     21  C   UNL     1       5.855   4.891  15.140  0.00  0.00    +0.000 A 
ATOM     22  C   UNL     1       5.246   3.948  15.965  0.00  0.00    +0.000 A 
ATOM     23  C   UNL     1       4.444   4.395  17.010  0.00  0.00    +0.000 A 
ATOM     24  C   UNL     1       4.261   5.767  17.214  0.00  0.00    +0.000 A 
ATOM     25  C   UNL     1       4.907   6.629  16.342  0.00  0.00    +0.000 A 
ATOM     26  N   UNL     1       5.695   6.222  15.316  0.00  0.00    +0.000 NA
ENDBRANCH  15  24
ENDBRANCH   1  17
TORSDOF 3
ENDMDL
MODEL 6
REMARK VINA RESULT:      -8.2      2.263      8.748
REMARK  Name = 
REMARK  5 active torsions:
REMARK  status: ('A' for Active; 'I' for Inactive)
REMARK    1  A    between atoms: C_1  and  C_2
REMARK    2  A    between atoms: C_5  and  C_6
REMARK    3  A    between atoms: C_8  and  C_9
REMARK    4  A    between atoms: C_13  and  N_14
REMARK    5  A    between atoms: C_15  and  C_16
REMARK                            x       y       z     vdW  Elec       q    Type
REMARK                         _______ _______ _______ _____ _____    ______ ____
ROOT
ATOM      1  C   UNL     1       1.130   8.530  20.600  0.00  0.00    +0.000 A 
ATOM      2  C   UNL     1       0.811   8.631  21.959  0.00  0.00    +0.000 A 
ATOM      3  C   UNL     1       0.132   9.750  22.448  0.00  0.00    +0.000 A 
ATOM      4  C   UNL     1      -0.215  10.788  21.581  0.00  0.00    +0.000 A 
ATOM      5  C   UNL     1       0.139  10.719  20.231  0.00  0.00    +0.000 A 
ATOM      6  C   UNL     1       0.764   9.570  19.740  0.00  0.00    +0.000 A 
ENDROOT
BRANCH   5   7
ATOM      7  N   UNL     1      -0.044  11.829  19.386  0.00  0.00    +0.000 N 
ATOM      8  C   UNL     1       0.724  12.992  19.303  0.00  0.00    +0.000 A 
ATOM      9  C   UNL     1       1.893  13.320  20.165  0.00  0.00    +0.000 C 
ATOM     10  C   UNL     1       0.167  13.805  18.390  0.00  0.00    +0.000 A 
ATOM     11  N   UNL     1      -0.935  13.197  17.858  0.00  0.00    +0.000 N 
ATOM     12  C   UNL     1      -1.126  11.940  18.463  0.00  0.00    +0.000 A 
ATOM     13  O   UNL     1      -2.014  11.152  18.191  0.00  0.00    +0.000 OA
ATOM     14  H   UNL     1      -1.543  13.557  17.139  0.00  0.00    +0.000 HD
ENDBRANCH   5   7
BRANCH   1  17
ATOM     15  C   UNL     1       3.060   6.258  18.781  0.00  0.00    +0.000 A 
ATOM     16  N   UNL     1       2.624   7.483  18.936  0.00  0.00    +0.000 NA
ATOM     17  C   UNL     1       1.891   7.400  20.095  0.00  0.00    +0.000 A 
ATOM     18  N   UNL     1       1.890   6.176  20.651  0.00  0.00    +0.000 NA
ATOM     19  O   UNL     1       2.665   5.416  19.778  0.00  0.00    +0.000 OA
BRANCH  15  24
ATOM     20  C   UNL     1       6.175   4.005  14.569  0.00  0.00    +0.000 C 
ATOM     21  C   UNL     1       5.376   4.630  15.671  0.00  0.00    +0.000 A 
ATOM     22  C   UNL     1       5.344   6.013  15.830  0.00  0.00    +0.000 A 
ATOM     23  C   UNL     1       4.580   6.548  16.862  0.00  0.00    +0.000 A 
ATOM     24  C   UNL     1       3.866   5.700  17.715  0.00  0.00    +0.000 A 
ATOM     25  C   UNL     1       3.959   4.337  17.479  0.00  0.00    +0.000 A 
ATOM     26  N   UNL     1       4.694   3.789  16.481  0.00  0.00    +0.000 NA
ENDBRANCH  15  24
ENDBRANCH   1  17
TORSDOF 3
ENDMDL
MODEL 7
REMARK VINA RESULT:      -8.2      2.361      3.481
REMARK  Name = 
REMARK  5 active torsions:
REMARK  status: ('A' for Active; 'I' for Inactive)
REMARK    1  A    between atoms: C_1  and  C_2
REMARK    2  A    between atoms: C_5  and  C_6
REMARK    3  A    between atoms: C_8  and  C_9
REMARK    4  A    between atoms: C_13  and  N_14
REMARK    5  A    between atoms: C_15  and  C_16
REMARK                            x       y       z     vdW  Elec       q    Type
REMARK                         _______ _______ _______ _____ _____    ______ ____
ROOT
ATOM      1  C   UNL     1       2.737   7.371  18.088  0.00  0.00    +0.000 A 
ATOM      2  C   UNL     1       3.974   7.410  17.431  0.00  0.00    +0.000 A 
ATOM      3  C   UNL     1       4.657   6.229  17.131  0.00  0.00    +0.000 A 
ATOM      4  C   UNL     1       4.117   4.997  17.504  0.00  0.00    +0.000 A 
ATOM      5  C   UNL     1       2.905   4.947  18.201  0.00  0.00    +0.000 A 
ATOM      6  C   UNL     1       2.201   6.129  18.443  0.00  0.00    +0.000 A 
ENDROOT
BRANCH   5   7
ATOM      7  N   UNL     1       2.439   3.734  18.738  0.00  0.00    +0.000 N 
ATOM      8  C   UNL     1       2.150   3.429  20.069  0.00  0.00    +0.000 A 
ATOM      9  C   UNL     1       2.342   4.344  21.228  0.00  0.00    +0.000 C 
ATOM     10  C   UNL     1       1.771   2.142  20.138  0.00  0.00    +0.000 A 
ATOM     11  N   UNL     1       1.786   1.601  18.884  0.00  0.00    +0.000 N 
ATOM     12  C   UNL     1       2.215   2.565  17.952  0.00  0.00    +0.000 A 
ATOM     13  O   UNL     1       2.317   2.392  16.750  0.00  0.00    +0.000 OA
ATOM     14  H   UNL     1       1.533   0.660  18.622  0.00  0.00    +0.000 HD
ENDBRANCH   5   7
BRANCH   1  17
ATOM     15  C   UNL     1       0.837   9.901  19.564  0.00  0.00    +0.000 A 
ATOM     16  N   UNL     1       1.392   8.718  19.659  0.00  0.00    +0.000 NA
ATOM     17  C   UNL     1       2.052   8.596  18.459  0.00  0.00    +0.000 A 
ATOM     18  N   UNL     1       1.928   9.669  17.659  0.00  0.00    +0.000 NA
ATOM     19  O   UNL     1       1.120  10.536  18.392  0.00  0.00    +0.000 OA
BRANCH  15  24
ATOM     20  C   UNL     1      -2.609  12.603  23.216  0.00  0.00    +0.000 C 
ATOM     21  C   UNL     1      -1.684  11.881  22.287  0.00  0.00    +0.000 A 
ATOM     22  C   UNL     1      -0.817  10.902  22.765  0.00  0.00    +0.000 A 
ATOM     23  C   UNL     1       0.018  10.251  21.863  0.00  0.00    +0.000 A 
ATOM     24  C   UNL     1      -0.022  10.587  20.506  0.00  0.00    +0.000 A 
ATOM     25  C   UNL     1      -0.917  11.575  20.123  0.00  0.00    +0.000 A 
ATOM     26  N   UNL     1      -1.743  12.224  20.980  0.00  0.00    +0.000 NA
ENDBRANCH  15  24
ENDBRANCH   1  17
TORSDOF 3
ENDMDL
MODEL 8
REMARK VINA RESULT:      -8.1      3.069      9.494
REMARK  Name = 
REMARK  5 active torsions:
REMARK  status: ('A' for Active; 'I' for Inactive)
REMARK    1  A    between atoms: C_1  and  C_2
REMARK    2  A    between atoms: C_5  and  C_6
REMARK    3  A    between atoms: C_8  and  C_9
REMARK    4  A    between atoms: C_13  and  N_14
REMARK    5  A    between atoms: C_15  and  C_16
REMARK                            x       y       z     vdW  Elec       q    Type
REMARK                         _______ _______ _______ _____ _____    ______ ____
ROOT
ATOM      1  C   UNL     1       0.572  10.575  18.701  0.00  0.00    +0.000 A 
ATOM      2  C   UNL     1       1.175  11.837  18.769  0.00  0.00    +0.000 A 
ATOM      3  C   UNL     1       0.423  12.996  18.562  0.00  0.00    +0.000 A 
ATOM      4  C   UNL     1      -0.938  12.900  18.266  0.00  0.00    +0.000 A 
ATOM      5  C   UNL     1      -1.542  11.645  18.150  0.00  0.00    +0.000 A 
ATOM      6  C   UNL     1      -0.795  10.494  18.417  0.00  0.00    +0.000 A 
ENDROOT
BRANCH   5   7
ATOM      7  N   UNL     1      -2.861  11.526  17.678  0.00  0.00    +0.000 N 
ATOM      8  C   UNL     1      -4.051  11.832  18.340  0.00  0.00    +0.000 A 
ATOM      9  C   UNL     1      -4.159  12.306  19.748  0.00  0.00    +0.000 C 
ATOM     10  C   UNL     1      -5.079  11.528  17.532  0.00  0.00    +0.000 A 
ATOM     11  N   UNL     1      -4.594  11.048  16.348  0.00  0.00    +0.000 N 
ATOM     12  C   UNL     1      -3.188  11.013  16.387  0.00  0.00    +0.000 A 
ATOM     13  O   UNL     1      -2.463  10.649  15.477  0.00  0.00    +0.000 OA
ATOM     14  H   UNL     1      -5.127  10.757  15.543  0.00  0.00    +0.000 HD
ENDBRANCH   5   7
BRANCH   1  17
ATOM     15  C   UNL     1       2.573   7.739  18.318  0.00  0.00    +0.000 A 
ATOM     16  N   UNL     1       2.118   8.863  17.822  0.00  0.00    +0.000 NA
ATOM     17  C   UNL     1       1.358   9.364  18.852  0.00  0.00    +0.000 A 
ATOM     18  N   UNL     1       1.359   8.592  19.953  0.00  0.00    +0.000 NA
ATOM     19  O   UNL     1       2.165   7.512  19.598  0.00  0.00    +0.000 OA
BRANCH  15  24
ATOM     20  C   UNL     1       5.808   3.746  15.848  0.00  0.00    +0.000 C 
ATOM     21  C   UNL     1       4.986   4.820  16.490  0.00  0.00    +0.000 A 
ATOM     22  C   UNL     1       5.301   6.163  16.303  0.00  0.00    +0.000 A 
ATOM     23  C   UNL     1       4.503   7.126  16.912  0.00  0.00    +0.000 A 
ATOM     24  C   UNL     1       3.412   6.737  17.696  0.00  0.00    +0.000 A 
ATOM     25  C   UNL     1       3.177   5.377  17.824  0.00  0.00    +0.000 A 
ATOM     26  N   UNL     1       3.936   4.417  17.242  0.00  0.00    +0.000 NA
ENDBRANCH  15  24
ENDBRANCH   1  17
TORSDOF 3
ENDMDL
MODEL 9
REMARK VINA RESULT:      -8.0      3.031      9.406
REMARK  Name = 
REMARK  5 active torsions:
REMARK  status: ('A' for Active; 'I' for Inactive)
REMARK    1  A    between atoms: C_1  and  C_2
REMARK    2  A    between atoms: C_5  and  C_6
REMARK    3  A    between atoms: C_8  and  C_9
REMARK    4  A    between atoms: C_13  and  N_14
REMARK    5  A    between atoms: C_15  and  C_16
REMARK                            x       y       z     vdW  Elec       q    Type
REMARK                         _______ _______ _______ _____ _____    ______ ____
ROOT
ATOM      1  C   UNL     1       0.654  10.586  18.808  0.00  0.00    +0.000 A 
ATOM      2  C   UNL     1       1.307  11.823  18.741  0.00  0.00    +0.000 A 
ATOM      3  C   UNL     1       0.580  13.000  18.552  0.00  0.00    +0.000 A 
ATOM      4  C   UNL     1      -0.808  12.948  18.408  0.00  0.00    +0.000 A 
ATOM      5  C   UNL     1      -1.466  11.715  18.427  0.00  0.00    +0.000 A 
ATOM      6  C   UNL     1      -0.738  10.549  18.676  0.00  0.00    +0.000 A 
ENDROOT
BRANCH   5   7
ATOM      7  N   UNL     1      -2.833  11.629  18.106  0.00  0.00    +0.000 N 
ATOM      8  C   UNL     1      -3.419  11.205  16.913  0.00  0.00    +0.000 A 
ATOM      9  C   UNL     1      -2.683  10.801  15.683  0.00  0.00    +0.000 C 
ATOM     10  C   UNL     1      -4.752  11.322  17.028  0.00  0.00    +0.000 A 
ATOM     11  N   UNL     1      -5.056  11.795  18.273  0.00  0.00    +0.000 N 
ATOM     12  C   UNL     1      -3.873  12.020  19.001  0.00  0.00    +0.000 A 
ATOM     13  O   UNL     1      -3.814  12.426  20.149  0.00  0.00    +0.000 OA
ATOM     14  H   UNL     1      -5.975  11.967  18.654  0.00  0.00    +0.000 HD
ENDBRANCH   5   7
BRANCH   1  17
ATOM     15  C   UNL     1       2.567   7.696  18.379  0.00  0.00    +0.000 A 
ATOM     16  N   UNL     1       2.137   8.836  17.896  0.00  0.00    +0.000 NA
ATOM     17  C   UNL     1       1.407   9.351  18.940  0.00  0.00    +0.000 A 
ATOM     18  N   UNL     1       1.400   8.573  20.036  0.00  0.00    +0.000 NA
ATOM     19  O   UNL     1       2.169   7.472  19.664  0.00  0.00    +0.000 OA
BRANCH  15  24
ATOM     20  C   UNL     1       5.791   3.712  15.881  0.00  0.00    +0.000 C 
ATOM     21  C   UNL     1       4.917   4.732  16.541  0.00  0.00    +0.000 A 
ATOM     22  C   UNL     1       3.793   4.343  17.265  0.00  0.00    +0.000 A 
ATOM     23  C   UNL     1       3.015   5.327  17.869  0.00  0.00    +0.000 A 
ATOM     24  C   UNL     1       3.367   6.674  17.739  0.00  0.00    +0.000 A 
ATOM     25  C   UNL     1       4.503   6.964  16.999  0.00  0.00    +0.000 A 
ATOM     26  N   UNL     1       5.279   6.028  16.401  0.00  0.00    +0.000 NA
ENDBRANCH  15  24
ENDBRANCH   1  17
TORSDOF 3
ENDMDL
