MODEL 1
REMARK VINA RESULT:      -9.2      0.000      0.000
REMARK  Name = 
REMARK  9 active torsions:
REMARK  status: ('A' for Active; 'I' for Inactive)
REMARK    1  A    between atoms: C_1  and  C_2
REMARK    2  A    between atoms: C_7  and  N_8
REMARK    3  A    between atoms: C_9  and  C_11
REMARK    4  A    between atoms: C_15  and  N_16
REMARK    5  A    between atoms: C_17  and  O_19
REMARK    6  A    between atoms: O_19  and  C_20
REMARK    7  A    between atoms: C_20  and  C_21
REMARK    8  A    between atoms: C_20  and  C_22
REMARK    9  A    between atoms: C_20  and  C_23
REMARK                            x       y       z     vdW  Elec       q    Type
REMARK                         _______ _______ _______ _____ _____    ______ ____
ROOT
ATOM      1  N   UNL     1       7.568   8.407  17.404  0.00  0.00    +0.000 N 
ATOM      2  C   UNL     1       7.590   7.108  17.893  0.00  0.00    +0.000 C 
ATOM      3  O   UNL     1       8.182   6.726  18.897  0.00  0.00    +0.000 OA
ATOM      4  H   UNL     1       6.976   8.614  16.609  0.00  0.00    +0.000 HD
ENDROOT
BRANCH   1  11
ATOM      5  C   UNL     1      10.693  15.124  19.742  0.00  0.00    +0.000 C 
ATOM      6  C   UNL     1      10.274  13.946  18.873  0.00  0.00    +0.000 C 
ATOM      7  O   UNL     1      10.158  12.795  19.709  0.00  0.00    +0.000 OA
ATOM      8  C   UNL     1       9.552  11.741  19.078  0.00  0.00    +0.000 A 
ATOM      9  C   UNL     1       9.722  10.490  19.652  0.00  0.00    +0.000 A 
ATOM     10  C   UNL     1       9.080   9.380  19.099  0.00  0.00    +0.000 A 
ATOM     11  C   UNL     1       8.265   9.503  17.969  0.00  0.00    +0.000 A 
ATOM     12  C   UNL     1       8.115  10.765  17.376  0.00  0.00    +0.000 A 
ATOM     13  C   UNL     1       8.729  11.882  17.955  0.00  0.00    +0.000 A 
ATOM     14  N   UNL     1       8.442  13.164  17.475  0.00  0.00    +0.000 N 
ATOM     15  C   UNL     1       9.026  14.274  18.038  0.00  0.00    +0.000 C 
ATOM     16  O   UNL     1       8.622  15.405  17.788  0.00  0.00    +0.000 OA
ATOM     17  H   UNL     1       7.685  13.322  16.822  0.00  0.00    +0.000 HD
ENDBRANCH   1  11
BRANCH   2  18
ATOM     18  C   UNL     1       6.817   6.084  17.143  0.00  0.00    +0.000 A 
ATOM     19  C   UNL     1       7.082   5.775  15.805  0.00  0.00    +0.000 A 
ATOM     20  C   UNL     1       6.301   4.824  15.160  0.00  0.00    +0.000 A 
ATOM     21  C   UNL     1       5.265   4.185  15.846  0.00  0.00    +0.000 A 
ATOM     22  C   UNL     1       4.989   4.472  17.187  0.00  0.00    +0.000 A 
ATOM     23  C   UNL     1       5.757   5.447  17.823  0.00  0.00    +0.000 A 
BRANCH  22  24
ATOM     24  N   UNL     1       3.960   3.823  17.908  0.00  0.00    +0.000 N 
ATOM     25  C   UNL     1       4.154   3.135  19.081  0.00  0.00    +0.000 C 
ATOM     26  O   UNL     1       5.218   3.090  19.682  0.00  0.00    +0.000 OA
ATOM     27  H   UNL     1       2.997   3.943  17.619  0.00  0.00    +0.000 HD
BRANCH  25  28
ATOM     28  O   UNL     1       3.011   2.535  19.518  0.00  0.00    +0.000 OA
BRANCH  28  29
ATOM     29  C   UNL     1       2.108   3.358  20.320  0.00  0.00    +0.000 C 
ATOM     30  C   UNL     1       1.951   2.775  21.735  0.00  0.00    +0.000 C 
ATOM     31  C   UNL     1       2.746   4.749  20.461  0.00  0.00    +0.000 C 
ATOM     32  C   UNL     1       0.758   3.552  19.604  0.00  0.00    +0.000 C 
ENDBRANCH  28  29
ENDBRANCH  25  28
ENDBRANCH  22  24
ENDBRANCH   2  18
TORSDOF 5
ENDMDL
MODEL 2
REMARK VINA RESULT:      -9.1      0.688      1.104
REMARK  Name = 
REMARK  9 active torsions:
REMARK  status: ('A' for Active; 'I' for Inactive)
REMARK    1  A    between atoms: C_1  and  C_2
REMARK    2  A    between atoms: C_7  and  N_8
REMARK    3  A    between atoms: C_9  and  C_11
REMARK    4  A    between atoms: C_15  and  N_16
REMARK    5  A    between atoms: C_17  and  O_19
REMARK    6  A    between atoms: O_19  and  C_20
REMARK    7  A    between atoms: C_20  and  C_21
REMARK    8  A    between atoms: C_20  and  C_22
REMARK    9  A    between atoms: C_20  and  C_23
REMARK                            x       y       z     vdW  Elec       q    Type
REMARK                         _______ _______ _______ _____ _____    ______ ____
ROOT
ATOM      1  N   UNL     1       7.727   8.635  17.512  0.00  0.00    +0.000 N 
ATOM      2  C   UNL     1       7.860   7.355  18.034  0.00  0.00    +0.000 C 
ATOM      3  O   UNL     1       8.519   7.045  19.021  0.00  0.00    +0.000 OA
ATOM      4  H   UNL     1       7.090   8.777  16.738  0.00  0.00    +0.000 HD
ENDROOT
BRANCH   1  11
ATOM      5  C   UNL     1      10.463  15.618  19.540  0.00  0.00    +0.000 C 
ATOM      6  C   UNL     1      10.088  14.390  18.720  0.00  0.00    +0.000 C 
ATOM      7  O   UNL     1      10.100  13.256  19.584  0.00  0.00    +0.000 OA
ATOM      8  C   UNL     1       9.542  12.144  19.008  0.00  0.00    +0.000 A 
ATOM      9  C   UNL     1       9.833  10.924  19.599  0.00  0.00    +0.000 A 
ATOM     10  C   UNL     1       9.247   9.757  19.105  0.00  0.00    +0.000 A 
ATOM     11  C   UNL     1       8.369   9.792  18.016  0.00  0.00    +0.000 A 
ATOM     12  C   UNL     1       8.096  11.025  17.406  0.00  0.00    +0.000 A 
ATOM     13  C   UNL     1       8.655  12.197  17.927  0.00  0.00    +0.000 A 
ATOM     14  N   UNL     1       8.250  13.443  17.436  0.00  0.00    +0.000 N 
ATOM     15  C   UNL     1       8.779  14.606  17.944  0.00  0.00    +0.000 C 
ATOM     16  O   UNL     1       8.280  15.698  17.691  0.00  0.00    +0.000 OA
ATOM     17  H   UNL     1       7.452  13.529  16.821  0.00  0.00    +0.000 HD
ENDBRANCH   1  11
BRANCH   2  18
ATOM     18  C   UNL     1       7.129   6.259  17.346  0.00  0.00    +0.000 A 
ATOM     19  C   UNL     1       7.214   6.052  15.967  0.00  0.00    +0.000 A 
ATOM     20  C   UNL     1       6.482   5.022  15.388  0.00  0.00    +0.000 A 
ATOM     21  C   UNL     1       5.674   4.204  16.182  0.00  0.00    +0.000 A 
ATOM     22  C   UNL     1       5.582   4.388  17.566  0.00  0.00    +0.000 A 
ATOM     23  C   UNL     1       6.296   5.440  18.139  0.00  0.00    +0.000 A 
BRANCH  22  24
ATOM     24  N   UNL     1       4.788   3.561  18.392  0.00  0.00    +0.000 N 
ATOM     25  C   UNL     1       3.427   3.419  18.264  0.00  0.00    +0.000 C 
ATOM     26  O   UNL     1       2.768   3.914  17.362  0.00  0.00    +0.000 OA
ATOM     27  H   UNL     1       5.235   2.948  19.062  0.00  0.00    +0.000 HD
BRANCH  25  28
ATOM     28  O   UNL     1       2.899   2.631  19.244  0.00  0.00    +0.000 OA
BRANCH  28  29
ATOM     29  C   UNL     1       2.116   3.309  20.275  0.00  0.00    +0.000 C 
ATOM     30  C   UNL     1       0.611   3.198  19.975  0.00  0.00    +0.000 C 
ATOM     31  C   UNL     1       2.376   2.589  21.607  0.00  0.00    +0.000 C 
ATOM     32  C   UNL     1       2.582   4.766  20.450  0.00  0.00    +0.000 C 
ENDBRANCH  28  29
ENDBRANCH  25  28
ENDBRANCH  22  24
ENDBRANCH   2  18
TORSDOF 5
ENDMDL
MODEL 3
REMARK VINA RESULT:      -9.1      0.889      1.154
REMARK  Name = 
REMARK  9 active torsions:
REMARK  status: ('A' for Active; 'I' for Inactive)
REMARK    1  A    between atoms: C_1  and  C_2
REMARK    2  A    between atoms: C_7  and  N_8
REMARK    3  A    between atoms: C_9  and  C_11
REMARK    4  A    between atoms: C_15  and  N_16
REMARK    5  A    between atoms: C_17  and  O_19
REMARK    6  A    between atoms: O_19  and  C_20
REMARK    7  A    between atoms: C_20  and  C_21
REMARK    8  A    between atoms: C_20  and  C_22
REMARK    9  A    between atoms: C_20  and  C_23
REMARK                            x       y       z     vdW  Elec       q    Type
REMARK                         _______ _______ _______ _____ _____    ______ ____
ROOT
ATOM      1  N   UNL     1       7.605   8.741  17.463  0.00  0.00    +0.000 N 
ATOM      2  C   UNL     1       7.675   7.416  17.872  0.00  0.00    +0.000 C 
ATOM      3  O   UNL     1       8.347   6.984  18.803  0.00  0.00    +0.000 OA
ATOM      4  H   UNL     1       6.951   8.985  16.729  0.00  0.00    +0.000 HD
ENDROOT
BRANCH   1  11
ATOM      5  C   UNL     1      10.981  15.335  19.800  0.00  0.00    +0.000 C 
ATOM      6  C   UNL     1      10.534  14.163  18.936  0.00  0.00    +0.000 C 
ATOM      7  O   UNL     1      10.330  13.036  19.786  0.00  0.00    +0.000 OA
ATOM      8  C   UNL     1       9.694  12.001  19.151  0.00  0.00    +0.000 A 
ATOM      9  C   UNL     1       9.781  10.754  19.752  0.00  0.00    +0.000 A 
ATOM     10  C   UNL     1       9.103   9.668  19.195  0.00  0.00    +0.000 A 
ATOM     11  C   UNL     1       8.336   9.810  18.034  0.00  0.00    +0.000 A 
ATOM     12  C   UNL     1       8.271  11.067  17.415  0.00  0.00    +0.000 A 
ATOM     13  C   UNL     1       8.919  12.162  17.997  0.00  0.00    +0.000 A 
ATOM     14  N   UNL     1       8.715  13.448  17.485  0.00  0.00    +0.000 N 
ATOM     15  C   UNL     1       9.335  14.538  18.051  0.00  0.00    +0.000 C 
ATOM     16  O   UNL     1       8.997  15.683  17.767  0.00  0.00    +0.000 OA
ATOM     17  H   UNL     1       7.991  13.631  16.803  0.00  0.00    +0.000 HD
ENDBRANCH   1  11
BRANCH   2  18
ATOM     18  C   UNL     1       6.853   6.427  17.126  0.00  0.00    +0.000 A 
ATOM     19  C   UNL     1       7.296   5.819  15.948  0.00  0.00    +0.000 A 
ATOM     20  C   UNL     1       6.463   4.923  15.290  0.00  0.00    +0.000 A 
ATOM     21  C   UNL     1       5.197   4.635  15.806  0.00  0.00    +0.000 A 
ATOM     22  C   UNL     1       4.737   5.224  16.988  0.00  0.00    +0.000 A 
ATOM     23  C   UNL     1       5.565   6.144  17.631  0.00  0.00    +0.000 A 
BRANCH  22  24
ATOM     24  N   UNL     1       3.469   4.933  17.541  0.00  0.00    +0.000 N 
ATOM     25  C   UNL     1       3.249   4.659  18.869  0.00  0.00    +0.000 C 
ATOM     26  O   UNL     1       4.108   4.733  19.736  0.00  0.00    +0.000 OA
ATOM     27  H   UNL     1       2.641   5.025  16.965  0.00  0.00    +0.000 HD
BRANCH  25  28
ATOM     28  O   UNL     1       1.949   4.328  19.117  0.00  0.00    +0.000 OA
BRANCH  28  29
ATOM     29  C   UNL     1       1.696   2.949  19.528  0.00  0.00    +0.000 C 
ATOM     30  C   UNL     1       1.445   2.871  21.044  0.00  0.00    +0.000 C 
ATOM     31  C   UNL     1       0.414   2.480  18.822  0.00  0.00    +0.000 C 
ATOM     32  C   UNL     1       2.832   2.019  19.065  0.00  0.00    +0.000 C 
ENDBRANCH  28  29
ENDBRANCH  25  28
ENDBRANCH  22  24
ENDBRANCH   2  18
TORSDOF 5
ENDMDL
MODEL 4
REMARK VINA RESULT:      -8.8      5.533      7.606
REMARK  Name = 
REMARK  9 active torsions:
REMARK  status: ('A' for Active; 'I' for Inactive)
REMARK    1  A    between atoms: C_1  and  C_2
REMARK    2  A    between atoms: C_7  and  N_8
REMARK    3  A    between atoms: C_9  and  C_11
REMARK    4  A    between atoms: C_15  and  N_16
REMARK    5  A    between atoms: C_17  and  O_19
REMARK    6  A    between atoms: O_19  and  C_20
REMARK    7  A    between atoms: C_20  and  C_21
REMARK    8  A    between atoms: C_20  and  C_22
REMARK    9  A    between atoms: C_20  and  C_23
REMARK                            x       y       z     vdW  Elec       q    Type
REMARK                         _______ _______ _______ _____ _____    ______ ____
ROOT
ATOM      1  N   UNL     1       2.310   6.934  20.414  0.00  0.00    +0.000 N 
ATOM      2  C   UNL     1       1.741   5.668  20.463  0.00  0.00    +0.000 C 
ATOM      3  O   UNL     1       0.552   5.419  20.634  0.00  0.00    +0.000 OA
ATOM      4  H   UNL     1       3.294   7.012  20.188  0.00  0.00    +0.000 HD
ENDROOT
BRANCH   1  11
ATOM      5  C   UNL     1      -1.689  13.590  20.166  0.00  0.00    +0.000 C 
ATOM      6  C   UNL     1      -0.605  12.541  19.952  0.00  0.00    +0.000 C 
ATOM      7  O   UNL     1      -0.616  11.654  21.069  0.00  0.00    +0.000 OA
ATOM      8  C   UNL     1       0.150  10.536  20.866  0.00  0.00    +0.000 A 
ATOM      9  C   UNL     1       0.506   9.811  21.993  0.00  0.00    +0.000 A 
ATOM     10  C   UNL     1       1.230   8.625  21.855  0.00  0.00    +0.000 A 
ATOM     11  C   UNL     1       1.610   8.151  20.595  0.00  0.00    +0.000 A 
ATOM     12  C   UNL     1       1.270   8.899  19.459  0.00  0.00    +0.000 A 
ATOM     13  C   UNL     1       0.511  10.067  19.598  0.00  0.00    +0.000 A 
ATOM     14  N   UNL     1       0.021  10.721  18.462  0.00  0.00    +0.000 N 
ATOM     15  C   UNL     1      -0.737  11.863  18.580  0.00  0.00    +0.000 C 
ATOM     16  O   UNL     1      -1.359  12.317  17.624  0.00  0.00    +0.000 OA
ATOM     17  H   UNL     1       0.067  10.289  17.549  0.00  0.00    +0.000 HD
ENDBRANCH   1  11
BRANCH   2  18
ATOM     18  C   UNL     1       2.648   4.505  20.280  0.00  0.00    +0.000 A 
ATOM     19  C   UNL     1       2.600   3.380  21.108  0.00  0.00    +0.000 A 
ATOM     20  C   UNL     1       3.497   2.340  20.894  0.00  0.00    +0.000 A 
ATOM     21  C   UNL     1       4.432   2.422  19.859  0.00  0.00    +0.000 A 
ATOM     22  C   UNL     1       4.491   3.535  19.013  0.00  0.00    +0.000 A 
ATOM     23  C   UNL     1       3.608   4.589  19.249  0.00  0.00    +0.000 A 
BRANCH  22  24
ATOM     24  N   UNL     1       5.414   3.633  17.947  0.00  0.00    +0.000 N 
ATOM     25  C   UNL     1       6.522   4.444  17.957  0.00  0.00    +0.000 C 
ATOM     26  O   UNL     1       6.887   5.096  18.924  0.00  0.00    +0.000 OA
ATOM     27  H   UNL     1       5.333   3.003  17.158  0.00  0.00    +0.000 HD
BRANCH  25  28
ATOM     28  O   UNL     1       7.192   4.411  16.769  0.00  0.00    +0.000 OA
BRANCH  28  29
ATOM     29  C   UNL     1       6.442   4.827  15.586  0.00  0.00    +0.000 C 
ATOM     30  C   UNL     1       5.536   6.028  15.911  0.00  0.00    +0.000 C 
ATOM     31  C   UNL     1       7.457   5.286  14.527  0.00  0.00    +0.000 C 
ATOM     32  C   UNL     1       5.665   3.642  14.983  0.00  0.00    +0.000 C 
ENDBRANCH  28  29
ENDBRANCH  25  28
ENDBRANCH  22  24
ENDBRANCH   2  18
TORSDOF 5
ENDMDL
MODEL 5
REMARK VINA RESULT:      -8.6      8.304     11.076
REMARK  Name = 
REMARK  9 active torsions:
REMARK  status: ('A' for Active; 'I' for Inactive)
REMARK    1  A    between atoms: C_1  and  C_2
REMARK    2  A    between atoms: C_7  and  N_8
REMARK    3  A    between atoms: C_9  and  C_11
REMARK    4  A    between atoms: C_15  and  N_16
REMARK    5  A    between atoms: C_17  and  O_19
REMARK    6  A    between atoms: O_19  and  C_20
REMARK    7  A    between atoms: C_20  and  C_21
REMARK    8  A    between atoms: C_20  and  C_22
REMARK    9  A    between atoms: C_20  and  C_23
REMARK                            x       y       z     vdW  Elec       q    Type
REMARK                         _______ _______ _______ _____ _____    ______ ____
ROOT
ATOM      1  N   UNL     1       0.012  10.087  20.109  0.00  0.00    +0.000 N 
ATOM      2  C   UNL     1       0.315  11.147  20.953  0.00  0.00    +0.000 C 
ATOM      3  O   UNL     1       1.442  11.511  21.276  0.00  0.00    +0.000 OA
ATOM      4  H   UNL     1      -0.956   9.934  19.855  0.00  0.00    +0.000 HD
ENDROOT
BRANCH   1  11
ATOM      5  C   UNL     1       4.977   4.582  17.786  0.00  0.00    +0.000 C 
ATOM      6  C   UNL     1       4.302   5.670  18.610  0.00  0.00    +0.000 C 
ATOM      7  O   UNL     1       3.623   6.550  17.716  0.00  0.00    +0.000 OA
ATOM      8  C   UNL     1       2.783   7.419  18.362  0.00  0.00    +0.000 A 
ATOM      9  C   UNL     1       2.372   8.535  17.649  0.00  0.00    +0.000 A 
ATOM     10  C   UNL     1       1.465   9.429  18.222  0.00  0.00    +0.000 A 
ATOM     11  C   UNL     1       0.962   9.223  19.511  0.00  0.00    +0.000 A 
ATOM     12  C   UNL     1       1.398   8.107  20.238  0.00  0.00    +0.000 A 
ATOM     13  C   UNL     1       2.277   7.193  19.647  0.00  0.00    +0.000 A 
ATOM     14  N   UNL     1       2.578   5.991  20.298  0.00  0.00    +0.000 N 
ATOM     15  C   UNL     1       3.430   5.076  19.727  0.00  0.00    +0.000 C 
ATOM     16  O   UNL     1       3.528   3.934  20.166  0.00  0.00    +0.000 OA
ATOM     17  H   UNL     1       2.059   5.693  21.113  0.00  0.00    +0.000 HD
ENDBRANCH   1  11
BRANCH   2  18
ATOM     18  C   UNL     1      -0.823  11.923  21.511  0.00  0.00    +0.000 A 
ATOM     19  C   UNL     1      -0.887  12.300  22.855  0.00  0.00    +0.000 A 
ATOM     20  C   UNL     1      -1.995  13.003  23.312  0.00  0.00    +0.000 A 
ATOM     21  C   UNL     1      -3.031  13.328  22.432  0.00  0.00    +0.000 A 
ATOM     22  C   UNL     1      -2.982  12.969  21.081  0.00  0.00    +0.000 A 
ATOM     23  C   UNL     1      -1.882  12.239  20.632  0.00  0.00    +0.000 A 
BRANCH  22  24
ATOM     24  N   UNL     1      -4.007  13.304  20.167  0.00  0.00    +0.000 N 
ATOM     25  C   UNL     1      -5.261  12.742  20.171  0.00  0.00    +0.000 C 
ATOM     26  O   UNL     1      -5.660  11.962  21.024  0.00  0.00    +0.000 OA
ATOM     27  H   UNL     1      -3.870  14.074  19.525  0.00  0.00    +0.000 HD
BRANCH  25  28
ATOM     28  O   UNL     1      -6.024  13.181  19.130  0.00  0.00    +0.000 OA
BRANCH  28  29
ATOM     29  C   UNL     1      -6.194  12.256  18.011  0.00  0.00    +0.000 C 
ATOM     30  C   UNL     1      -6.996  11.017  18.447  0.00  0.00    +0.000 C 
ATOM     31  C   UNL     1      -7.012  12.979  16.929  0.00  0.00    +0.000 C 
ATOM     32  C   UNL     1      -4.835  11.896  17.384  0.00  0.00    +0.000 C 
ENDBRANCH  28  29
ENDBRANCH  25  28
ENDBRANCH  22  24
ENDBRANCH   2  18
TORSDOF 5
ENDMDL
MODEL 6
REMARK VINA RESULT:      -8.6      5.695      7.120
REMARK  Name = 
REMARK  9 active torsions:
REMARK  status: ('A' for Active; 'I' for Inactive)
REMARK    1  A    between atoms: C_1  and  C_2
REMARK    2  A    between atoms: C_7  and  N_8
REMARK    3  A    between atoms: C_9  and  C_11
REMARK    4  A    between atoms: C_15  and  N_16
REMARK    5  A    between atoms: C_17  and  O_19
REMARK    6  A    between atoms: O_19  and  C_20
REMARK    7  A    between atoms: C_20  and  C_21
REMARK    8  A    between atoms: C_20  and  C_22
REMARK    9  A    between atoms: C_20  and  C_23
REMARK                            x       y       z     vdW  Elec       q    Type
REMARK                         _______ _______ _______ _____ _____    ______ ____
ROOT
ATOM      1  N   UNL     1       1.140  10.532  19.616  0.00  0.00    +0.000 N 
ATOM      2  C   UNL     1       1.623   9.632  18.675  0.00  0.00    +0.000 C 
ATOM      3  O   UNL     1       1.888   9.886  17.505  0.00  0.00    +0.000 OA
ATOM      4  H   UNL     1       1.035  10.219  20.573  0.00  0.00    +0.000 HD
ENDROOT
BRANCH   1  11
ATOM      5  C   UNL     1       0.698  18.127  18.042  0.00  0.00    +0.000 C 
ATOM      6  C   UNL     1       1.044  16.803  18.711  0.00  0.00    +0.000 C 
ATOM      7  O   UNL     1      -0.006  15.877  18.438  0.00  0.00    +0.000 OA
ATOM      8  C   UNL     1       0.318  14.591  18.784  0.00  0.00    +0.000 A 
ATOM      9  C   UNL     1      -0.735  13.696  18.911  0.00  0.00    +0.000 A 
ATOM     10  C   UNL     1      -0.474  12.355  19.197  0.00  0.00    +0.000 A 
ATOM     11  C   UNL     1       0.836  11.891  19.363  0.00  0.00    +0.000 A 
ATOM     12  C   UNL     1       1.895  12.803  19.259  0.00  0.00    +0.000 A 
ATOM     13  C   UNL     1       1.633  14.139  18.934  0.00  0.00    +0.000 A 
ATOM     14  N   UNL     1       2.691  15.012  18.657  0.00  0.00    +0.000 N 
ATOM     15  C   UNL     1       2.452  16.324  18.324  0.00  0.00    +0.000 C 
ATOM     16  O   UNL     1       3.338  17.037  17.861  0.00  0.00    +0.000 OA
ATOM     17  H   UNL     1       3.634  14.668  18.532  0.00  0.00    +0.000 HD
ENDBRANCH   1  11
BRANCH   2  18
ATOM     18  C   UNL     1       1.854   8.234  19.124  0.00  0.00    +0.000 A 
ATOM     19  C   UNL     1       1.497   7.787  20.399  0.00  0.00    +0.000 A 
ATOM     20  C   UNL     1       1.766   6.472  20.759  0.00  0.00    +0.000 A 
ATOM     21  C   UNL     1       2.385   5.610  19.851  0.00  0.00    +0.000 A 
ATOM     22  C   UNL     1       2.742   6.034  18.566  0.00  0.00    +0.000 A 
ATOM     23  C   UNL     1       2.495   7.362  18.219  0.00  0.00    +0.000 A 
BRANCH  22  24
ATOM     24  N   UNL     1       3.351   5.175  17.623  0.00  0.00    +0.000 N 
ATOM     25  C   UNL     1       4.624   4.673  17.743  0.00  0.00    +0.000 C 
ATOM     26  O   UNL     1       5.335   4.835  18.724  0.00  0.00    +0.000 OA
ATOM     27  H   UNL     1       2.802   4.810  16.854  0.00  0.00    +0.000 HD
BRANCH  25  28
ATOM     28  O   UNL     1       4.993   3.943  16.652  0.00  0.00    +0.000 OA
BRANCH  28  29
ATOM     29  C   UNL     1       5.833   4.621  15.667  0.00  0.00    +0.000 C 
ATOM     30  C   UNL     1       5.384   6.081  15.483  0.00  0.00    +0.000 C 
ATOM     31  C   UNL     1       7.269   4.643  16.214  0.00  0.00    +0.000 C 
ATOM     32  C   UNL     1       5.867   3.838  14.341  0.00  0.00    +0.000 C 
ENDBRANCH  28  29
ENDBRANCH  25  28
ENDBRANCH  22  24
ENDBRANCH   2  18
TORSDOF 5
ENDMDL
MODEL 7
REMARK VINA RESULT:      -8.5      1.104      1.225
REMARK  Name = 
REMARK  9 active torsions:
REMARK  status: ('A' for Active; 'I' for Inactive)
REMARK    1  A    between atoms: C_1  and  C_2
REMARK    2  A    between atoms: C_7  and  N_8
REMARK    3  A    between atoms: C_9  and  C_11
REMARK    4  A    between atoms: C_15  and  N_16
REMARK    5  A    between atoms: C_17  and  O_19
REMARK    6  A    between atoms: O_19  and  C_20
REMARK    7  A    between atoms: C_20  and  C_21
REMARK    8  A    between atoms: C_20  and  C_22
REMARK    9  A    between atoms: C_20  and  C_23
REMARK                            x       y       z     vdW  Elec       q    Type
REMARK                         _______ _______ _______ _____ _____    ______ ____
ROOT
ATOM      1  N   UNL     1       7.634   8.402  17.321  0.00  0.00    +0.000 N 
ATOM      2  C   UNL     1       7.590   7.095  17.787  0.00  0.00    +0.000 C 
ATOM      3  O   UNL     1       8.085   6.686  18.833  0.00  0.00    +0.000 OA
ATOM      4  H   UNL     1       7.118   8.632  16.480  0.00  0.00    +0.000 HD
ENDROOT
BRANCH   1  11
ATOM      5  C   UNL     1      10.689  15.018  20.014  0.00  0.00    +0.000 C 
ATOM      6  C   UNL     1      10.330  13.854  19.099  0.00  0.00    +0.000 C 
ATOM      7  O   UNL     1      10.091  12.706  19.911  0.00  0.00    +0.000 OA
ATOM      8  C   UNL     1       9.525  11.671  19.214  0.00  0.00    +0.000 A 
ATOM      9  C   UNL     1       9.595  10.414  19.797  0.00  0.00    +0.000 A 
ATOM     10  C   UNL     1       8.983   9.325  19.173  0.00  0.00    +0.000 A 
ATOM     11  C   UNL     1       8.299   9.475  17.962  0.00  0.00    +0.000 A 
ATOM     12  C   UNL     1       8.251  10.742  17.363  0.00  0.00    +0.000 A 
ATOM     13  C   UNL     1       8.832  11.839  18.010  0.00  0.00    +0.000 A 
ATOM     14  N   UNL     1       8.637  13.130  17.508  0.00  0.00    +0.000 N 
ATOM     15  C   UNL     1       9.190  14.220  18.136  0.00  0.00    +0.000 C 
ATOM     16  O   UNL     1       8.849  15.364  17.849  0.00  0.00    +0.000 OA
ATOM     17  H   UNL     1       7.960  13.311  16.778  0.00  0.00    +0.000 HD
ENDBRANCH   1  11
BRANCH   2  18
ATOM     18  C   UNL     1       6.867   6.097  16.956  0.00  0.00    +0.000 A 
ATOM     19  C   UNL     1       7.355   5.655  15.723  0.00  0.00    +0.000 A 
ATOM     20  C   UNL     1       6.612   4.739  14.987  0.00  0.00    +0.000 A 
ATOM     21  C   UNL     1       5.392   4.268  15.480  0.00  0.00    +0.000 A 
ATOM     22  C   UNL     1       4.890   4.691  16.716  0.00  0.00    +0.000 A 
ATOM     23  C   UNL     1       5.625   5.631  17.438  0.00  0.00    +0.000 A 
BRANCH  22  24
ATOM     24  N   UNL     1       3.669   4.214  17.245  0.00  0.00    +0.000 N 
ATOM     25  C   UNL     1       2.719   5.011  17.835  0.00  0.00    +0.000 C 
ATOM     26  O   UNL     1       2.779   6.231  17.879  0.00  0.00    +0.000 OA
ATOM     27  H   UNL     1       3.409   3.246  17.104  0.00  0.00    +0.000 HD
BRANCH  25  28
ATOM     28  O   UNL     1       1.679   4.285  18.336  0.00  0.00    +0.000 OA
BRANCH  28  29
ATOM     29  C   UNL     1       1.951   3.504  19.542  0.00  0.00    +0.000 C 
ATOM     30  C   UNL     1       2.498   2.113  19.178  0.00  0.00    +0.000 C 
ATOM     31  C   UNL     1       3.043   4.238  20.336  0.00  0.00    +0.000 C 
ATOM     32  C   UNL     1       0.706   3.437  20.445  0.00  0.00    +0.000 C 
ENDBRANCH  28  29
ENDBRANCH  25  28
ENDBRANCH  22  24
ENDBRANCH   2  18
TORSDOF 5
ENDMDL
MODEL 8
REMARK VINA RESULT:      -8.5      4.950      6.758
REMARK  Name = 
REMARK  9 active torsions:
REMARK  status: ('A' for Active; 'I' for Inactive)
REMARK    1  A    between atoms: C_1  and  C_2
REMARK    2  A    between atoms: C_7  and  N_8
REMARK    3  A    between atoms: C_9  and  C_11
REMARK    4  A    between atoms: C_15  and  N_16
REMARK    5  A    between atoms: C_17  and  O_19
REMARK    6  A    between atoms: O_19  and  C_20
REMARK    7  A    between atoms: C_20  and  C_21
REMARK    8  A    between atoms: C_20  and  C_22
REMARK    9  A    between atoms: C_20  and  C_23
REMARK                            x       y       z     vdW  Elec       q    Type
REMARK                         _______ _______ _______ _____ _____    ______ ____
ROOT
ATOM      1  N   UNL     1       1.400   9.018  19.036  0.00  0.00    +0.000 N 
ATOM      2  C   UNL     1       1.616   8.279  20.191  0.00  0.00    +0.000 C 
ATOM      3  O   UNL     1       1.599   8.714  21.339  0.00  0.00    +0.000 OA
ATOM      4  H   UNL     1       1.361   8.529  18.150  0.00  0.00    +0.000 HD
ENDROOT
BRANCH   1  11
ATOM      5  C   UNL     1       1.228  16.747  18.270  0.00  0.00    +0.000 C 
ATOM      6  C   UNL     1       1.628  15.342  18.701  0.00  0.00    +0.000 C 
ATOM      7  O   UNL     1       0.463  14.519  18.676  0.00  0.00    +0.000 OA
ATOM      8  C   UNL     1       0.752  13.186  18.808  0.00  0.00    +0.000 A 
ATOM      9  C   UNL     1      -0.298  12.354  19.167  0.00  0.00    +0.000 A 
ATOM     10  C   UNL     1      -0.091  10.976  19.256  0.00  0.00    +0.000 A 
ATOM     11  C   UNL     1       1.162  10.413  18.993  0.00  0.00    +0.000 A 
ATOM     12  C   UNL     1       2.227  11.260  18.655  0.00  0.00    +0.000 A 
ATOM     13  C   UNL     1       2.008  12.636  18.528  0.00  0.00    +0.000 A 
ATOM     14  N   UNL     1       3.018  13.462  18.022  0.00  0.00    +0.000 N 
ATOM     15  C   UNL     1       2.815  14.815  17.880  0.00  0.00    +0.000 C 
ATOM     16  O   UNL     1       3.593  15.512  17.236  0.00  0.00    +0.000 OA
ATOM     17  H   UNL     1       3.849  13.072  17.599  0.00  0.00    +0.000 HD
ENDBRANCH   1  11
BRANCH   2  18
ATOM     18  C   UNL     1       1.880   6.825  20.032  0.00  0.00    +0.000 A 
ATOM     19  C   UNL     1       1.319   5.864  20.877  0.00  0.00    +0.000 A 
ATOM     20  C   UNL     1       1.631   4.523  20.684  0.00  0.00    +0.000 A 
ATOM     21  C   UNL     1       2.496   4.146  19.653  0.00  0.00    +0.000 A 
ATOM     22  C   UNL     1       3.061   5.091  18.790  0.00  0.00    +0.000 A 
ATOM     23  C   UNL     1       2.768   6.438  19.005  0.00  0.00    +0.000 A 
BRANCH  22  24
ATOM     24  N   UNL     1       3.923   4.733  17.728  0.00  0.00    +0.000 N 
ATOM     25  C   UNL     1       5.230   4.346  17.891  0.00  0.00    +0.000 C 
ATOM     26  O   UNL     1       5.765   4.174  18.977  0.00  0.00    +0.000 OA
ATOM     27  H   UNL     1       3.550   4.650  16.791  0.00  0.00    +0.000 HD
BRANCH  25  28
ATOM     28  O   UNL     1       5.857   4.140  16.697  0.00  0.00    +0.000 OA
BRANCH  28  29
ATOM     29  C   UNL     1       6.394   5.325  16.031  0.00  0.00    +0.000 C 
ATOM     30  C   UNL     1       7.181   4.930  14.769  0.00  0.00    +0.000 C 
ATOM     31  C   UNL     1       5.204   6.187  15.583  0.00  0.00    +0.000 C 
ATOM     32  C   UNL     1       7.225   6.176  17.008  0.00  0.00    +0.000 C 
ENDBRANCH  28  29
ENDBRANCH  25  28
ENDBRANCH  22  24
ENDBRANCH   2  18
TORSDOF 5
ENDMDL
MODEL 9
REMARK VINA RESULT:      -8.4      5.596      7.616
REMARK  Name = 
REMARK  9 active torsions:
REMARK  status: ('A' for Active; 'I' for Inactive)
REMARK    1  A    between atoms: C_1  and  C_2
REMARK    2  A    between atoms: C_7  and  N_8
REMARK    3  A    between atoms: C_9  and  C_11
REMARK    4  A    between atoms: C_15  and  N_16
REMARK    5  A    between atoms: C_17  and  O_19
REMARK    6  A    between atoms: O_19  and  C_20
REMARK    7  A    between atoms: C_20  and  C_21
REMARK    8  A    between atoms: C_20  and  C_22
REMARK    9  A    between atoms: C_20  and  C_23
REMARK                            x       y       z     vdW  Elec       q    Type
REMARK                         _______ _______ _______ _____ _____    ______ ____
ROOT
ATOM      1  N   UNL     1       2.090   7.139  20.653  0.00  0.00    +0.000 N 
ATOM      2  C   UNL     1       1.455   5.904  20.653  0.00  0.00    +0.000 C 
ATOM      3  O   UNL     1       0.247   5.715  20.757  0.00  0.00    +0.000 OA
ATOM      4  H   UNL     1       3.087   7.168  20.480  0.00  0.00    +0.000 HD
ENDROOT
BRANCH   1  11
ATOM      5  C   UNL     1      -1.486  14.026  20.290  0.00  0.00    +0.000 C 
ATOM      6  C   UNL     1      -0.447  12.923  20.139  0.00  0.00    +0.000 C 
ATOM      7  O   UNL     1      -0.618  11.999  21.213  0.00  0.00    +0.000 OA
ATOM      8  C   UNL     1       0.100  10.845  21.039  0.00  0.00    +0.000 A 
ATOM      9  C   UNL     1       0.301  10.060  22.166  0.00  0.00    +0.000 A 
ATOM     10  C   UNL     1       0.967   8.839  22.050  0.00  0.00    +0.000 A 
ATOM     11  C   UNL     1       1.444   8.388  20.815  0.00  0.00    +0.000 A 
ATOM     12  C   UNL     1       1.261   9.195  19.683  0.00  0.00    +0.000 A 
ATOM     13  C   UNL     1       0.559  10.400  19.794  0.00  0.00    +0.000 A 
ATOM     14  N   UNL     1       0.222  11.122  18.644  0.00  0.00    +0.000 N 
ATOM     15  C   UNL     1      -0.479  12.302  18.734  0.00  0.00    +0.000 C 
ATOM     16  O   UNL     1      -0.976  12.827  17.742  0.00  0.00    +0.000 OA
ATOM     17  H   UNL     1       0.335  10.721  17.723  0.00  0.00    +0.000 HD
ENDBRANCH   1  11
BRANCH   2  18
ATOM     18  C   UNL     1       2.310   4.697  20.501  0.00  0.00    +0.000 A 
ATOM     19  C   UNL     1       2.218   3.600  21.363  0.00  0.00    +0.000 A 
ATOM     20  C   UNL     1       3.067   2.516  21.176  0.00  0.00    +0.000 A 
ATOM     21  C   UNL     1       3.999   2.527  20.135  0.00  0.00    +0.000 A 
ATOM     22  C   UNL     1       4.101   3.611  19.256  0.00  0.00    +0.000 A 
ATOM     23  C   UNL     1       3.267   4.708  19.464  0.00  0.00    +0.000 A 
BRANCH  22  24
ATOM     24  N   UNL     1       5.022   3.637  18.183  0.00  0.00    +0.000 N 
ATOM     25  C   UNL     1       4.664   3.602  16.857  0.00  0.00    +0.000 C 
ATOM     26  O   UNL     1       3.511   3.644  16.457  0.00  0.00    +0.000 OA
ATOM     27  H   UNL     1       6.004   3.792  18.373  0.00  0.00    +0.000 HD
BRANCH  25  28
ATOM     28  O   UNL     1       5.751   3.550  16.034  0.00  0.00    +0.000 OA
BRANCH  28  29
ATOM     29  C   UNL     1       6.379   4.828  15.703  0.00  0.00    +0.000 C 
ATOM     30  C   UNL     1       7.471   5.179  16.729  0.00  0.00    +0.000 C 
ATOM     31  C   UNL     1       7.062   4.671  14.335  0.00  0.00    +0.000 C 
ATOM     32  C   UNL     1       5.322   5.938  15.556  0.00  0.00    +0.000 C 
ENDBRANCH  28  29
ENDBRANCH  25  28
ENDBRANCH  22  24
ENDBRANCH   2  18
TORSDOF 5
ENDMDL
