MODEL 1
REMARK VINA RESULT:      -7.6      0.000      0.000
REMARK  Name = 
REMARK  5 active torsions:
REMARK  status: ('A' for Active; 'I' for Inactive)
REMARK    1  A    between atoms: C_2  and  C_25
REMARK    2  A    between atoms: N_3  and  C_4
REMARK    3  A    between atoms: C_4  and  C_5
REMARK    4  A    between atoms: C_4  and  C_19
REMARK    5  A    between atoms: C_5  and  C_6
REMARK                            x       y       z     vdW  Elec       q    Type
REMARK                         _______ _______ _______ _____ _____    ______ ____
ROOT
ATOM      1  C   UNL     1      -0.384  11.001  19.237  0.00  0.00    +0.000 C 
ENDROOT
BRANCH   1   2
ATOM      2  C   UNL     1      -1.615  10.877  18.338  0.00  0.00    +0.000 A 
ATOM      3  C   UNL     1      -2.760  11.646  18.601  0.00  0.00    +0.000 A 
ATOM      4  C   UNL     1      -3.896  11.532  17.794  0.00  0.00    +0.000 A 
ATOM      5  C   UNL     1      -3.904  10.650  16.716  0.00  0.00    +0.000 A 
ATOM      6  C   UNL     1      -2.776   9.881  16.441  0.00  0.00    +0.000 A 
ATOM      7  C   UNL     1      -1.639   9.994  17.245  0.00  0.00    +0.000 A 
ENDBRANCH   1   2
BRANCH   1  10
ATOM      8  O   UNL     1       0.553   8.906  20.869  0.00  0.00    +0.000 OA
ATOM      9  C   UNL     1       1.003   9.021  19.734  0.00  0.00    +0.000 C 
ATOM     10  N   UNL     1       0.608  10.003  18.850  0.00  0.00    +0.000 N 
ATOM     11  H   UNL     1       0.860   9.914  17.877  0.00  0.00    +0.000 HD
BRANCH   9  12
ATOM     12  C   UNL     1       2.010   8.044  19.241  0.00  0.00    +0.000 A 
ATOM     13  C   UNL     1       2.631   8.305  18.014  0.00  0.00    +0.000 A 
ATOM     14  C   UNL     1       3.535   7.388  17.473  0.00  0.00    +0.000 A 
ATOM     15  C   UNL     1       3.814   6.204  18.153  0.00  0.00    +0.000 A 
ATOM     16  C   UNL     1       3.196   5.938  19.375  0.00  0.00    +0.000 A 
ATOM     17  C   UNL     1       2.294   6.854  19.924  0.00  0.00    +0.000 A 
ENDBRANCH   9  12
ENDBRANCH   1  10
BRANCH   1  18
ATOM     18  C   UNL     1       0.167  12.435  19.171  0.00  0.00    +0.000 C 
BRANCH  18  19
ATOM     19  C   UNL     1       0.981  12.834  20.392  0.00  0.00    +0.000 C 
ATOM     20  O   UNL     1       1.081  12.109  21.381  0.00  0.00    +0.000 OA
ATOM     21  N   UNL     1       1.563  14.100  20.362  0.00  0.00    +0.000 N 
ATOM     22  C   UNL     1       2.123  14.634  21.603  0.00  0.00    +0.000 C 
ATOM     23  C   UNL     1       3.629  14.396  21.649  0.00  0.00    +0.000 C 
ATOM     24  C   UNL     1       4.281  14.803  20.346  0.00  0.00    +0.000 A 
ATOM     25  N   UNL     1       5.640  15.006  20.407  0.00  0.00    +0.000 NA
ATOM     26  C   UNL     1       6.225  15.371  19.320  0.00  0.00    +0.000 A 
ATOM     27  N   UNL     1       5.582  15.566  18.134  0.00  0.00    +0.000 N 
ATOM     28  C   UNL     1       4.237  15.387  18.007  0.00  0.00    +0.000 A 
ATOM     29  O   UNL     1       3.648  15.560  16.946  0.00  0.00    +0.000 OA
ATOM     30  C   UNL     1       3.534  14.971  19.238  0.00  0.00    +0.000 A 
ATOM     31  C   UNL     1       2.051  14.751  19.142  0.00  0.00    +0.000 C 
ATOM     32  H   UNL     1       6.086  15.853  17.309  0.00  0.00    +0.000 HD
ENDBRANCH  18  19
ENDBRANCH   1  18
TORSDOF 5
ENDMDL
MODEL 2
REMARK VINA RESULT:      -7.5      3.111      7.168
REMARK  Name = 
REMARK  5 active torsions:
REMARK  status: ('A' for Active; 'I' for Inactive)
REMARK    1  A    between atoms: C_2  and  C_25
REMARK    2  A    between atoms: N_3  and  C_4
REMARK    3  A    between atoms: C_4  and  C_5
REMARK    4  A    between atoms: C_4  and  C_19
REMARK    5  A    between atoms: C_5  and  C_6
REMARK                            x       y       z     vdW  Elec       q    Type
REMARK                         _______ _______ _______ _____ _____    ______ ____
ROOT
ATOM      1  C   UNL     1       0.417  10.722  18.747  0.00  0.00    +0.000 C 
ENDROOT
BRANCH   1   2
ATOM      2  C   UNL     1       1.312  11.897  19.139  0.00  0.00    +0.000 A 
ATOM      3  C   UNL     1       2.115  12.524  18.173  0.00  0.00    +0.000 A 
ATOM      4  C   UNL     1       2.948  13.592  18.521  0.00  0.00    +0.000 A 
ATOM      5  C   UNL     1       2.991  14.046  19.838  0.00  0.00    +0.000 A 
ATOM      6  C   UNL     1       2.200  13.436  20.807  0.00  0.00    +0.000 A 
ATOM      7  C   UNL     1       1.365  12.370  20.461  0.00  0.00    +0.000 A 
ENDBRANCH   1   2
BRANCH   1  10
ATOM      8  O   UNL     1       2.103   9.194  17.088  0.00  0.00    +0.000 OA
ATOM      9  C   UNL     1       1.867   8.794  18.224  0.00  0.00    +0.000 C 
ATOM     10  N   UNL     1       1.063   9.467  19.120  0.00  0.00    +0.000 N 
ATOM     11  H   UNL     1       1.080   9.194  20.091  0.00  0.00    +0.000 HD
BRANCH   9  12
ATOM     12  C   UNL     1       2.490   7.532  18.702  0.00  0.00    +0.000 A 
ATOM     13  C   UNL     1       3.473   6.940  17.900  0.00  0.00    +0.000 A 
ATOM     14  C   UNL     1       4.043   5.720  18.269  0.00  0.00    +0.000 A 
ATOM     15  C   UNL     1       3.626   5.084  19.437  0.00  0.00    +0.000 A 
ATOM     16  C   UNL     1       2.645   5.668  20.240  0.00  0.00    +0.000 A 
ATOM     17  C   UNL     1       2.075   6.892  19.877  0.00  0.00    +0.000 A 
ENDBRANCH   9  12
ENDBRANCH   1  10
BRANCH   1  18
ATOM     18  C   UNL     1      -0.969  10.884  19.394  0.00  0.00    +0.000 C 
BRANCH  18  19
ATOM     19  C   UNL     1      -2.123  10.704  18.420  0.00  0.00    +0.000 C 
ATOM     20  O   UNL     1      -2.153   9.790  17.597  0.00  0.00    +0.000 OA
ATOM     21  N   UNL     1      -3.126  11.671  18.463  0.00  0.00    +0.000 N 
ATOM     22  C   UNL     1      -4.109  11.696  17.381  0.00  0.00    +0.000 C 
ATOM     23  C   UNL     1      -5.377  10.957  17.800  0.00  0.00    +0.000 C 
ATOM     24  C   UNL     1      -5.828  11.395  19.175  0.00  0.00    +0.000 A 
ATOM     25  N   UNL     1      -7.137  11.106  19.484  0.00  0.00    +0.000 NA
ATOM     26  C   UNL     1      -7.559  11.480  20.641  0.00  0.00    +0.000 A 
ATOM     27  N   UNL     1      -6.796  12.137  21.559  0.00  0.00    +0.000 N 
ATOM     28  C   UNL     1      -5.494  12.458  21.314  0.00  0.00    +0.000 A 
ATOM     29  O   UNL     1      -4.797  13.049  22.131  0.00  0.00    +0.000 OA
ATOM     30  C   UNL     1      -4.978  12.046  19.992  0.00  0.00    +0.000 A 
ATOM     31  C   UNL     1      -3.543  12.369  19.684  0.00  0.00    +0.000 C 
ATOM     32  H   UNL     1      -7.174  12.410  22.454  0.00  0.00    +0.000 HD
ENDBRANCH  18  19
ENDBRANCH   1  18
TORSDOF 5
ENDMDL
MODEL 3
REMARK VINA RESULT:      -7.5      3.080      6.904
REMARK  Name = 
REMARK  5 active torsions:
REMARK  status: ('A' for Active; 'I' for Inactive)
REMARK    1  A    between atoms: C_2  and  C_25
REMARK    2  A    between atoms: N_3  and  C_4
REMARK    3  A    between atoms: C_4  and  C_5
REMARK    4  A    between atoms: C_4  and  C_19
REMARK    5  A    between atoms: C_5  and  C_6
REMARK                            x       y       z     vdW  Elec       q    Type
REMARK                         _______ _______ _______ _____ _____    ______ ____
ROOT
ATOM      1  C   UNL     1       0.136  11.787  18.493  0.00  0.00    +0.000 C 
ENDROOT
BRANCH   1   2
ATOM      2  C   UNL     1       0.741  10.443  18.899  0.00  0.00    +0.000 A 
ATOM      3  C   UNL     1       0.566   9.958  20.205  0.00  0.00    +0.000 A 
ATOM      4  C   UNL     1       1.125   8.737  20.593  0.00  0.00    +0.000 A 
ATOM      5  C   UNL     1       1.866   7.985  19.684  0.00  0.00    +0.000 A 
ATOM      6  C   UNL     1       2.047   8.452  18.385  0.00  0.00    +0.000 A 
ATOM      7  C   UNL     1       1.488   9.672  17.994  0.00  0.00    +0.000 A 
ENDBRANCH   1   2
BRANCH   1  10
ATOM      8  O   UNL     1      -2.042  11.284  16.779  0.00  0.00    +0.000 OA
ATOM      9  C   UNL     1      -2.263  11.571  17.951  0.00  0.00    +0.000 C 
ATOM     10  N   UNL     1      -1.272  11.828  18.876  0.00  0.00    +0.000 N 
ATOM     11  H   UNL     1      -1.514  11.850  19.855  0.00  0.00    +0.000 HD
BRANCH   9  12
ATOM     12  C   UNL     1      -3.665  11.624  18.441  0.00  0.00    +0.000 A 
ATOM     13  C   UNL     1      -4.660  11.039  17.649  0.00  0.00    +0.000 A 
ATOM     14  C   UNL     1      -6.001  11.119  18.029  0.00  0.00    +0.000 A 
ATOM     15  C   UNL     1      -6.353  11.790  19.199  0.00  0.00    +0.000 A 
ATOM     16  C   UNL     1      -5.366  12.377  19.992  0.00  0.00    +0.000 A 
ATOM     17  C   UNL     1      -4.021  12.296  19.618  0.00  0.00    +0.000 A 
ENDBRANCH   9  12
ENDBRANCH   1  10
BRANCH   1  18
ATOM     18  C   UNL     1       0.948  12.935  19.117  0.00  0.00    +0.000 C 
BRANCH  18  19
ATOM     19  C   UNL     1       0.098  14.115  19.560  0.00  0.00    +0.000 C 
ATOM     20  O   UNL     1      -0.334  14.950  18.765  0.00  0.00    +0.000 OA
ATOM     21  N   UNL     1      -0.119  14.242  20.930  0.00  0.00    +0.000 N 
ATOM     22  C   UNL     1      -0.695  15.491  21.427  0.00  0.00    +0.000 C 
ATOM     23  C   UNL     1      -2.201  15.340  21.621  0.00  0.00    +0.000 C 
ATOM     24  C   UNL     1      -2.523  14.066  22.370  0.00  0.00    +0.000 A 
ATOM     25  N   UNL     1      -3.775  14.020  22.940  0.00  0.00    +0.000 NA
ATOM     26  C   UNL     1      -4.076  12.956  23.599  0.00  0.00    +0.000 A 
ATOM     27  N   UNL     1      -3.238  11.894  23.764  0.00  0.00    +0.000 N 
ATOM     28  C   UNL     1      -1.984  11.878  23.230  0.00  0.00    +0.000 A 
ATOM     29  O   UNL     1      -1.221  10.929  23.372  0.00  0.00    +0.000 OA
ATOM     30  C   UNL     1      -1.604  13.086  22.469  0.00  0.00    +0.000 A 
ATOM     31  C   UNL     1      -0.234  13.107  21.853  0.00  0.00    +0.000 C 
ATOM     32  H   UNL     1      -3.522  11.082  24.291  0.00  0.00    +0.000 HD
ENDBRANCH  18  19
ENDBRANCH   1  18
TORSDOF 5
ENDMDL
MODEL 4
REMARK VINA RESULT:      -7.5      3.048      6.946
REMARK  Name = 
REMARK  5 active torsions:
REMARK  status: ('A' for Active; 'I' for Inactive)
REMARK    1  A    between atoms: C_2  and  C_25
REMARK    2  A    between atoms: N_3  and  C_4
REMARK    3  A    between atoms: C_4  and  C_5
REMARK    4  A    between atoms: C_4  and  C_19
REMARK    5  A    between atoms: C_5  and  C_6
REMARK                            x       y       z     vdW  Elec       q    Type
REMARK                         _______ _______ _______ _____ _____    ______ ____
ROOT
ATOM      1  C   UNL     1       0.148  11.395  18.509  0.00  0.00    +0.000 C 
ENDROOT
BRANCH   1   2
ATOM      2  C   UNL     1       0.757  10.102  19.053  0.00  0.00    +0.000 A 
ATOM      3  C   UNL     1       1.611   9.332  18.249  0.00  0.00    +0.000 A 
ATOM      4  C   UNL     1       2.164   8.142  18.730  0.00  0.00    +0.000 A 
ATOM      5  C   UNL     1       1.871   7.705  20.020  0.00  0.00    +0.000 A 
ATOM      6  C   UNL     1       1.026   8.458  20.831  0.00  0.00    +0.000 A 
ATOM      7  C   UNL     1       0.474   9.649  20.353  0.00  0.00    +0.000 A 
ENDBRANCH   1   2
BRANCH   1  10
ATOM      8  O   UNL     1      -2.001  11.405  16.688  0.00  0.00    +0.000 OA
ATOM      9  C   UNL     1      -2.241  11.466  17.890  0.00  0.00    +0.000 C 
ATOM     10  N   UNL     1      -1.266  11.459  18.866  0.00  0.00    +0.000 N 
ATOM     11  H   UNL     1      -1.537  11.303  19.824  0.00  0.00    +0.000 HD
BRANCH   9  12
ATOM     12  C   UNL     1      -3.651  11.521  18.355  0.00  0.00    +0.000 A 
ATOM     13  C   UNL     1      -3.948  12.335  19.455  0.00  0.00    +0.000 A 
ATOM     14  C   UNL     1      -5.243  12.372  19.975  0.00  0.00    +0.000 A 
ATOM     15  C   UNL     1      -6.245  11.590  19.402  0.00  0.00    +0.000 A 
ATOM     16  C   UNL     1      -5.954  10.775  18.307  0.00  0.00    +0.000 A 
ATOM     17  C   UNL     1      -4.660  10.738  17.779  0.00  0.00    +0.000 A 
ENDBRANCH   9  12
ENDBRANCH   1  10
BRANCH   1  18
ATOM     18  C   UNL     1       0.942  12.605  19.029  0.00  0.00    +0.000 C 
BRANCH  18  19
ATOM     19  C   UNL     1       0.072  13.802  19.379  0.00  0.00    +0.000 C 
ATOM     20  O   UNL     1      -0.381  14.559  18.521  0.00  0.00    +0.000 OA
ATOM     21  N   UNL     1      -0.137  14.039  20.736  0.00  0.00    +0.000 N 
ATOM     22  C   UNL     1      -0.733  15.314  21.131  0.00  0.00    +0.000 C 
ATOM     23  C   UNL     1      -2.235  15.151  21.351  0.00  0.00    +0.000 C 
ATOM     24  C   UNL     1      -2.527  13.939  22.207  0.00  0.00    +0.000 A 
ATOM     25  N   UNL     1      -3.773  13.917  22.789  0.00  0.00    +0.000 NA
ATOM     26  C   UNL     1      -4.049  12.907  23.538  0.00  0.00    +0.000 A 
ATOM     27  N   UNL     1      -3.190  11.879  23.783  0.00  0.00    +0.000 N 
ATOM     28  C   UNL     1      -1.939  11.842  23.242  0.00  0.00    +0.000 A 
ATOM     29  O   UNL     1      -1.157  10.922  23.455  0.00  0.00    +0.000 OA
ATOM     30  C   UNL     1      -1.589  12.988  22.379  0.00  0.00    +0.000 A 
ATOM     31  C   UNL     1      -0.223  12.984  21.751  0.00  0.00    +0.000 C 
ATOM     32  H   UNL     1      -3.453  11.108  24.379  0.00  0.00    +0.000 HD
ENDBRANCH  18  19
ENDBRANCH   1  18
TORSDOF 5
ENDMDL
MODEL 5
REMARK VINA RESULT:      -7.5      3.901      6.492
REMARK  Name = 
REMARK  5 active torsions:
REMARK  status: ('A' for Active; 'I' for Inactive)
REMARK    1  A    between atoms: C_2  and  C_25
REMARK    2  A    between atoms: N_3  and  C_4
REMARK    3  A    between atoms: C_4  and  C_5
REMARK    4  A    between atoms: C_4  and  C_19
REMARK    5  A    between atoms: C_5  and  C_6
REMARK                            x       y       z     vdW  Elec       q    Type
REMARK                         _______ _______ _______ _____ _____    ______ ____
ROOT
ATOM      1  C   UNL     1       2.901   6.449  19.578  0.00  0.00    +0.000 C 
ENDROOT
BRANCH   1   2
ATOM      2  C   UNL     1       2.242   5.150  20.040  0.00  0.00    +0.000 A 
ATOM      3  C   UNL     1       2.515   4.637  21.318  0.00  0.00    +0.000 A 
ATOM      4  C   UNL     1       1.928   3.443  21.747  0.00  0.00    +0.000 A 
ATOM      5  C   UNL     1       1.064   2.744  20.907  0.00  0.00    +0.000 A 
ATOM      6  C   UNL     1       0.782   3.240  19.637  0.00  0.00    +0.000 A 
ATOM      7  C   UNL     1       1.365   4.435  19.206  0.00  0.00    +0.000 A 
ENDBRANCH   1   2
BRANCH   1  10
ATOM      8  O   UNL     1       5.427   5.218  19.388  0.00  0.00    +0.000 OA
ATOM      9  C   UNL     1       4.877   5.605  18.362  0.00  0.00    +0.000 C 
ATOM     10  N   UNL     1       3.639   6.213  18.340  0.00  0.00    +0.000 N 
ATOM     11  H   UNL     1       3.161   6.314  17.458  0.00  0.00    +0.000 HD
BRANCH   9  12
ATOM     12  C   UNL     1       5.542   5.397  17.049  0.00  0.00    +0.000 A 
ATOM     13  C   UNL     1       4.844   4.686  16.065  0.00  0.00    +0.000 A 
ATOM     14  C   UNL     1       5.447   4.405  14.838  0.00  0.00    +0.000 A 
ATOM     15  C   UNL     1       6.753   4.826  14.593  0.00  0.00    +0.000 A 
ATOM     16  C   UNL     1       7.455   5.533  15.570  0.00  0.00    +0.000 A 
ATOM     17  C   UNL     1       6.853   5.822  16.800  0.00  0.00    +0.000 A 
ENDBRANCH   9  12
ENDBRANCH   1  10
BRANCH   1  18
ATOM     18  C   UNL     1       1.836   7.549  19.426  0.00  0.00    +0.000 C 
BRANCH  18  19
ATOM     19  C   UNL     1       1.416   8.179  20.745  0.00  0.00    +0.000 C 
ATOM     20  O   UNL     1       2.132   8.152  21.744  0.00  0.00    +0.000 OA
ATOM     21  N   UNL     1       0.141   8.739  20.784  0.00  0.00    +0.000 N 
ATOM     22  C   UNL     1      -0.411   9.113  22.085  0.00  0.00    +0.000 C 
ATOM     23  C   UNL     1      -0.199  10.603  22.342  0.00  0.00    +0.000 C 
ATOM     24  C   UNL     1      -0.609  11.422  21.139  0.00  0.00    +0.000 A 
ATOM     25  N   UNL     1      -0.835  12.756  21.386  0.00  0.00    +0.000 NA
ATOM     26  C   UNL     1      -1.203  13.480  20.387  0.00  0.00    +0.000 A 
ATOM     27  N   UNL     1      -1.379  13.005  19.122  0.00  0.00    +0.000 N 
ATOM     28  C   UNL     1      -1.177  11.693  18.811  0.00  0.00    +0.000 A 
ATOM     29  O   UNL     1      -1.332  11.254  17.677  0.00  0.00    +0.000 OA
ATOM     30  C   UNL     1      -0.757  10.834  19.937  0.00  0.00    +0.000 A 
ATOM     31  C   UNL     1      -0.511   9.381  19.637  0.00  0.00    +0.000 C 
ATOM     32  H   UNL     1      -1.669  13.614  18.371  0.00  0.00    +0.000 HD
ENDBRANCH  18  19
ENDBRANCH   1  18
TORSDOF 5
ENDMDL
MODEL 6
REMARK VINA RESULT:      -7.5      4.660      8.442
REMARK  Name = 
REMARK  5 active torsions:
REMARK  status: ('A' for Active; 'I' for Inactive)
REMARK    1  A    between atoms: C_2  and  C_25
REMARK    2  A    between atoms: N_3  and  C_4
REMARK    3  A    between atoms: C_4  and  C_5
REMARK    4  A    between atoms: C_4  and  C_19
REMARK    5  A    between atoms: C_5  and  C_6
REMARK                            x       y       z     vdW  Elec       q    Type
REMARK                         _______ _______ _______ _____ _____    ______ ____
ROOT
ATOM      1  C   UNL     1      -1.209  12.634  20.521  0.00  0.00    +0.000 C 
ENDROOT
BRANCH   1   2
ATOM      2  C   UNL     1      -0.690  11.345  21.158  0.00  0.00    +0.000 A 
ATOM      3  C   UNL     1       0.015  10.410  20.383  0.00  0.00    +0.000 A 
ATOM      4  C   UNL     1       0.483   9.222  20.951  0.00  0.00    +0.000 A 
ATOM      5  C   UNL     1       0.253   8.950  22.298  0.00  0.00    +0.000 A 
ATOM      6  C   UNL     1      -0.443   9.867  23.080  0.00  0.00    +0.000 A 
ATOM      7  C   UNL     1      -0.911  11.057  22.515  0.00  0.00    +0.000 A 
ENDBRANCH   1   2
BRANCH   1  10
ATOM      8  O   UNL     1      -2.576  11.802  18.203  0.00  0.00    +0.000 OA
ATOM      9  C   UNL     1      -3.227  12.142  19.186  0.00  0.00    +0.000 C 
ATOM     10  N   UNL     1      -2.660  12.558  20.372  0.00  0.00    +0.000 N 
ATOM     11  H   UNL     1      -3.240  12.622  21.194  0.00  0.00    +0.000 HD
BRANCH   9  12
ATOM     12  C   UNL     1      -4.711  12.088  19.138  0.00  0.00    +0.000 A 
ATOM     13  C   UNL     1      -5.419  12.475  20.283  0.00  0.00    +0.000 A 
ATOM     14  C   UNL     1      -6.812  12.380  20.315  0.00  0.00    +0.000 A 
ATOM     15  C   UNL     1      -7.501  11.890  19.208  0.00  0.00    +0.000 A 
ATOM     16  C   UNL     1      -6.801  11.499  18.065  0.00  0.00    +0.000 A 
ATOM     17  C   UNL     1      -5.407  11.597  18.025  0.00  0.00    +0.000 A 
ENDBRANCH   9  12
ENDBRANCH   1  10
BRANCH   1  18
ATOM     18  C   UNL     1      -0.766  13.845  21.359  0.00  0.00    +0.000 C 
BRANCH  18  19
ATOM     19  C   UNL     1      -1.802  14.956  21.423  0.00  0.00    +0.000 C 
ATOM     20  O   UNL     1      -2.000  15.726  20.484  0.00  0.00    +0.000 OA
ATOM     21  N   UNL     1      -2.480  15.100  22.632  0.00  0.00    +0.000 N 
ATOM     22  C   UNL     1      -3.283  16.306  22.835  0.00  0.00    +0.000 C 
ATOM     23  C   UNL     1      -4.749  16.025  22.521  0.00  0.00    +0.000 C 
ATOM     24  C   UNL     1      -5.210  14.748  23.189  0.00  0.00    +0.000 A 
ATOM     25  N   UNL     1      -6.573  14.606  23.306  0.00  0.00    +0.000 NA
ATOM     26  C   UNL     1      -7.000  13.538  23.885  0.00  0.00    +0.000 A 
ATOM     27  N   UNL     1      -6.190  12.561  24.381  0.00  0.00    +0.000 N 
ATOM     28  C   UNL     1      -4.832  12.643  24.302  0.00  0.00    +0.000 A 
ATOM     29  O   UNL     1      -4.093  11.770  24.744  0.00  0.00    +0.000 OA
ATOM     30  C   UNL     1      -4.309  13.858  23.645  0.00  0.00    +0.000 A 
ATOM     31  C   UNL     1      -2.816  13.986  23.525  0.00  0.00    +0.000 C 
ATOM     32  H   UNL     1      -6.574  11.741  24.827  0.00  0.00    +0.000 HD
ENDBRANCH  18  19
ENDBRANCH   1  18
TORSDOF 5
ENDMDL
MODEL 7
REMARK VINA RESULT:      -7.4      0.575      1.052
REMARK  Name = 
REMARK  5 active torsions:
REMARK  status: ('A' for Active; 'I' for Inactive)
REMARK    1  A    between atoms: C_2  and  C_25
REMARK    2  A    between atoms: N_3  and  C_4
REMARK    3  A    between atoms: C_4  and  C_5
REMARK    4  A    between atoms: C_4  and  C_19
REMARK    5  A    between atoms: C_5  and  C_6
REMARK                            x       y       z     vdW  Elec       q    Type
REMARK                         _______ _______ _______ _____ _____    ______ ____
ROOT
ATOM      1  C   UNL     1      -0.175  10.828  19.059  0.00  0.00    +0.000 C 
ENDROOT
BRANCH   1   2
ATOM      2  C   UNL     1      -1.456  10.761  18.228  0.00  0.00    +0.000 A 
ATOM      3  C   UNL     1      -2.579  11.514  18.603  0.00  0.00    +0.000 A 
ATOM      4  C   UNL     1      -3.761  11.452  17.859  0.00  0.00    +0.000 A 
ATOM      5  C   UNL     1      -3.837  10.636  16.732  0.00  0.00    +0.000 A 
ATOM      6  C   UNL     1      -2.731   9.884  16.346  0.00  0.00    +0.000 A 
ATOM      7  C   UNL     1      -1.548   9.946  17.087  0.00  0.00    +0.000 A 
ENDBRANCH   1   2
BRANCH   1  10
ATOM      8  O   UNL     1       1.032   8.925  20.749  0.00  0.00    +0.000 OA
ATOM      9  C   UNL     1       1.284   8.897  19.549  0.00  0.00    +0.000 C 
ATOM     10  N   UNL     1       0.743   9.775  18.633  0.00  0.00    +0.000 N 
ATOM     11  H   UNL     1       0.828   9.568  17.650  0.00  0.00    +0.000 HD
BRANCH   9  12
ATOM     12  C   UNL     1       2.197   7.853  19.015  0.00  0.00    +0.000 A 
ATOM     13  C   UNL     1       2.351   6.675  19.755  0.00  0.00    +0.000 A 
ATOM     14  C   UNL     1       3.246   5.690  19.334  0.00  0.00    +0.000 A 
ATOM     15  C   UNL     1       3.996   5.883  18.175  0.00  0.00    +0.000 A 
ATOM     16  C   UNL     1       3.849   7.056  17.434  0.00  0.00    +0.000 A 
ATOM     17  C   UNL     1       2.950   8.044  17.849  0.00  0.00    +0.000 A 
ENDBRANCH   9  12
ENDBRANCH   1  10
BRANCH   1  18
ATOM     18  C   UNL     1       0.447  12.231  18.947  0.00  0.00    +0.000 C 
BRANCH  18  19
ATOM     19  C   UNL     1       1.062  12.732  20.245  0.00  0.00    +0.000 C 
ATOM     20  O   UNL     1       1.269  11.991  21.204  0.00  0.00    +0.000 OA
ATOM     21  N   UNL     1       1.324  14.099  20.317  0.00  0.00    +0.000 N 
ATOM     22  C   UNL     1       1.659  14.671  21.620  0.00  0.00    +0.000 C 
ATOM     23  C   UNL     1       3.173  14.793  21.771  0.00  0.00    +0.000 C 
ATOM     24  C   UNL     1       3.789  15.423  20.543  0.00  0.00    +0.000 A 
ATOM     25  N   UNL     1       5.054  15.937  20.717  0.00  0.00    +0.000 NA
ATOM     26  C   UNL     1       5.602  16.497  19.696  0.00  0.00    +0.000 A 
ATOM     27  N   UNL     1       5.009  16.609  18.475  0.00  0.00    +0.000 N 
ATOM     28  C   UNL     1       3.756  16.126  18.236  0.00  0.00    +0.000 A 
ATOM     29  O   UNL     1       3.212  16.221  17.142  0.00  0.00    +0.000 OA
ATOM     30  C   UNL     1       3.097  15.480  19.390  0.00  0.00    +0.000 A 
ATOM     31  C   UNL     1       1.718  14.922  19.169  0.00  0.00    +0.000 C 
ATOM     32  H   UNL     1       5.480  17.058  17.704  0.00  0.00    +0.000 HD
ENDBRANCH  18  19
ENDBRANCH   1  18
TORSDOF 5
ENDMDL
MODEL 8
REMARK VINA RESULT:      -7.3      2.974      5.862
REMARK  Name = 
REMARK  5 active torsions:
REMARK  status: ('A' for Active; 'I' for Inactive)
REMARK    1  A    between atoms: C_2  and  C_25
REMARK    2  A    between atoms: N_3  and  C_4
REMARK    3  A    between atoms: C_4  and  C_5
REMARK    4  A    between atoms: C_4  and  C_19
REMARK    5  A    between atoms: C_5  and  C_6
REMARK                            x       y       z     vdW  Elec       q    Type
REMARK                         _______ _______ _______ _____ _____    ______ ____
ROOT
ATOM      1  C   UNL     1       3.025   6.505  18.939  0.00  0.00    +0.000 C 
ENDROOT
BRANCH   1   2
ATOM      2  C   UNL     1       2.310   5.264  19.476  0.00  0.00    +0.000 A 
ATOM      3  C   UNL     1       2.491   4.869  20.811  0.00  0.00    +0.000 A 
ATOM      4  C   UNL     1       1.854   3.730  21.311  0.00  0.00    +0.000 A 
ATOM      5  C   UNL     1       1.029   2.970  20.485  0.00  0.00    +0.000 A 
ATOM      6  C   UNL     1       0.838   3.349  19.159  0.00  0.00    +0.000 A 
ATOM      7  C   UNL     1       1.472   4.488  18.658  0.00  0.00    +0.000 A 
ENDBRANCH   1   2
BRANCH   1  10
ATOM      8  O   UNL     1       5.539   5.238  18.899  0.00  0.00    +0.000 OA
ATOM      9  C   UNL     1       5.011   5.540  17.834  0.00  0.00    +0.000 C 
ATOM     10  N   UNL     1       3.779   6.155  17.740  0.00  0.00    +0.000 N 
ATOM     11  H   UNL     1       3.317   6.185  16.844  0.00  0.00    +0.000 HD
BRANCH   9  12
ATOM     12  C   UNL     1       5.694   5.214  16.556  0.00  0.00    +0.000 A 
ATOM     13  C   UNL     1       4.992   4.455  15.611  0.00  0.00    +0.000 A 
ATOM     14  C   UNL     1       5.610   4.064  14.422  0.00  0.00    +0.000 A 
ATOM     15  C   UNL     1       6.934   4.422  14.176  0.00  0.00    +0.000 A 
ATOM     16  C   UNL     1       7.640   5.176  15.115  0.00  0.00    +0.000 A 
ATOM     17  C   UNL     1       7.024   5.575  16.305  0.00  0.00    +0.000 A 
ENDBRANCH   9  12
ENDBRANCH   1  10
BRANCH   1  18
ATOM     18  C   UNL     1       2.003   7.626  18.685  0.00  0.00    +0.000 C 
BRANCH  18  19
ATOM     19  C   UNL     1       1.399   8.202  19.956  0.00  0.00    +0.000 C 
ATOM     20  O   UNL     1       1.504   7.643  21.047  0.00  0.00    +0.000 OA
ATOM     21  N   UNL     1       0.660   9.375  19.813  0.00  0.00    +0.000 N 
ATOM     22  C   UNL     1      -0.157   9.819  20.942  0.00  0.00    +0.000 C 
ATOM     23  C   UNL     1       0.588  10.877  21.751  0.00  0.00    +0.000 C 
ATOM     24  C   UNL     1       1.177  11.935  20.844  0.00  0.00    +0.000 A 
ATOM     25  N   UNL     1       1.516  13.116  21.462  0.00  0.00    +0.000 NA
ATOM     26  C   UNL     1       2.004  14.045  20.716  0.00  0.00    +0.000 A 
ATOM     27  N   UNL     1       2.197  13.926  19.373  0.00  0.00    +0.000 N 
ATOM     28  C   UNL     1       1.877  12.785  18.699  0.00  0.00    +0.000 A 
ATOM     29  O   UNL     1       2.046  12.666  17.490  0.00  0.00    +0.000 OA
ATOM     30  C   UNL     1       1.311  11.699  19.525  0.00  0.00    +0.000 A 
ATOM     31  C   UNL     1       0.955  10.417  18.825  0.00  0.00    +0.000 C 
ATOM     32  H   UNL     1       2.583  14.685  18.831  0.00  0.00    +0.000 HD
ENDBRANCH  18  19
ENDBRANCH   1  18
TORSDOF 5
ENDMDL
MODEL 9
REMARK VINA RESULT:      -7.3      4.075      7.152
REMARK  Name = 
REMARK  5 active torsions:
REMARK  status: ('A' for Active; 'I' for Inactive)
REMARK    1  A    between atoms: C_2  and  C_25
REMARK    2  A    between atoms: N_3  and  C_4
REMARK    3  A    between atoms: C_4  and  C_5
REMARK    4  A    between atoms: C_4  and  C_19
REMARK    5  A    between atoms: C_5  and  C_6
REMARK                            x       y       z     vdW  Elec       q    Type
REMARK                         _______ _______ _______ _____ _____    ______ ____
ROOT
ATOM      1  C   UNL     1       3.422   5.462  19.917  0.00  0.00    +0.000 C 
ENDROOT
BRANCH   1   2
ATOM      2  C   UNL     1       2.488   4.257  20.030  0.00  0.00    +0.000 A 
ATOM      3  C   UNL     1       1.895   3.715  18.878  0.00  0.00    +0.000 A 
ATOM      4  C   UNL     1       1.029   2.622  18.969  0.00  0.00    +0.000 A 
ATOM      5  C   UNL     1       0.743   2.056  20.209  0.00  0.00    +0.000 A 
ATOM      6  C   UNL     1       1.324   2.581  21.361  0.00  0.00    +0.000 A 
ATOM      7  C   UNL     1       2.192   3.672  21.272  0.00  0.00    +0.000 A 
ENDBRANCH   1   2
BRANCH   1  10
ATOM      8  O   UNL     1       5.731   4.023  19.190  0.00  0.00    +0.000 OA
ATOM      9  C   UNL     1       5.188   4.735  18.352  0.00  0.00    +0.000 C 
ATOM     10  N   UNL     1       4.050   5.475  18.599  0.00  0.00    +0.000 N 
ATOM     11  H   UNL     1       3.544   5.867  17.819  0.00  0.00    +0.000 HD
BRANCH   9  12
ATOM     12  C   UNL     1       5.744   4.805  16.975  0.00  0.00    +0.000 A 
ATOM     13  C   UNL     1       4.916   4.419  15.913  0.00  0.00    +0.000 A 
ATOM     14  C   UNL     1       5.409   4.401  14.607  0.00  0.00    +0.000 A 
ATOM     15  C   UNL     1       6.733   4.762  14.359  0.00  0.00    +0.000 A 
ATOM     16  C   UNL     1       7.562   5.145  15.413  0.00  0.00    +0.000 A 
ATOM     17  C   UNL     1       7.072   5.169  16.723  0.00  0.00    +0.000 A 
ENDBRANCH   9  12
ENDBRANCH   1  10
BRANCH   1  18
ATOM     18  C   UNL     1       2.642   6.755  20.209  0.00  0.00    +0.000 C 
BRANCH  18  19
ATOM     19  C   UNL     1       2.135   7.459  18.961  0.00  0.00    +0.000 C 
ATOM     20  O   UNL     1       1.880   6.852  17.921  0.00  0.00    +0.000 OA
ATOM     21  N   UNL     1       2.029   8.846  19.032  0.00  0.00    +0.000 N 
ATOM     22  C   UNL     1       1.807   9.588  17.792  0.00  0.00    +0.000 C 
ATOM     23  C   UNL     1       0.323   9.898  17.619  0.00  0.00    +0.000 C 
ATOM     24  C   UNL     1      -0.264  10.461  18.894  0.00  0.00    +0.000 A 
ATOM     25  N   UNL     1      -1.456  11.132  18.746  0.00  0.00    +0.000 NA
ATOM     26  C   UNL     1      -1.975  11.640  19.809  0.00  0.00    +0.000 A 
ATOM     27  N   UNL     1      -1.417  11.553  21.050  0.00  0.00    +0.000 N 
ATOM     28  C   UNL     1      -0.236  10.907  21.264  0.00  0.00    +0.000 A 
ATOM     29  O   UNL     1       0.276  10.822  22.374  0.00  0.00    +0.000 OA
ATOM     30  C   UNL     1       0.389  10.315  20.063  0.00  0.00    +0.000 A 
ATOM     31  C   UNL     1       1.687   9.583  20.254  0.00  0.00    +0.000 C 
ATOM     32  H   UNL     1      -1.863  11.969  21.853  0.00  0.00    +0.000 HD
ENDBRANCH  18  19
ENDBRANCH   1  18
TORSDOF 5
ENDMDL
