MODEL 1
REMARK VINA RESULT:      -9.2      0.000      0.000
REMARK  Name = 
REMARK  6 active torsions:
REMARK  status: ('A' for Active; 'I' for Inactive)
REMARK    1  A    between atoms: C_1  and  C_2
REMARK    2  A    between atoms: C_4  and  C_5
REMARK    3  A    between atoms: C_7  and  C_8
REMARK    4  A    between atoms: C_14  and  C_15
REMARK    5  A    between atoms: N_17  and  C_18
REMARK    6  A    between atoms: C_18  and  C_19
REMARK                            x       y       z     vdW  Elec       q    Type
REMARK                         _______ _______ _______ _____ _____    ______ ____
ROOT
ATOM      1  C   UNL     1       4.407   3.697  18.702  0.00  0.00    +0.000 C 
ATOM      2  O   UNL     1       4.427   2.472  18.847  0.00  0.00    +0.000 OA
ATOM      3  N   UNL     1       3.619   4.530  19.505  0.00  0.00    +0.000 N 
ATOM      4  C   UNL     1       2.906   3.925  20.629  0.00  0.00    +0.000 C 
ATOM      5  C   UNL     1       1.431   4.314  20.602  0.00  0.00    +0.000 C 
ATOM      6  C   UNL     1       1.239   5.832  20.508  0.00  0.00    +0.000 C 
ATOM      7  C   UNL     1       2.050   6.429  19.346  0.00  0.00    +0.000 C 
ATOM      8  C   UNL     1       3.524   6.000  19.486  0.00  0.00    +0.000 C 
ENDROOT
BRANCH   1  15
ATOM      9  C   UNL     1       7.721   7.206  17.448  0.00  0.00    +0.000 C 
ATOM     10  C   UNL     1       6.895   6.015  17.061  0.00  0.00    +0.000 A 
ATOM     11  C   UNL     1       6.886   5.542  15.743  0.00  0.00    +0.000 A 
ATOM     12  C   UNL     1       6.159   4.394  15.401  0.00  0.00    +0.000 A 
ATOM     13  C   UNL     1       6.069   3.928  13.978  0.00  0.00    +0.000 C 
ATOM     14  C   UNL     1       5.442   3.715  16.391  0.00  0.00    +0.000 A 
ATOM     15  C   UNL     1       5.324   4.254  17.671  0.00  0.00    +0.000 A 
ATOM     16  C   UNL     1       6.097   5.372  18.017  0.00  0.00    +0.000 A 
ENDBRANCH   1  15
BRANCH   7  17
ATOM     17  C   UNL     1       1.946   7.952  19.272  0.00  0.00    +0.000 C 
ATOM     18  O   UNL     1       2.371   8.599  18.319  0.00  0.00    +0.000 OA
ATOM     19  N   UNL     1       1.281   8.552  20.314  0.00  0.00    +0.000 N 
ATOM     20  H   UNL     1       1.065   8.039  21.166  0.00  0.00    +0.000 HD
BRANCH  19  21
ATOM     21  C   UNL     1       1.146   9.995  20.377  0.00  0.00    +0.000 C 
BRANCH  21  22
ATOM     22  C   UNL     1       0.256  10.410  21.503  0.00  0.00    +0.000 A 
ATOM     23  N   UNL     1       0.473   9.945  22.752  0.00  0.00    +0.000 NA
ATOM     24  O   UNL     1      -0.495  10.533  23.554  0.00  0.00    +0.000 OA
ATOM     25  C   UNL     1      -1.271  11.325  22.786  0.00  0.00    +0.000 A 
ATOM     26  C   UNL     1      -0.850  11.295  21.481  0.00  0.00    +0.000 A 
ATOM     27  C   UNL     1      -1.538  12.065  20.414  0.00  0.00    +0.000 C 
ATOM     28  C   UNL     1      -2.505  13.114  21.022  0.00  0.00    +0.000 C 
ATOM     29  C   UNL     1      -3.303  12.570  22.228  0.00  0.00    +0.000 C 
ATOM     30  C   UNL     1      -2.381  12.101  23.373  0.00  0.00    +0.000 C 
ENDBRANCH  21  22
ENDBRANCH  19  21
ENDBRANCH   7  17
TORSDOF 4
ENDMDL
MODEL 2
REMARK VINA RESULT:      -8.9      1.998      2.918
REMARK  Name = 
REMARK  6 active torsions:
REMARK  status: ('A' for Active; 'I' for Inactive)
REMARK    1  A    between atoms: C_1  and  C_2
REMARK    2  A    between atoms: C_4  and  C_5
REMARK    3  A    between atoms: C_7  and  C_8
REMARK    4  A    between atoms: C_14  and  C_15
REMARK    5  A    between atoms: N_17  and  C_18
REMARK    6  A    between atoms: C_18  and  C_19
REMARK                            x       y       z     vdW  Elec       q    Type
REMARK                         _______ _______ _______ _____ _____    ______ ____
ROOT
ATOM      1  C   UNL     1       4.070   3.675  18.282  0.00  0.00    +0.000 C 
ATOM      2  O   UNL     1       4.038   2.447  18.178  0.00  0.00    +0.000 OA
ATOM      3  N   UNL     1       3.351   4.358  19.269  0.00  0.00    +0.000 N 
ATOM      4  C   UNL     1       2.651   3.568  20.280  0.00  0.00    +0.000 C 
ATOM      5  C   UNL     1       1.195   4.011  20.397  0.00  0.00    +0.000 C 
ATOM      6  C   UNL     1       1.072   5.523  20.617  0.00  0.00    +0.000 C 
ATOM      7  C   UNL     1       1.868   6.310  19.563  0.00  0.00    +0.000 C 
ATOM      8  C   UNL     1       3.324   5.805  19.549  0.00  0.00    +0.000 C 
ENDROOT
BRANCH   1  15
ATOM      9  C   UNL     1       6.145   3.895  13.753  0.00  0.00    +0.000 C 
ATOM     10  C   UNL     1       6.023   4.444  15.143  0.00  0.00    +0.000 A 
ATOM     11  C   UNL     1       6.836   5.499  15.575  0.00  0.00    +0.000 A 
ATOM     12  C   UNL     1       6.677   6.046  16.855  0.00  0.00    +0.000 A 
ATOM     13  C   UNL     1       7.599   7.116  17.362  0.00  0.00    +0.000 C 
ATOM     14  C   UNL     1       5.691   5.533  17.704  0.00  0.00    +0.000 A 
ATOM     15  C   UNL     1       4.975   4.393  17.344  0.00  0.00    +0.000 A 
ATOM     16  C   UNL     1       5.104   3.886  16.041  0.00  0.00    +0.000 A 
ENDBRANCH   1  15
BRANCH   7  17
ATOM     17  C   UNL     1       1.833   7.820  19.801  0.00  0.00    +0.000 C 
ATOM     18  O   UNL     1       1.884   8.314  20.924  0.00  0.00    +0.000 OA
ATOM     19  N   UNL     1       1.809   8.598  18.669  0.00  0.00    +0.000 N 
ATOM     20  H   UNL     1       1.617   8.194  17.755  0.00  0.00    +0.000 HD
BRANCH  19  21
ATOM     21  C   UNL     1       1.740  10.044  18.763  0.00  0.00    +0.000 C 
BRANCH  21  22
ATOM     22  C   UNL     1       0.345  10.505  19.035  0.00  0.00    +0.000 A 
ATOM     23  N   UNL     1       0.066  11.225  20.143  0.00  0.00    +0.000 NA
ATOM     24  O   UNL     1      -1.290  11.513  20.083  0.00  0.00    +0.000 OA
ATOM     25  C   UNL     1      -1.800  10.966  18.960  0.00  0.00    +0.000 A 
ATOM     26  C   UNL     1      -0.821  10.318  18.252  0.00  0.00    +0.000 A 
ATOM     27  C   UNL     1      -1.109   9.609  16.979  0.00  0.00    +0.000 C 
ATOM     28  C   UNL     1      -2.506   9.999  16.431  0.00  0.00    +0.000 C 
ATOM     29  C   UNL     1      -3.583  10.086  17.535  0.00  0.00    +0.000 C 
ATOM     30  C   UNL     1      -3.225  11.127  18.617  0.00  0.00    +0.000 C 
ENDBRANCH  21  22
ENDBRANCH  19  21
ENDBRANCH   7  17
TORSDOF 4
ENDMDL
MODEL 3
REMARK VINA RESULT:      -8.9      1.835      2.310
REMARK  Name = 
REMARK  6 active torsions:
REMARK  status: ('A' for Active; 'I' for Inactive)
REMARK    1  A    between atoms: C_1  and  C_2
REMARK    2  A    between atoms: C_4  and  C_5
REMARK    3  A    between atoms: C_7  and  C_8
REMARK    4  A    between atoms: C_14  and  C_15
REMARK    5  A    between atoms: N_17  and  C_18
REMARK    6  A    between atoms: C_18  and  C_19
REMARK                            x       y       z     vdW  Elec       q    Type
REMARK                         _______ _______ _______ _____ _____    ______ ____
ROOT
ATOM      1  C   UNL     1       4.204   3.920  18.729  0.00  0.00    +0.000 C 
ATOM      2  O   UNL     1       4.161   2.702  18.919  0.00  0.00    +0.000 OA
ATOM      3  N   UNL     1       3.445   4.820  19.486  0.00  0.00    +0.000 N 
ATOM      4  C   UNL     1       2.684   4.293  20.618  0.00  0.00    +0.000 C 
ATOM      5  C   UNL     1       1.230   4.753  20.550  0.00  0.00    +0.000 C 
ATOM      6  C   UNL     1       1.115   6.273  20.398  0.00  0.00    +0.000 C 
ATOM      7  C   UNL     1       1.975   6.786  19.229  0.00  0.00    +0.000 C 
ATOM      8  C   UNL     1       3.423   6.291  19.413  0.00  0.00    +0.000 C 
ENDROOT
BRANCH   1  15
ATOM      9  C   UNL     1       7.712   7.211  17.413  0.00  0.00    +0.000 C 
ATOM     10  C   UNL     1       6.833   6.050  17.053  0.00  0.00    +0.000 A 
ATOM     11  C   UNL     1       6.821   5.531  15.753  0.00  0.00    +0.000 A 
ATOM     12  C   UNL     1       6.042   4.410  15.437  0.00  0.00    +0.000 A 
ATOM     13  C   UNL     1       5.951   3.898  14.030  0.00  0.00    +0.000 C 
ATOM     14  C   UNL     1       5.275   3.804  16.437  0.00  0.00    +0.000 A 
ATOM     15  C   UNL     1       5.164   4.393  17.696  0.00  0.00    +0.000 A 
ATOM     16  C   UNL     1       5.988   5.483  18.016  0.00  0.00    +0.000 A 
ENDBRANCH   1  15
BRANCH   7  17
ATOM     17  C   UNL     1       1.947   8.309  19.099  0.00  0.00    +0.000 C 
ATOM     18  O   UNL     1       2.521   8.906  18.192  0.00  0.00    +0.000 OA
ATOM     19  N   UNL     1       1.179   8.970  20.027  0.00  0.00    +0.000 N 
ATOM     20  H   UNL     1       0.832   8.495  20.857  0.00  0.00    +0.000 HD
BRANCH  19  21
ATOM     21  C   UNL     1       1.100  10.419  20.029  0.00  0.00    +0.000 C 
BRANCH  21  22
ATOM     22  C   UNL     1      -0.304  10.887  19.820  0.00  0.00    +0.000 A 
ATOM     23  N   UNL     1      -0.893  11.703  20.720  0.00  0.00    +0.000 NA
ATOM     24  O   UNL     1      -2.161  11.969  20.225  0.00  0.00    +0.000 OA
ATOM     25  C   UNL     1      -2.316  11.314  19.055  0.00  0.00    +0.000 A 
ATOM     26  C   UNL     1      -1.179  10.614  18.741  0.00  0.00    +0.000 A 
ATOM     27  C   UNL     1      -1.080   9.787  17.511  0.00  0.00    +0.000 C 
ATOM     28  C   UNL     1      -2.237  10.108  16.531  0.00  0.00    +0.000 C 
ATOM     29  C   UNL     1      -3.597  10.285  17.242  0.00  0.00    +0.000 C 
ATOM     30  C   UNL     1      -3.567  11.425  18.282  0.00  0.00    +0.000 C 
ENDBRANCH  21  22
ENDBRANCH  19  21
ENDBRANCH   7  17
TORSDOF 4
ENDMDL
MODEL 4
REMARK VINA RESULT:      -8.8      0.318      1.633
REMARK  Name = 
REMARK  6 active torsions:
REMARK  status: ('A' for Active; 'I' for Inactive)
REMARK    1  A    between atoms: C_1  and  C_2
REMARK    2  A    between atoms: C_4  and  C_5
REMARK    3  A    between atoms: C_7  and  C_8
REMARK    4  A    between atoms: C_14  and  C_15
REMARK    5  A    between atoms: N_17  and  C_18
REMARK    6  A    between atoms: C_18  and  C_19
REMARK                            x       y       z     vdW  Elec       q    Type
REMARK                         _______ _______ _______ _____ _____    ______ ____
ROOT
ATOM      1  C   UNL     1       4.261   3.998  18.627  0.00  0.00    +0.000 C 
ATOM      2  O   UNL     1       4.295   2.768  18.707  0.00  0.00    +0.000 OA
ATOM      3  N   UNL     1       3.483   4.780  19.487  0.00  0.00    +0.000 N 
ATOM      4  C   UNL     1       2.798   4.112  20.593  0.00  0.00    +0.000 C 
ATOM      5  C   UNL     1       1.319   4.488  20.616  0.00  0.00    +0.000 C 
ATOM      6  C   UNL     1       1.113   6.006  20.606  0.00  0.00    +0.000 C 
ATOM      7  C   UNL     1       1.895   6.671  19.460  0.00  0.00    +0.000 C 
ATOM      8  C   UNL     1       3.375   6.249  19.548  0.00  0.00    +0.000 C 
ENDROOT
BRANCH   1  15
ATOM      9  C   UNL     1       6.220   3.791  14.046  0.00  0.00    +0.000 C 
ATOM     10  C   UNL     1       6.143   4.460  15.386  0.00  0.00    +0.000 A 
ATOM     11  C   UNL     1       6.982   5.535  15.705  0.00  0.00    +0.000 A 
ATOM     12  C   UNL     1       6.865   6.192  16.936  0.00  0.00    +0.000 A 
ATOM     13  C   UNL     1       7.816   7.286  17.326  0.00  0.00    +0.000 C 
ATOM     14  C   UNL     1       5.894   5.772  17.850  0.00  0.00    +0.000 A 
ATOM     15  C   UNL     1       5.152   4.617  17.608  0.00  0.00    +0.000 A 
ATOM     16  C   UNL     1       5.239   3.997  16.351  0.00  0.00    +0.000 A 
ENDBRANCH   1  15
BRANCH   7  17
ATOM     17  C   UNL     1       1.776   8.194  19.468  0.00  0.00    +0.000 C 
ATOM     18  O   UNL     1       2.057   8.885  18.492  0.00  0.00    +0.000 OA
ATOM     19  N   UNL     1       1.268   8.743  20.620  0.00  0.00    +0.000 N 
ATOM     20  H   UNL     1       1.178   8.193  21.471  0.00  0.00    +0.000 HD
BRANCH  19  21
ATOM     21  C   UNL     1       1.138  10.181  20.764  0.00  0.00    +0.000 C 
BRANCH  21  22
ATOM     22  C   UNL     1       0.105  10.535  21.784  0.00  0.00    +0.000 A 
ATOM     23  N   UNL     1       0.164  10.010  23.026  0.00  0.00    +0.000 NA
ATOM     24  O   UNL     1      -0.907  10.552  23.723  0.00  0.00    +0.000 OA
ATOM     25  C   UNL     1      -1.585  11.378  22.900  0.00  0.00    +0.000 A 
ATOM     26  C   UNL     1      -0.998  11.415  21.662  0.00  0.00    +0.000 A 
ATOM     27  C   UNL     1      -1.551  12.234  20.553  0.00  0.00    +0.000 C 
ATOM     28  C   UNL     1      -2.600  13.247  21.080  0.00  0.00    +0.000 C 
ATOM     29  C   UNL     1      -3.541  12.640  22.144  0.00  0.00    +0.000 C 
ATOM     30  C   UNL     1      -2.770  12.118  23.376  0.00  0.00    +0.000 C 
ENDBRANCH  21  22
ENDBRANCH  19  21
ENDBRANCH   7  17
TORSDOF 4
ENDMDL
MODEL 5
REMARK VINA RESULT:      -8.7      1.610      2.703
REMARK  Name = 
REMARK  6 active torsions:
REMARK  status: ('A' for Active; 'I' for Inactive)
REMARK    1  A    between atoms: C_1  and  C_2
REMARK    2  A    between atoms: C_4  and  C_5
REMARK    3  A    between atoms: C_7  and  C_8
REMARK    4  A    between atoms: C_14  and  C_15
REMARK    5  A    between atoms: N_17  and  C_18
REMARK    6  A    between atoms: C_18  and  C_19
REMARK                            x       y       z     vdW  Elec       q    Type
REMARK                         _______ _______ _______ _____ _____    ______ ____
ROOT
ATOM      1  C   UNL     1       4.161   3.357  18.164  0.00  0.00    +0.000 C 
ATOM      2  O   UNL     1       4.159   2.138  17.977  0.00  0.00    +0.000 OA
ATOM      3  N   UNL     1       3.434   3.954  19.199  0.00  0.00    +0.000 N 
ATOM      4  C   UNL     1       2.762   3.079  20.159  0.00  0.00    +0.000 C 
ATOM      5  C   UNL     1       1.296   3.477  20.314  0.00  0.00    +0.000 C 
ATOM      6  C   UNL     1       1.137   4.967  20.638  0.00  0.00    +0.000 C 
ATOM      7  C   UNL     1       1.906   5.844  19.634  0.00  0.00    +0.000 C 
ATOM      8  C   UNL     1       3.374   5.377  19.577  0.00  0.00    +0.000 C 
ENDROOT
BRANCH   1  15
ATOM      9  C   UNL     1       6.217   3.918  13.655  0.00  0.00    +0.000 C 
ATOM     10  C   UNL     1       6.081   4.377  15.076  0.00  0.00    +0.000 A 
ATOM     11  C   UNL     1       6.861   5.429  15.572  0.00  0.00    +0.000 A 
ATOM     12  C   UNL     1       6.689   5.892  16.883  0.00  0.00    +0.000 A 
ATOM     13  C   UNL     1       7.578   6.958  17.454  0.00  0.00    +0.000 C 
ATOM     14  C   UNL     1       5.721   5.297  17.699  0.00  0.00    +0.000 A 
ATOM     15  C   UNL     1       5.041   4.159  17.270  0.00  0.00    +0.000 A 
ATOM     16  C   UNL     1       5.182   3.736  15.939  0.00  0.00    +0.000 A 
ENDBRANCH   1  15
BRANCH   7  17
ATOM     17  C   UNL     1       1.835   7.332  19.974  0.00  0.00    +0.000 C 
ATOM     18  O   UNL     1       1.795   7.746  21.130  0.00  0.00    +0.000 OA
ATOM     19  N   UNL     1       1.890   8.188  18.901  0.00  0.00    +0.000 N 
ATOM     20  H   UNL     1       1.773   7.849  17.949  0.00  0.00    +0.000 HD
BRANCH  19  21
ATOM     21  C   UNL     1       1.797   9.624  19.091  0.00  0.00    +0.000 C 
BRANCH  21  22
ATOM     22  C   UNL     1       0.425  10.127  18.778  0.00  0.00    +0.000 A 
ATOM     23  N   UNL     1      -0.184   9.776  17.625  0.00  0.00    +0.000 NA
ATOM     24  O   UNL     1      -1.434  10.377  17.653  0.00  0.00    +0.000 OA
ATOM     25  C   UNL     1      -1.554  11.073  18.803  0.00  0.00    +0.000 A 
ATOM     26  C   UNL     1      -0.417  10.955  19.559  0.00  0.00    +0.000 A 
ATOM     27  C   UNL     1      -0.270  11.638  20.871  0.00  0.00    +0.000 C 
ATOM     28  C   UNL     1      -1.637  12.162  21.380  0.00  0.00    +0.000 C 
ATOM     29  C   UNL     1      -2.491  12.800  20.262  0.00  0.00    +0.000 C 
ATOM     30  C   UNL     1      -2.795  11.806  19.121  0.00  0.00    +0.000 C 
ENDBRANCH  21  22
ENDBRANCH  19  21
ENDBRANCH   7  17
TORSDOF 4
ENDMDL
MODEL 6
REMARK VINA RESULT:      -8.7      1.711      2.137
REMARK  Name = 
REMARK  6 active torsions:
REMARK  status: ('A' for Active; 'I' for Inactive)
REMARK    1  A    between atoms: C_1  and  C_2
REMARK    2  A    between atoms: C_4  and  C_5
REMARK    3  A    between atoms: C_7  and  C_8
REMARK    4  A    between atoms: C_14  and  C_15
REMARK    5  A    between atoms: N_17  and  C_18
REMARK    6  A    between atoms: C_18  and  C_19
REMARK                            x       y       z     vdW  Elec       q    Type
REMARK                         _______ _______ _______ _____ _____    ______ ____
ROOT
ATOM      1  C   UNL     1       4.248   3.379  18.573  0.00  0.00    +0.000 C 
ATOM      2  O   UNL     1       4.221   2.146  18.570  0.00  0.00    +0.000 OA
ATOM      3  N   UNL     1       3.491   4.139  19.471  0.00  0.00    +0.000 N 
ATOM      4  C   UNL     1       2.753   3.433  20.516  0.00  0.00    +0.000 C 
ATOM      5  C   UNL     1       1.293   3.879  20.539  0.00  0.00    +0.000 C 
ATOM      6  C   UNL     1       1.160   5.403  20.629  0.00  0.00    +0.000 C 
ATOM      7  C   UNL     1       1.997   6.103  19.544  0.00  0.00    +0.000 C 
ATOM      8  C   UNL     1       3.452   5.604  19.629  0.00  0.00    +0.000 C 
ENDROOT
BRANCH   1  15
ATOM      9  C   UNL     1       7.666   6.910  17.728  0.00  0.00    +0.000 C 
ATOM     10  C   UNL     1       6.812   5.792  17.209  0.00  0.00    +0.000 A 
ATOM     11  C   UNL     1       6.801   5.466  15.847  0.00  0.00    +0.000 A 
ATOM     12  C   UNL     1       6.045   4.384  15.377  0.00  0.00    +0.000 A 
ATOM     13  C   UNL     1       5.954   4.079  13.911  0.00  0.00    +0.000 C 
ATOM     14  C   UNL     1       5.302   3.621  16.283  0.00  0.00    +0.000 A 
ATOM     15  C   UNL     1       5.188   4.019  17.614  0.00  0.00    +0.000 A 
ATOM     16  C   UNL     1       5.989   5.071  18.084  0.00  0.00    +0.000 A 
ENDBRANCH   1  15
BRANCH   7  17
ATOM     17  C   UNL     1       1.951   7.627  19.654  0.00  0.00    +0.000 C 
ATOM     18  O   UNL     1       1.958   8.213  20.733  0.00  0.00    +0.000 OA
ATOM     19  N   UNL     1       1.972   8.308  18.461  0.00  0.00    +0.000 N 
ATOM     20  H   UNL     1       1.816   7.829  17.577  0.00  0.00    +0.000 HD
BRANCH  19  21
ATOM     21  C   UNL     1       1.898   9.757  18.432  0.00  0.00    +0.000 C 
BRANCH  21  22
ATOM     22  C   UNL     1       0.482  10.231  18.491  0.00  0.00    +0.000 A 
ATOM     23  N   UNL     1      -0.445   9.717  17.655  0.00  0.00    +0.000 NA
ATOM     24  O   UNL     1      -1.642  10.339  17.980  0.00  0.00    +0.000 OA
ATOM     25  C   UNL     1      -1.419  11.208  18.988  0.00  0.00    +0.000 A 
ATOM     26  C   UNL     1      -0.099  11.187  19.359  0.00  0.00    +0.000 A 
ATOM     27  C   UNL     1       0.429  12.062  20.437  0.00  0.00    +0.000 C 
ATOM     28  C   UNL     1      -0.727  12.686  21.262  0.00  0.00    +0.000 C 
ATOM     29  C   UNL     1      -1.907  13.158  20.383  0.00  0.00    +0.000 C 
ATOM     30  C   UNL     1      -2.521  12.004  19.562  0.00  0.00    +0.000 C 
ENDBRANCH  21  22
ENDBRANCH  19  21
ENDBRANCH   7  17
TORSDOF 4
ENDMDL
MODEL 7
REMARK VINA RESULT:      -8.6      1.282      2.274
REMARK  Name = 
REMARK  6 active torsions:
REMARK  status: ('A' for Active; 'I' for Inactive)
REMARK    1  A    between atoms: C_1  and  C_2
REMARK    2  A    between atoms: C_4  and  C_5
REMARK    3  A    between atoms: C_7  and  C_8
REMARK    4  A    between atoms: C_14  and  C_15
REMARK    5  A    between atoms: N_17  and  C_18
REMARK    6  A    between atoms: C_18  and  C_19
REMARK                            x       y       z     vdW  Elec       q    Type
REMARK                         _______ _______ _______ _____ _____    ______ ____
ROOT
ATOM      1  C   UNL     1       3.959   3.232  17.889  0.00  0.00    +0.000 C 
ATOM      2  O   UNL     1       3.830   2.042  17.595  0.00  0.00    +0.000 OA
ATOM      3  N   UNL     1       3.315   3.802  18.993  0.00  0.00    +0.000 N 
ATOM      4  C   UNL     1       2.575   2.915  19.889  0.00  0.00    +0.000 C 
ATOM      5  C   UNL     1       1.161   3.440  20.120  0.00  0.00    +0.000 C 
ATOM      6  C   UNL     1       1.159   4.902  20.578  0.00  0.00    +0.000 C 
ATOM      7  C   UNL     1       1.993   5.786  19.635  0.00  0.00    +0.000 C 
ATOM      8  C   UNL     1       3.405   5.184  19.496  0.00  0.00    +0.000 C 
ENDROOT
BRANCH   1  15
ATOM      9  C   UNL     1       6.217   3.800  13.479  0.00  0.00    +0.000 C 
ATOM     10  C   UNL     1       6.036   4.242  14.901  0.00  0.00    +0.000 A 
ATOM     11  C   UNL     1       6.824   5.263  15.445  0.00  0.00    +0.000 A 
ATOM     12  C   UNL     1       6.610   5.711  16.755  0.00  0.00    +0.000 A 
ATOM     13  C   UNL     1       7.505   6.741  17.380  0.00  0.00    +0.000 C 
ATOM     14  C   UNL     1       5.592   5.133  17.521  0.00  0.00    +0.000 A 
ATOM     15  C   UNL     1       4.898   4.021  17.046  0.00  0.00    +0.000 A 
ATOM     16  C   UNL     1       5.083   3.615  15.715  0.00  0.00    +0.000 A 
ENDBRANCH   1  15
BRANCH   7  17
ATOM     17  C   UNL     1       2.079   7.237  20.106  0.00  0.00    +0.000 C 
ATOM     18  O   UNL     1       2.781   8.075  19.545  0.00  0.00    +0.000 OA
ATOM     19  N   UNL     1       1.266   7.566  21.163  0.00  0.00    +0.000 N 
ATOM     20  H   UNL     1       0.805   6.848  21.717  0.00  0.00    +0.000 HD
BRANCH  19  21
ATOM     21  C   UNL     1       1.282   8.905  21.725  0.00  0.00    +0.000 C 
BRANCH  21  22
ATOM     22  C   UNL     1       0.309   9.799  21.027  0.00  0.00    +0.000 A 
ATOM     23  N   UNL     1       0.219   9.792  19.680  0.00  0.00    +0.000 NA
ATOM     24  O   UNL     1      -0.780  10.698  19.357  0.00  0.00    +0.000 OA
ATOM     25  C   UNL     1      -1.265  11.233  20.497  0.00  0.00    +0.000 A 
ATOM     26  C   UNL     1      -0.622  10.706  21.588  0.00  0.00    +0.000 A 
ATOM     27  C   UNL     1      -0.947  11.133  22.974  0.00  0.00    +0.000 C 
ATOM     28  C   UNL     1      -2.275  11.931  23.012  0.00  0.00    +0.000 C 
ATOM     29  C   UNL     1      -2.413  12.927  21.839  0.00  0.00    +0.000 C 
ATOM     30  C   UNL     1      -2.359  12.222  20.467  0.00  0.00    +0.000 C 
ENDBRANCH  21  22
ENDBRANCH  19  21
ENDBRANCH   7  17
TORSDOF 4
ENDMDL
MODEL 8
REMARK VINA RESULT:      -8.5      1.194      1.552
REMARK  Name = 
REMARK  6 active torsions:
REMARK  status: ('A' for Active; 'I' for Inactive)
REMARK    1  A    between atoms: C_1  and  C_2
REMARK    2  A    between atoms: C_4  and  C_5
REMARK    3  A    between atoms: C_7  and  C_8
REMARK    4  A    between atoms: C_14  and  C_15
REMARK    5  A    between atoms: N_17  and  C_18
REMARK    6  A    between atoms: C_18  and  C_19
REMARK                            x       y       z     vdW  Elec       q    Type
REMARK                         _______ _______ _______ _____ _____    ______ ____
ROOT
ATOM      1  C   UNL     1       4.070   3.167  18.348  0.00  0.00    +0.000 C 
ATOM      2  O   UNL     1       3.936   1.954  18.172  0.00  0.00    +0.000 OA
ATOM      3  N   UNL     1       3.346   3.865  19.320  0.00  0.00    +0.000 N 
ATOM      4  C   UNL     1       2.506   3.094  20.235  0.00  0.00    +0.000 C 
ATOM      5  C   UNL     1       1.091   3.665  20.277  0.00  0.00    +0.000 C 
ATOM      6  C   UNL     1       1.088   5.169  20.574  0.00  0.00    +0.000 C 
ATOM      7  C   UNL     1       2.027   5.930  19.622  0.00  0.00    +0.000 C 
ATOM      8  C   UNL     1       3.429   5.292  19.679  0.00  0.00    +0.000 C 
ENDROOT
BRANCH   1  15
ATOM      9  C   UNL     1       7.700   6.574  18.061  0.00  0.00    +0.000 C 
ATOM     10  C   UNL     1       6.831   5.557  17.384  0.00  0.00    +0.000 A 
ATOM     11  C   UNL     1       6.896   5.359  15.999  0.00  0.00    +0.000 A 
ATOM     12  C   UNL     1       6.124   4.367  15.381  0.00  0.00    +0.000 A 
ATOM     13  C   UNL     1       6.117   4.204  13.890  0.00  0.00    +0.000 C 
ATOM     14  C   UNL     1       5.286   3.564  16.161  0.00  0.00    +0.000 A 
ATOM     15  C   UNL     1       5.102   3.843  17.515  0.00  0.00    +0.000 A 
ATOM     16  C   UNL     1       5.918   4.802  18.133  0.00  0.00    +0.000 A 
ENDBRANCH   1  15
BRANCH   7  17
ATOM     17  C   UNL     1       2.110   7.422  19.942  0.00  0.00    +0.000 C 
ATOM     18  O   UNL     1       2.706   8.220  19.223  0.00  0.00    +0.000 OA
ATOM     19  N   UNL     1       1.415   7.830  21.054  0.00  0.00    +0.000 N 
ATOM     20  H   UNL     1       1.052   7.157  21.725  0.00  0.00    +0.000 HD
BRANCH  19  21
ATOM     21  C   UNL     1       1.444   9.217  21.481  0.00  0.00    +0.000 C 
BRANCH  21  22
ATOM     22  C   UNL     1       0.353  10.008  20.835  0.00  0.00    +0.000 A 
ATOM     23  N   UNL     1       0.176   9.962  19.498  0.00  0.00    +0.000 NA
ATOM     24  O   UNL     1      -0.918  10.772  19.227  0.00  0.00    +0.000 OA
ATOM     25  C   UNL     1      -1.372  11.288  20.387  0.00  0.00    +0.000 A 
ATOM     26  C   UNL     1      -0.615  10.844  21.442  0.00  0.00    +0.000 A 
ATOM     27  C   UNL     1      -0.885  11.273  22.838  0.00  0.00    +0.000 C 
ATOM     28  C   UNL     1      -2.273  11.955  22.952  0.00  0.00    +0.000 C 
ATOM     29  C   UNL     1      -2.573  12.908  21.774  0.00  0.00    +0.000 C 
ATOM     30  C   UNL     1      -2.548  12.178  20.413  0.00  0.00    +0.000 C 
ENDBRANCH  21  22
ENDBRANCH  19  21
ENDBRANCH   7  17
TORSDOF 4
ENDMDL
MODEL 9
REMARK VINA RESULT:      -8.5      1.743      2.629
REMARK  Name = 
REMARK  6 active torsions:
REMARK  status: ('A' for Active; 'I' for Inactive)
REMARK    1  A    between atoms: C_1  and  C_2
REMARK    2  A    between atoms: C_4  and  C_5
REMARK    3  A    between atoms: C_7  and  C_8
REMARK    4  A    between atoms: C_14  and  C_15
REMARK    5  A    between atoms: N_17  and  C_18
REMARK    6  A    between atoms: C_18  and  C_19
REMARK                            x       y       z     vdW  Elec       q    Type
REMARK                         _______ _______ _______ _____ _____    ______ ____
ROOT
ATOM      1  C   UNL     1       4.183   3.531  18.294  0.00  0.00    +0.000 C 
ATOM      2  O   UNL     1       4.155   2.307  18.146  0.00  0.00    +0.000 OA
ATOM      3  N   UNL     1       3.485   4.174  19.322  0.00  0.00    +0.000 N 
ATOM      4  C   UNL     1       2.814   3.343  20.320  0.00  0.00    +0.000 C 
ATOM      5  C   UNL     1       1.359   3.773  20.488  0.00  0.00    +0.000 C 
ATOM      6  C   UNL     1       1.233   5.275  20.766  0.00  0.00    +0.000 C 
ATOM      7  C   UNL     1       2.000   6.105  19.722  0.00  0.00    +0.000 C 
ATOM      8  C   UNL     1       3.457   5.609  19.655  0.00  0.00    +0.000 C 
ENDROOT
BRANCH   1  15
ATOM      9  C   UNL     1       6.208   3.885  13.750  0.00  0.00    +0.000 C 
ATOM     10  C   UNL     1       6.087   4.405  15.151  0.00  0.00    +0.000 A 
ATOM     11  C   UNL     1       6.877   5.472  15.595  0.00  0.00    +0.000 A 
ATOM     12  C   UNL     1       6.718   5.991  16.887  0.00  0.00    +0.000 A 
ATOM     13  C   UNL     1       7.618   7.074  17.405  0.00  0.00    +0.000 C 
ATOM     14  C   UNL     1       5.753   5.439  17.735  0.00  0.00    +0.000 A 
ATOM     15  C   UNL     1       5.061   4.288  17.360  0.00  0.00    +0.000 A 
ATOM     16  C   UNL     1       5.190   3.808  16.048  0.00  0.00    +0.000 A 
ENDBRANCH   1  15
BRANCH   7  17
ATOM     17  C   UNL     1       1.962   7.604  20.015  0.00  0.00    +0.000 C 
ATOM     18  O   UNL     1       2.318   8.448  19.197  0.00  0.00    +0.000 OA
ATOM     19  N   UNL     1       1.437   7.957  21.235  0.00  0.00    +0.000 N 
ATOM     20  H   UNL     1       1.284   7.263  21.964  0.00  0.00    +0.000 HD
BRANCH  19  21
ATOM     21  C   UNL     1       1.379   9.348  21.644  0.00  0.00    +0.000 C 
BRANCH  21  22
ATOM     22  C   UNL     1       0.484  10.141  20.748  0.00  0.00    +0.000 A 
ATOM     23  N   UNL     1      -0.668   9.608  20.287  0.00  0.00    +0.000 NA
ATOM     24  O   UNL     1      -1.268  10.595  19.519  0.00  0.00    +0.000 OA
ATOM     25  C   UNL     1      -0.477  11.689  19.525  0.00  0.00    +0.000 A 
ATOM     26  C   UNL     1       0.643  11.470  20.285  0.00  0.00    +0.000 A 
ATOM     27  C   UNL     1       1.696  12.505  20.450  0.00  0.00    +0.000 C 
ATOM     28  C   UNL     1       1.193  13.891  19.970  0.00  0.00    +0.000 C 
ATOM     29  C   UNL     1       0.376  13.813  18.661  0.00  0.00    +0.000 C 
ATOM     30  C   UNL     1      -0.871  12.914  18.804  0.00  0.00    +0.000 C 
ENDBRANCH  21  22
ENDBRANCH  19  21
ENDBRANCH   7  17
TORSDOF 4
ENDMDL
