MODEL 1
REMARK VINA RESULT:      -8.4      0.000      0.000
REMARK  Name = 
REMARK  4 active torsions:
REMARK  status: ('A' for Active; 'I' for Inactive)
REMARK    1  A    between atoms: C_1  and  C_2
REMARK    2  A    between atoms: C_7  and  C_8
REMARK    3  A    between atoms: C_13  and  C_15
REMARK    4  A    between atoms: N_22  and  C_23
REMARK                            x       y       z     vdW  Elec       q    Type
REMARK                         _______ _______ _______ _____ _____    ______ ____
ROOT
ATOM      1  C   UNL     1       1.919   6.038  19.657  0.00  0.00    +0.000 C 
ATOM      2  F   UNL     1       1.229   5.531  18.582  0.00  0.00    +0.000 F 
ATOM      3  C   UNL     1       1.661   5.064  20.814  0.00  0.00    +0.000 C 
ATOM      4  C   UNL     1       2.753   4.000  20.696  0.00  0.00    +0.000 C 
ATOM      5  N   UNL     1       3.685   4.464  19.685  0.00  0.00    +0.000 N 
ATOM      6  C   UNL     1       4.498   3.578  19.003  0.00  0.00    +0.000 C 
ATOM      7  O   UNL     1       4.485   2.367  19.219  0.00  0.00    +0.000 OA
ATOM      8  C   UNL     1       3.403   5.846  19.330  0.00  0.00    +0.000 C 
ENDROOT
BRANCH   6   9
ATOM      9  C   UNL     1       5.389   4.085  17.917  0.00  0.00    +0.000 A 
ATOM     10  C   UNL     1       6.555   4.787  18.320  0.00  0.00    +0.000 A 
ATOM     11  C   UNL     1       7.445   5.306  17.379  0.00  0.00    +0.000 A 
ATOM     12  C   UNL     1       7.134   5.113  16.058  0.00  0.00    +0.000 A 
ATOM     13  N   UNL     1       7.852   5.499  14.936  0.00  0.00    +0.000 N 
ATOM     14  C   UNL     1       7.198   5.039  13.787  0.00  0.00    +0.000 A 
ATOM     15  O   UNL     1       7.603   5.148  12.643  0.00  0.00    +0.000 OA
ATOM     16  N   UNL     1       6.025   4.384  14.231  0.00  0.00    +0.000 N 
ATOM     17  C   UNL     1       5.286   3.505  13.375  0.00  0.00    +0.000 C 
ATOM     18  C   UNL     1       5.992   4.422  15.637  0.00  0.00    +0.000 A 
ATOM     19  C   UNL     1       5.088   3.914  16.550  0.00  0.00    +0.000 A 
ATOM     20  H   UNL     1       8.751   5.955  14.912  0.00  0.00    +0.000 HD
ENDBRANCH   6   9
BRANCH   1  27
ATOM     21  C   UNL     1       2.190   8.295  17.606  0.00  0.00    +0.000 C 
ATOM     22  C   UNL     1       1.719   8.532  19.017  0.00  0.00    +0.000 A 
ATOM     23  C   UNL     1       1.403   9.852  19.389  0.00  0.00    +0.000 A 
ATOM     24  C   UNL     1       0.989  10.160  20.684  0.00  0.00    +0.000 A 
ATOM     25  C   UNL     1       0.884   9.152  21.631  0.00  0.00    +0.000 A 
ATOM     26  C   UNL     1       1.176   7.837  21.275  0.00  0.00    +0.000 A 
ATOM     27  C   UNL     1       1.593   7.494  19.967  0.00  0.00    +0.000 A 
ENDBRANCH   1  27
TORSDOF 2
ENDMDL
MODEL 2
REMARK VINA RESULT:      -8.0      3.466      7.584
REMARK  Name = 
REMARK  4 active torsions:
REMARK  status: ('A' for Active; 'I' for Inactive)
REMARK    1  A    between atoms: C_1  and  C_2
REMARK    2  A    between atoms: C_7  and  C_8
REMARK    3  A    between atoms: C_13  and  C_15
REMARK    4  A    between atoms: N_22  and  C_23
REMARK                            x       y       z     vdW  Elec       q    Type
REMARK                         _______ _______ _______ _____ _____    ______ ____
ROOT
ATOM      1  C   UNL     1       5.117   5.015  18.242  0.00  0.00    +0.000 C 
ATOM      2  F   UNL     1       5.870   5.658  19.194  0.00  0.00    +0.000 F 
ATOM      3  C   UNL     1       4.682   3.689  18.880  0.00  0.00    +0.000 C 
ATOM      4  C   UNL     1       3.375   4.001  19.608  0.00  0.00    +0.000 C 
ATOM      5  N   UNL     1       2.990   5.347  19.223  0.00  0.00    +0.000 N 
ATOM      6  C   UNL     1       2.155   6.106  20.021  0.00  0.00    +0.000 C 
ATOM      7  O   UNL     1       1.690   5.688  21.080  0.00  0.00    +0.000 OA
ATOM      8  C   UNL     1       3.817   5.817  18.123  0.00  0.00    +0.000 C 
ENDROOT
BRANCH   6   9
ATOM      9  C   UNL     1       1.842   7.513  19.628  0.00  0.00    +0.000 A 
ATOM     10  C   UNL     1       2.115   7.879  18.285  0.00  0.00    +0.000 A 
ATOM     11  C   UNL     1       1.864   9.173  17.824  0.00  0.00    +0.000 A 
ATOM     12  C   UNL     1       1.356  10.066  18.731  0.00  0.00    +0.000 A 
ATOM     13  N   UNL     1       0.997  11.391  18.531  0.00  0.00    +0.000 N 
ATOM     14  C   UNL     1       0.460  11.909  19.715  0.00  0.00    +0.000 A 
ATOM     15  O   UNL     1      -0.016  13.021  19.856  0.00  0.00    +0.000 OA
ATOM     16  N   UNL     1       0.531  10.870  20.673  0.00  0.00    +0.000 N 
ATOM     17  C   UNL     1      -0.221  10.919  21.891  0.00  0.00    +0.000 C 
ATOM     18  C   UNL     1       1.077   9.727  20.060  0.00  0.00    +0.000 A 
ATOM     19  C   UNL     1       1.333   8.458  20.543  0.00  0.00    +0.000 A 
ATOM     20  H   UNL     1       1.015  11.905  17.664  0.00  0.00    +0.000 HD
ENDBRANCH   6   9
BRANCH   1  27
ATOM     21  C   UNL     1       7.391   6.851  17.330  0.00  0.00    +0.000 C 
ATOM     22  C   UNL     1       6.868   5.723  16.480  0.00  0.00    +0.000 A 
ATOM     23  C   UNL     1       7.457   5.527  15.216  0.00  0.00    +0.000 A 
ATOM     24  C   UNL     1       7.010   4.525  14.357  0.00  0.00    +0.000 A 
ATOM     25  C   UNL     1       5.966   3.700  14.747  0.00  0.00    +0.000 A 
ATOM     26  C   UNL     1       5.382   3.869  16.001  0.00  0.00    +0.000 A 
ATOM     27  C   UNL     1       5.818   4.873  16.896  0.00  0.00    +0.000 A 
ENDBRANCH   1  27
TORSDOF 2
ENDMDL
MODEL 3
REMARK VINA RESULT:      -7.5      0.750      1.538
REMARK  Name = 
REMARK  4 active torsions:
REMARK  status: ('A' for Active; 'I' for Inactive)
REMARK    1  A    between atoms: C_1  and  C_2
REMARK    2  A    between atoms: C_7  and  C_8
REMARK    3  A    between atoms: C_13  and  C_15
REMARK    4  A    between atoms: N_22  and  C_23
REMARK                            x       y       z     vdW  Elec       q    Type
REMARK                         _______ _______ _______ _____ _____    ______ ____
ROOT
ATOM      1  C   UNL     1       2.123   6.633  18.966  0.00  0.00    +0.000 C 
ATOM      2  F   UNL     1       1.402   5.977  17.997  0.00  0.00    +0.000 F 
ATOM      3  C   UNL     1       1.864   5.866  20.269  0.00  0.00    +0.000 C 
ATOM      4  C   UNL     1       2.929   4.770  20.310  0.00  0.00    +0.000 C 
ATOM      5  N   UNL     1       3.853   5.041  19.224  0.00  0.00    +0.000 N 
ATOM      6  C   UNL     1       4.634   4.036  18.684  0.00  0.00    +0.000 C 
ATOM      7  O   UNL     1       4.598   2.877  19.094  0.00  0.00    +0.000 OA
ATOM      8  C   UNL     1       3.596   6.353  18.654  0.00  0.00    +0.000 C 
ENDROOT
BRANCH   6   9
ATOM      9  C   UNL     1       5.517   4.338  17.518  0.00  0.00    +0.000 A 
ATOM     10  C   UNL     1       6.785   4.907  17.804  0.00  0.00    +0.000 A 
ATOM     11  C   UNL     1       7.678   5.232  16.782  0.00  0.00    +0.000 A 
ATOM     12  C   UNL     1       7.266   4.985  15.498  0.00  0.00    +0.000 A 
ATOM     13  N   UNL     1       7.960   5.189  14.314  0.00  0.00    +0.000 N 
ATOM     14  C   UNL     1       7.185   4.737  13.240  0.00  0.00    +0.000 A 
ATOM     15  O   UNL     1       7.532   4.706  12.073  0.00  0.00    +0.000 OA
ATOM     16  N   UNL     1       5.966   4.278  13.793  0.00  0.00    +0.000 N 
ATOM     17  C   UNL     1       5.070   3.445  13.048  0.00  0.00    +0.000 C 
ATOM     18  C   UNL     1       6.022   4.423  15.192  0.00  0.00    +0.000 A 
ATOM     19  C   UNL     1       5.115   4.110  16.185  0.00  0.00    +0.000 A 
ATOM     20  H   UNL     1       8.907   5.517  14.210  0.00  0.00    +0.000 HD
ENDBRANCH   6   9
BRANCH   1  27
ATOM     21  C   UNL     1       0.831   7.976  21.395  0.00  0.00    +0.000 C 
ATOM     22  C   UNL     1       1.239   8.742  20.164  0.00  0.00    +0.000 A 
ATOM     23  C   UNL     1       0.999  10.130  20.148  0.00  0.00    +0.000 A 
ATOM     24  C   UNL     1       1.318  10.906  19.035  0.00  0.00    +0.000 A 
ATOM     25  C   UNL     1       1.883  10.309  17.919  0.00  0.00    +0.000 A 
ATOM     26  C   UNL     1       2.142   8.940  17.924  0.00  0.00    +0.000 A 
ATOM     27  C   UNL     1       1.834   8.128  19.041  0.00  0.00    +0.000 A 
ENDBRANCH   1  27
TORSDOF 2
ENDMDL
MODEL 4
REMARK VINA RESULT:      -7.5      4.031      8.343
REMARK  Name = 
REMARK  4 active torsions:
REMARK  status: ('A' for Active; 'I' for Inactive)
REMARK    1  A    between atoms: C_1  and  C_2
REMARK    2  A    between atoms: C_7  and  C_8
REMARK    3  A    between atoms: C_13  and  C_15
REMARK    4  A    between atoms: N_22  and  C_23
REMARK                            x       y       z     vdW  Elec       q    Type
REMARK                         _______ _______ _______ _____ _____    ______ ____
ROOT
ATOM      1  C   UNL     1       2.222   5.604  18.491  0.00  0.00    +0.000 C 
ATOM      2  F   UNL     1       1.221   5.565  17.551  0.00  0.00    +0.000 F 
ATOM      3  C   UNL     1       3.528   5.763  17.703  0.00  0.00    +0.000 C 
ATOM      4  C   UNL     1       3.716   7.271  17.534  0.00  0.00    +0.000 C 
ATOM      5  N   UNL     1       2.709   7.915  18.356  0.00  0.00    +0.000 N 
ATOM      6  C   UNL     1       2.288   9.204  18.089  0.00  0.00    +0.000 C 
ATOM      7  O   UNL     1       2.744   9.872  17.162  0.00  0.00    +0.000 OA
ATOM      8  C   UNL     1       2.059   6.942  19.219  0.00  0.00    +0.000 C 
ENDROOT
BRANCH   6   9
ATOM      9  C   UNL     1       1.196   9.806  18.913  0.00  0.00    +0.000 A 
ATOM     10  C   UNL     1       0.178  10.506  18.215  0.00  0.00    +0.000 A 
ATOM     11  C   UNL     1      -0.880  11.109  18.896  0.00  0.00    +0.000 A 
ATOM     12  C   UNL     1      -0.879  11.001  20.262  0.00  0.00    +0.000 A 
ATOM     13  N   UNL     1      -1.815  11.480  21.168  0.00  0.00    +0.000 N 
ATOM     14  C   UNL     1      -1.453  11.086  22.460  0.00  0.00    +0.000 A 
ATOM     15  O   UNL     1      -2.099  11.283  23.474  0.00  0.00    +0.000 OA
ATOM     16  N   UNL     1      -0.236  10.374  22.334  0.00  0.00    +0.000 N 
ATOM     17  C   UNL     1       0.258   9.540  23.388  0.00  0.00    +0.000 C 
ATOM     18  C   UNL     1       0.112  10.314  20.972  0.00  0.00    +0.000 A 
ATOM     19  C   UNL     1       1.178   9.724  20.321  0.00  0.00    +0.000 A 
ATOM     20  H   UNL     1      -2.678  11.957  20.959  0.00  0.00    +0.000 HD
ENDBRANCH   6   9
BRANCH   1  27
ATOM     21  C   UNL     1       2.321   2.681  17.586  0.00  0.00    +0.000 C 
ATOM     22  C   UNL     1       2.249   3.080  19.036  0.00  0.00    +0.000 A 
ATOM     23  C   UNL     1       2.220   2.052  19.998  0.00  0.00    +0.000 A 
ATOM     24  C   UNL     1       2.123   2.336  21.359  0.00  0.00    +0.000 A 
ATOM     25  C   UNL     1       2.054   3.654  21.783  0.00  0.00    +0.000 A 
ATOM     26  C   UNL     1       2.099   4.685  20.847  0.00  0.00    +0.000 A 
ATOM     27  C   UNL     1       2.203   4.427  19.460  0.00  0.00    +0.000 A 
ENDBRANCH   1  27
TORSDOF 2
ENDMDL
MODEL 5
REMARK VINA RESULT:      -7.3      2.406      3.966
REMARK  Name = 
REMARK  4 active torsions:
REMARK  status: ('A' for Active; 'I' for Inactive)
REMARK    1  A    between atoms: C_1  and  C_2
REMARK    2  A    between atoms: C_7  and  C_8
REMARK    3  A    between atoms: C_13  and  C_15
REMARK    4  A    between atoms: N_22  and  C_23
REMARK                            x       y       z     vdW  Elec       q    Type
REMARK                         _______ _______ _______ _____ _____    ______ ____
ROOT
ATOM      1  C   UNL     1       0.795   9.596  19.317  0.00  0.00    +0.000 C 
ATOM      2  F   UNL     1      -0.175   8.979  18.564  0.00  0.00    +0.000 F 
ATOM      3  C   UNL     1       0.340   9.459  20.776  0.00  0.00    +0.000 C 
ATOM      4  C   UNL     1       0.911   8.123  21.253  0.00  0.00    +0.000 C 
ATOM      5  N   UNL     1       1.804   7.652  20.210  0.00  0.00    +0.000 N 
ATOM      6  C   UNL     1       2.113   6.310  20.088  0.00  0.00    +0.000 C 
ATOM      7  O   UNL     1       1.664   5.455  20.849  0.00  0.00    +0.000 OA
ATOM      8  C   UNL     1       2.032   8.697  19.225  0.00  0.00    +0.000 C 
ENDROOT
BRANCH   6   9
ATOM      9  C   UNL     1       2.976   5.855  18.957  0.00  0.00    +0.000 A 
ATOM     10  C   UNL     1       2.439   4.861  18.099  0.00  0.00    +0.000 A 
ATOM     11  C   UNL     1       3.172   4.365  17.020  0.00  0.00    +0.000 A 
ATOM     12  C   UNL     1       4.431   4.876  16.840  0.00  0.00    +0.000 A 
ATOM     13  N   UNL     1       5.349   4.580  15.843  0.00  0.00    +0.000 N 
ATOM     14  C   UNL     1       6.483   5.384  16.004  0.00  0.00    +0.000 A 
ATOM     15  O   UNL     1       7.444   5.422  15.256  0.00  0.00    +0.000 OA
ATOM     16  N   UNL     1       6.256   6.167  17.161  0.00  0.00    +0.000 N 
ATOM     17  C   UNL     1       7.041   7.331  17.445  0.00  0.00    +0.000 C 
ATOM     18  C   UNL     1       4.981   5.858  17.671  0.00  0.00    +0.000 A 
ATOM     19  C   UNL     1       4.281   6.351  18.755  0.00  0.00    +0.000 A 
ATOM     20  H   UNL     1       5.220   3.962  15.057  0.00  0.00    +0.000 HD
ENDBRANCH   6   9
BRANCH   1  27
ATOM     21  C   UNL     1      -1.268  11.856  19.402  0.00  0.00    +0.000 C 
ATOM     22  C   UNL     1       0.144  12.063  18.920  0.00  0.00    +0.000 A 
ATOM     23  C   UNL     1       0.507  13.353  18.488  0.00  0.00    +0.000 A 
ATOM     24  C   UNL     1       1.784  13.620  17.998  0.00  0.00    +0.000 A 
ATOM     25  C   UNL     1       2.723  12.601  17.932  0.00  0.00    +0.000 A 
ATOM     26  C   UNL     1       2.386  11.322  18.371  0.00  0.00    +0.000 A 
ATOM     27  C   UNL     1       1.100  11.023  18.878  0.00  0.00    +0.000 A 
ENDBRANCH   1  27
TORSDOF 2
ENDMDL
MODEL 6
REMARK VINA RESULT:      -7.2      6.063      9.343
REMARK  Name = 
REMARK  4 active torsions:
REMARK  status: ('A' for Active; 'I' for Inactive)
REMARK    1  A    between atoms: C_1  and  C_2
REMARK    2  A    between atoms: C_7  and  C_8
REMARK    3  A    between atoms: C_13  and  C_15
REMARK    4  A    between atoms: N_22  and  C_23
REMARK                            x       y       z     vdW  Elec       q    Type
REMARK                         _______ _______ _______ _____ _____    ______ ____
ROOT
ATOM      1  C   UNL     1      -3.932  12.803  20.880  0.00  0.00    +0.000 C 
ATOM      2  F   UNL     1      -4.137  12.396  22.176  0.00  0.00    +0.000 F 
ATOM      3  C   UNL     1      -3.647  14.309  20.956  0.00  0.00    +0.000 C 
ATOM      4  C   UNL     1      -2.137  14.423  21.162  0.00  0.00    +0.000 C 
ATOM      5  N   UNL     1      -1.587  13.091  20.992  0.00  0.00    +0.000 N 
ATOM      6  C   UNL     1      -0.372  12.744  21.554  0.00  0.00    +0.000 C 
ATOM      7  O   UNL     1       0.305  13.534  22.209  0.00  0.00    +0.000 OA
ATOM      8  C   UNL     1      -2.594  12.190  20.455  0.00  0.00    +0.000 C 
ENDROOT
BRANCH   6   9
ATOM      9  C   UNL     1       0.125  11.341  21.419  0.00  0.00    +0.000 A 
ATOM     10  C   UNL     1      -0.053  10.488  22.539  0.00  0.00    +0.000 A 
ATOM     11  C   UNL     1       0.386   9.163  22.513  0.00  0.00    +0.000 A 
ATOM     12  C   UNL     1       1.000   8.736  21.365  0.00  0.00    +0.000 A 
ATOM     13  N   UNL     1       1.501   7.476  21.070  0.00  0.00    +0.000 N 
ATOM     14  C   UNL     1       1.984   7.466  19.757  0.00  0.00    +0.000 A 
ATOM     15  O   UNL     1       2.424   6.496  19.165  0.00  0.00    +0.000 OA
ATOM     16  N   UNL     1       1.802   8.777  19.254  0.00  0.00    +0.000 N 
ATOM     17  C   UNL     1       1.869   9.058  17.851  0.00  0.00    +0.000 C 
ATOM     18  C   UNL     1       1.184   9.558  20.247  0.00  0.00    +0.000 A 
ATOM     19  C   UNL     1       0.774  10.878  20.256  0.00  0.00    +0.000 A 
ATOM     20  H   UNL     1       1.455   6.650  21.646  0.00  0.00    +0.000 HD
ENDBRANCH   6   9
BRANCH   1  27
ATOM     21  C   UNL     1      -6.893  12.908  21.651  0.00  0.00    +0.000 C 
ATOM     22  C   UNL     1      -6.423  12.467  20.289  0.00  0.00    +0.000 A 
ATOM     23  C   UNL     1      -7.401  12.085  19.351  0.00  0.00    +0.000 A 
ATOM     24  C   UNL     1      -7.047  11.636  18.080  0.00  0.00    +0.000 A 
ATOM     25  C   UNL     1      -5.710  11.561  17.723  0.00  0.00    +0.000 A 
ATOM     26  C   UNL     1      -4.730  11.951  18.634  0.00  0.00    +0.000 A 
ATOM     27  C   UNL     1      -5.058  12.416  19.928  0.00  0.00    +0.000 A 
ENDBRANCH   1  27
TORSDOF 2
ENDMDL
MODEL 7
REMARK VINA RESULT:      -7.2      4.120      8.542
REMARK  Name = 
REMARK  4 active torsions:
REMARK  status: ('A' for Active; 'I' for Inactive)
REMARK    1  A    between atoms: C_1  and  C_2
REMARK    2  A    between atoms: C_7  and  C_8
REMARK    3  A    between atoms: C_13  and  C_15
REMARK    4  A    between atoms: N_22  and  C_23
REMARK                            x       y       z     vdW  Elec       q    Type
REMARK                         _______ _______ _______ _____ _____    ______ ____
ROOT
ATOM      1  C   UNL     1       2.640   5.421  18.523  0.00  0.00    +0.000 C 
ATOM      2  F   UNL     1       1.392   5.252  17.974  0.00  0.00    +0.000 F 
ATOM      3  C   UNL     1       3.552   5.842  17.362  0.00  0.00    +0.000 C 
ATOM      4  C   UNL     1       3.445   7.366  17.298  0.00  0.00    +0.000 C 
ATOM      5  N   UNL     1       2.704   7.785  18.475  0.00  0.00    +0.000 N 
ATOM      6  C   UNL     1       2.032   8.993  18.501  0.00  0.00    +0.000 C 
ATOM      7  O   UNL     1       2.032   9.773  17.550  0.00  0.00    +0.000 OA
ATOM      8  C   UNL     1       2.547   6.674  19.399  0.00  0.00    +0.000 C 
ENDROOT
BRANCH   6   9
ATOM      9  C   UNL     1       1.220   9.355  19.702  0.00  0.00    +0.000 A 
ATOM     10  C   UNL     1       1.335   8.507  20.834  0.00  0.00    +0.000 A 
ATOM     11  C   UNL     1       0.610   8.758  22.000  0.00  0.00    +0.000 A 
ATOM     12  C   UNL     1      -0.219   9.849  21.991  0.00  0.00    +0.000 A 
ATOM     13  N   UNL     1      -1.022  10.332  23.014  0.00  0.00    +0.000 N 
ATOM     14  C   UNL     1      -1.651  11.509  22.593  0.00  0.00    +0.000 A 
ATOM     15  O   UNL     1      -2.366  12.221  23.276  0.00  0.00    +0.000 OA
ATOM     16  N   UNL     1      -1.241  11.724  21.256  0.00  0.00    +0.000 N 
ATOM     17  C   UNL     1      -1.412  12.992  20.613  0.00  0.00    +0.000 C 
ATOM     18  C   UNL     1      -0.347  10.701  20.888  0.00  0.00    +0.000 A 
ATOM     19  C   UNL     1       0.347  10.463  19.718  0.00  0.00    +0.000 A 
ATOM     20  H   UNL     1      -1.094   9.976  23.955  0.00  0.00    +0.000 HD
ENDBRANCH   6   9
BRANCH   1  27
ATOM     21  C   UNL     1       0.969   4.021  20.672  0.00  0.00    +0.000 C 
ATOM     22  C   UNL     1       2.358   3.572  20.302  0.00  0.00    +0.000 A 
ATOM     23  C   UNL     1       2.894   2.466  20.991  0.00  0.00    +0.000 A 
ATOM     24  C   UNL     1       4.184   2.007  20.730  0.00  0.00    +0.000 A 
ATOM     25  C   UNL     1       4.961   2.645  19.776  0.00  0.00    +0.000 A 
ATOM     26  C   UNL     1       4.441   3.730  19.073  0.00  0.00    +0.000 A 
ATOM     27  C   UNL     1       3.134   4.214  19.312  0.00  0.00    +0.000 A 
ENDBRANCH   1  27
TORSDOF 2
ENDMDL
MODEL 8
REMARK VINA RESULT:      -7.0      4.463      8.143
REMARK  Name = 
REMARK  4 active torsions:
REMARK  status: ('A' for Active; 'I' for Inactive)
REMARK    1  A    between atoms: C_1  and  C_2
REMARK    2  A    between atoms: C_7  and  C_8
REMARK    3  A    between atoms: C_13  and  C_15
REMARK    4  A    between atoms: N_22  and  C_23
REMARK                            x       y       z     vdW  Elec       q    Type
REMARK                         _______ _______ _______ _____ _____    ______ ____
ROOT
ATOM      1  C   UNL     1       2.239   5.638  18.460  0.00  0.00    +0.000 C 
ATOM      2  F   UNL     1       1.386   5.568  17.385  0.00  0.00    +0.000 F 
ATOM      3  C   UNL     1       3.644   5.799  17.866  0.00  0.00    +0.000 C 
ATOM      4  C   UNL     1       3.839   7.306  17.695  0.00  0.00    +0.000 C 
ATOM      5  N   UNL     1       2.716   7.952  18.350  0.00  0.00    +0.000 N 
ATOM      6  C   UNL     1       2.326   9.231  17.998  0.00  0.00    +0.000 C 
ATOM      7  O   UNL     1       2.904   9.887  17.134  0.00  0.00    +0.000 OA
ATOM      8  C   UNL     1       1.959   6.987  19.129  0.00  0.00    +0.000 C 
ENDROOT
BRANCH   6   9
ATOM      9  C   UNL     1       1.120   9.833  18.642  0.00  0.00    +0.000 A 
ATOM     10  C   UNL     1       1.215  10.137  20.025  0.00  0.00    +0.000 A 
ATOM     11  C   UNL     1       0.139  10.694  20.717  0.00  0.00    +0.000 A 
ATOM     12  C   UNL     1      -1.008  10.921  20.001  0.00  0.00    +0.000 A 
ATOM     13  N   UNL     1      -2.200  11.482  20.435  0.00  0.00    +0.000 N 
ATOM     14  C   UNL     1      -3.083  11.586  19.354  0.00  0.00    +0.000 A 
ATOM     15  O   UNL     1      -4.187  12.100  19.380  0.00  0.00    +0.000 OA
ATOM     16  N   UNL     1      -2.412  11.034  18.237  0.00  0.00    +0.000 N 
ATOM     17  C   UNL     1      -2.866  11.267  16.898  0.00  0.00    +0.000 C 
ATOM     18  C   UNL     1      -1.125  10.632  18.637  0.00  0.00    +0.000 A 
ATOM     19  C   UNL     1      -0.079  10.064  17.935  0.00  0.00    +0.000 A 
ATOM     20  H   UNL     1      -2.404  11.855  21.349  0.00  0.00    +0.000 HD
ENDBRANCH   6   9
BRANCH   1  27
ATOM     21  C   UNL     1       2.131   2.705  17.589  0.00  0.00    +0.000 C 
ATOM     22  C   UNL     1       2.043   3.128  19.032  0.00  0.00    +0.000 A 
ATOM     23  C   UNL     1       1.898   2.118  20.002  0.00  0.00    +0.000 A 
ATOM     24  C   UNL     1       1.779   2.427  21.356  0.00  0.00    +0.000 A 
ATOM     25  C   UNL     1       1.803   3.752  21.764  0.00  0.00    +0.000 A 
ATOM     26  C   UNL     1       1.963   4.763  20.819  0.00  0.00    +0.000 A 
ATOM     27  C   UNL     1       2.092   4.480  19.439  0.00  0.00    +0.000 A 
ENDBRANCH   1  27
TORSDOF 2
ENDMDL
MODEL 9
REMARK VINA RESULT:      -7.0      8.129     10.982
REMARK  Name = 
REMARK  4 active torsions:
REMARK  status: ('A' for Active; 'I' for Inactive)
REMARK    1  A    between atoms: C_1  and  C_2
REMARK    2  A    between atoms: C_7  and  C_8
REMARK    3  A    between atoms: C_13  and  C_15
REMARK    4  A    between atoms: N_22  and  C_23
REMARK                            x       y       z     vdW  Elec       q    Type
REMARK                         _______ _______ _______ _____ _____    ______ ____
ROOT
ATOM      1  C   UNL     1       0.981  14.200  19.559  0.00  0.00    +0.000 C 
ATOM      2  F   UNL     1       0.186  14.548  20.624  0.00  0.00    +0.000 F 
ATOM      3  C   UNL     1       2.106  13.336  20.145  0.00  0.00    +0.000 C 
ATOM      4  C   UNL     1       1.567  11.905  20.125  0.00  0.00    +0.000 C 
ATOM      5  N   UNL     1       0.321  11.936  19.381  0.00  0.00    +0.000 N 
ATOM      6  C   UNL     1      -0.642  10.961  19.562  0.00  0.00    +0.000 C 
ATOM      7  O   UNL     1      -0.496  10.022  20.344  0.00  0.00    +0.000 OA
ATOM      8  C   UNL     1       0.155  13.220  18.721  0.00  0.00    +0.000 C 
ENDROOT
BRANCH   6   9
ATOM      9  C   UNL     1      -1.941  11.068  18.833  0.00  0.00    +0.000 A 
ATOM     10  C   UNL     1      -2.071  10.311  17.639  0.00  0.00    +0.000 A 
ATOM     11  C   UNL     1      -3.243  10.351  16.883  0.00  0.00    +0.000 A 
ATOM     12  C   UNL     1      -4.250  11.160  17.344  0.00  0.00    +0.000 A 
ATOM     13  N   UNL     1      -5.512  11.360  16.804  0.00  0.00    +0.000 N 
ATOM     14  C   UNL     1      -6.241  12.217  17.636  0.00  0.00    +0.000 A 
ATOM     15  O   UNL     1      -7.406  12.539  17.486  0.00  0.00    +0.000 OA
ATOM     16  N   UNL     1      -5.375  12.576  18.696  0.00  0.00    +0.000 N 
ATOM     17  C   UNL     1      -5.870  13.165  19.904  0.00  0.00    +0.000 C 
ATOM     18  C   UNL     1      -4.147  11.912  18.519  0.00  0.00    +0.000 A 
ATOM     19  C   UNL     1      -2.990  11.902  19.274  0.00  0.00    +0.000 A 
ATOM     20  H   UNL     1      -5.911  10.906  15.997  0.00  0.00    +0.000 HD
ENDBRANCH   6   9
BRANCH   1  27
ATOM     21  C   UNL     1      -0.747  16.667  19.011  0.00  0.00    +0.000 C 
ATOM     22  C   UNL     1       0.657  16.525  18.484  0.00  0.00    +0.000 A 
ATOM     23  C   UNL     1       1.172  17.578  17.703  0.00  0.00    +0.000 A 
ATOM     24  C   UNL     1       2.451  17.510  17.152  0.00  0.00    +0.000 A 
ATOM     25  C   UNL     1       3.237  16.390  17.373  0.00  0.00    +0.000 A 
ATOM     26  C   UNL     1       2.749  15.347  18.157  0.00  0.00    +0.000 A 
ATOM     27  C   UNL     1       1.458  15.389  18.733  0.00  0.00    +0.000 A 
ENDBRANCH   1  27
TORSDOF 2
ENDMDL
