MODEL 1
REMARK VINA RESULT:      -8.4      0.000      0.000
REMARK  Name = 
REMARK  4 active torsions:
REMARK  status: ('A' for Active; 'I' for Inactive)
REMARK    1  A    between atoms: C_1  and  C_2
REMARK    2  A    between atoms: C_7  and  N_8
REMARK    3  A    between atoms: C_9  and  C_11
REMARK    4  A    between atoms: C_17  and  C_19
REMARK                            x       y       z     vdW  Elec       q    Type
REMARK                         _______ _______ _______ _____ _____    ______ ____
ROOT
ATOM      1  N   UNL     1       1.882   7.588  18.373  0.00  0.00    +0.000 N 
ATOM      2  C   UNL     1       2.285   6.715  19.370  0.00  0.00    +0.000 C 
ATOM      3  O   UNL     1       2.399   6.992  20.565  0.00  0.00    +0.000 OA
ATOM      4  H   UNL     1       1.497   7.165  17.538  0.00  0.00    +0.000 HD
ENDROOT
BRANCH   1  11
ATOM      5  C   UNL     1       0.473  14.106  19.766  0.00  0.00    +0.000 C 
ATOM      6  C   UNL     1       1.243  13.132  18.957  0.00  0.00    +0.000 A 
ATOM      7  N   UNL     1       2.144  13.562  18.062  0.00  0.00    +0.000 NA
ATOM      8  N   UNL     1       2.652  12.430  17.550  0.00  0.00    +0.000 N 
ATOM      9  C   UNL     1       2.104  11.289  18.063  0.00  0.00    +0.000 A 
ATOM     10  C   UNL     1       2.368   9.935  17.802  0.00  0.00    +0.000 A 
ATOM     11  C   UNL     1       1.661   8.975  18.533  0.00  0.00    +0.000 A 
ATOM     12  C   UNL     1       0.688   9.382  19.456  0.00  0.00    +0.000 A 
ATOM     13  C   UNL     1       0.434  10.743  19.703  0.00  0.00    +0.000 A 
ATOM     14  C   UNL     1       1.169  11.712  18.996  0.00  0.00    +0.000 A 
ATOM     15  H   UNL     1       3.381  12.499  16.850  0.00  0.00    +0.000 HD
ENDBRANCH   1  11
BRANCH   2  16
ATOM     16  C   UNL     1       2.551   5.253  18.908  0.00  0.00    +0.000 C 
ATOM     17  C   UNL     1       3.045   4.275  19.984  0.00  0.00    +0.000 C 
ATOM     18  C   UNL     1       2.837   2.826  19.506  0.00  0.00    +0.000 C 
ATOM     19  C   UNL     1       3.444   2.602  18.118  0.00  0.00    +0.000 C 
ATOM     20  C   UNL     1       2.956   3.656  17.112  0.00  0.00    +0.000 C 
ATOM     21  N   UNL     1       3.251   4.990  17.632  0.00  0.00    +0.000 N 
ATOM     22  C   UNL     1       4.367   5.766  17.290  0.00  0.00    +0.000 C 
ATOM     23  O   UNL     1       4.637   6.811  17.881  0.00  0.00    +0.000 OA
BRANCH  22  24
ATOM     24  C   UNL     1       5.297   5.383  16.193  0.00  0.00    +0.000 A 
ATOM     25  C   UNL     1       4.943   4.562  15.121  0.00  0.00    +0.000 A 
ATOM     26  C   UNL     1       5.884   4.181  14.170  0.00  0.00    +0.000 A 
ATOM     27  C   UNL     1       7.188   4.599  14.348  0.00  0.00    +0.000 A 
ATOM     28  N   UNL     1       7.590   5.362  15.385  0.00  0.00    +0.000 NA
ATOM     29  C   UNL     1       6.639   5.725  16.293  0.00  0.00    +0.000 A 
ENDBRANCH  22  24
ENDBRANCH   2  16
TORSDOF 3
ENDMDL
MODEL 2
REMARK VINA RESULT:      -8.1      3.106      8.933
REMARK  Name = 
REMARK  4 active torsions:
REMARK  status: ('A' for Active; 'I' for Inactive)
REMARK    1  A    between atoms: C_1  and  C_2
REMARK    2  A    between atoms: C_7  and  N_8
REMARK    3  A    between atoms: C_9  and  C_11
REMARK    4  A    between atoms: C_17  and  C_19
REMARK                            x       y       z     vdW  Elec       q    Type
REMARK                         _______ _______ _______ _____ _____    ______ ____
ROOT
ATOM      1  N   UNL     1       1.518   8.863  19.571  0.00  0.00    +0.000 N 
ATOM      2  C   UNL     1       1.524   9.867  18.617  0.00  0.00    +0.000 C 
ATOM      3  O   UNL     1       1.894   9.746  17.448  0.00  0.00    +0.000 OA
ATOM      4  H   UNL     1       0.882   8.990  20.349  0.00  0.00    +0.000 HD
ENDROOT
BRANCH   1  11
ATOM      5  C   UNL     1       3.647   2.398  19.293  0.00  0.00    +0.000 C 
ATOM      6  C   UNL     1       3.635   3.745  18.675  0.00  0.00    +0.000 A 
ATOM      7  N   UNL     1       4.254   3.954  17.504  0.00  0.00    +0.000 NA
ATOM      8  N   UNL     1       4.017   5.250  17.244  0.00  0.00    +0.000 N 
ATOM      9  C   UNL     1       3.289   5.890  18.207  0.00  0.00    +0.000 A 
ATOM     10  C   UNL     1       2.834   7.215  18.298  0.00  0.00    +0.000 A 
ATOM     11  C   UNL     1       2.057   7.567  19.406  0.00  0.00    +0.000 A 
ATOM     12  C   UNL     1       1.800   6.619  20.406  0.00  0.00    +0.000 A 
ATOM     13  C   UNL     1       2.268   5.296  20.301  0.00  0.00    +0.000 A 
ATOM     14  C   UNL     1       3.018   4.928  19.169  0.00  0.00    +0.000 A 
ATOM     15  H   UNL     1       4.377   5.646  16.384  0.00  0.00    +0.000 HD
ENDBRANCH   1  11
BRANCH   2  16
ATOM     16  C   UNL     1       0.951  11.236  19.085  0.00  0.00    +0.000 C 
ATOM     17  C   UNL     1       0.993  11.514  20.594  0.00  0.00    +0.000 C 
ATOM     18  C   UNL     1       0.819  13.023  20.851  0.00  0.00    +0.000 C 
ATOM     19  C   UNL     1      -0.419  13.573  20.138  0.00  0.00    +0.000 C 
ATOM     20  C   UNL     1      -0.426  13.200  18.648  0.00  0.00    +0.000 C 
ATOM     21  N   UNL     1      -0.316  11.748  18.515  0.00  0.00    +0.000 N 
ATOM     22  C   UNL     1      -1.389  10.866  18.327  0.00  0.00    +0.000 C 
ATOM     23  O   UNL     1      -1.243   9.645  18.381  0.00  0.00    +0.000 OA
BRANCH  22  24
ATOM     24  C   UNL     1      -2.771  11.342  18.049  0.00  0.00    +0.000 A 
ATOM     25  C   UNL     1      -3.642  11.821  19.029  0.00  0.00    +0.000 A 
ATOM     26  C   UNL     1      -4.949  12.179  18.712  0.00  0.00    +0.000 A 
ATOM     27  C   UNL     1      -5.369  11.999  17.409  0.00  0.00    +0.000 A 
ATOM     28  N   UNL     1      -4.579  11.507  16.433  0.00  0.00    +0.000 NA
ATOM     29  C   UNL     1      -3.301  11.175  16.777  0.00  0.00    +0.000 A 
ENDBRANCH  22  24
ENDBRANCH   2  16
TORSDOF 3
ENDMDL
MODEL 3
REMARK VINA RESULT:      -8.1      0.989      1.149
REMARK  Name = 
REMARK  4 active torsions:
REMARK  status: ('A' for Active; 'I' for Inactive)
REMARK    1  A    between atoms: C_1  and  C_2
REMARK    2  A    between atoms: C_7  and  N_8
REMARK    3  A    between atoms: C_9  and  C_11
REMARK    4  A    between atoms: C_17  and  C_19
REMARK                            x       y       z     vdW  Elec       q    Type
REMARK                         _______ _______ _______ _____ _____    ______ ____
ROOT
ATOM      1  N   UNL     1       1.539   8.234  18.442  0.00  0.00    +0.000 N 
ATOM      2  C   UNL     1       1.891   7.442  19.522  0.00  0.00    +0.000 C 
ATOM      3  O   UNL     1       2.020   7.828  20.685  0.00  0.00    +0.000 OA
ATOM      4  H   UNL     1       1.132   7.753  17.649  0.00  0.00    +0.000 HD
ENDROOT
BRANCH   1  11
ATOM      5  C   UNL     1       0.277  14.906  18.981  0.00  0.00    +0.000 C 
ATOM      6  C   UNL     1       1.216  13.833  18.574  0.00  0.00    +0.000 A 
ATOM      7  N   UNL     1       2.432  14.145  18.104  0.00  0.00    +0.000 NA
ATOM      8  N   UNL     1       2.999  12.951  17.868  0.00  0.00    +0.000 N 
ATOM      9  C   UNL     1       2.193  11.884  18.149  0.00  0.00    +0.000 A 
ATOM     10  C   UNL     1       2.418  10.502  18.051  0.00  0.00    +0.000 A 
ATOM     11  C   UNL     1       1.397   9.640  18.463  0.00  0.00    +0.000 A 
ATOM     12  C   UNL     1       0.177  10.169  18.908  0.00  0.00    +0.000 A 
ATOM     13  C   UNL     1      -0.032  11.557  18.997  0.00  0.00    +0.000 A 
ATOM     14  C   UNL     1       1.006  12.427  18.618  0.00  0.00    +0.000 A 
ATOM     15  H   UNL     1       3.948  12.926  17.517  0.00  0.00    +0.000 HD
ENDBRANCH   1  11
BRANCH   2  16
ATOM     16  C   UNL     1       2.074   5.929  19.208  0.00  0.00    +0.000 C 
ATOM     17  C   UNL     1       2.324   5.006  20.409  0.00  0.00    +0.000 C 
ATOM     18  C   UNL     1       2.044   3.545  20.013  0.00  0.00    +0.000 C 
ATOM     19  C   UNL     1       2.805   3.154  18.743  0.00  0.00    +0.000 C 
ATOM     20  C   UNL     1       2.559   4.157  17.605  0.00  0.00    +0.000 C 
ATOM     21  N   UNL     1       2.910   5.501  18.065  0.00  0.00    +0.000 N 
ATOM     22  C   UNL     1       4.130   6.146  17.827  0.00  0.00    +0.000 C 
ATOM     23  O   UNL     1       4.419   7.211  18.374  0.00  0.00    +0.000 OA
BRANCH  22  24
ATOM     24  C   UNL     1       5.157   5.594  16.903  0.00  0.00    +0.000 A 
ATOM     25  C   UNL     1       6.188   4.742  17.301  0.00  0.00    +0.000 A 
ATOM     26  C   UNL     1       7.160   4.323  16.399  0.00  0.00    +0.000 A 
ATOM     27  C   UNL     1       7.100   4.816  15.110  0.00  0.00    +0.000 A 
ATOM     28  N   UNL     1       6.147   5.669  14.683  0.00  0.00    +0.000 NA
ATOM     29  C   UNL     1       5.204   6.052  15.592  0.00  0.00    +0.000 A 
ENDBRANCH  22  24
ENDBRANCH   2  16
TORSDOF 3
ENDMDL
MODEL 4
REMARK VINA RESULT:      -8.1      3.145      9.659
REMARK  Name = 
REMARK  4 active torsions:
REMARK  status: ('A' for Active; 'I' for Inactive)
REMARK    1  A    between atoms: C_1  and  C_2
REMARK    2  A    between atoms: C_7  and  N_8
REMARK    3  A    between atoms: C_9  and  C_11
REMARK    4  A    between atoms: C_17  and  C_19
REMARK                            x       y       z     vdW  Elec       q    Type
REMARK                         _______ _______ _______ _____ _____    ______ ____
ROOT
ATOM      1  N   UNL     1       0.155  11.006  19.789  0.00  0.00    +0.000 N 
ATOM      2  C   UNL     1       0.556  11.969  20.700  0.00  0.00    +0.000 C 
ATOM      3  O   UNL     1       1.649  12.012  21.266  0.00  0.00    +0.000 OA
ATOM      4  H   UNL     1      -0.588  11.273  19.155  0.00  0.00    +0.000 HD
ENDROOT
BRANCH   1  11
ATOM      5  C   UNL     1       3.882   5.746  17.588  0.00  0.00    +0.000 C 
ATOM      6  C   UNL     1       3.103   6.361  18.688  0.00  0.00    +0.000 A 
ATOM      7  N   UNL     1       3.015   5.746  19.876  0.00  0.00    +0.000 NA
ATOM      8  N   UNL     1       2.272   6.585  20.616  0.00  0.00    +0.000 N 
ATOM      9  C   UNL     1       1.862   7.705  19.950  0.00  0.00    +0.000 A 
ATOM     10  C   UNL     1       1.097   8.805  20.369  0.00  0.00    +0.000 A 
ATOM     11  C   UNL     1       0.878   9.838  19.453  0.00  0.00    +0.000 A 
ATOM     12  C   UNL     1       1.375   9.729  18.147  0.00  0.00    +0.000 A 
ATOM     13  C   UNL     1       2.137   8.617  17.743  0.00  0.00    +0.000 A 
ATOM     14  C   UNL     1       2.392   7.593  18.673  0.00  0.00    +0.000 A 
ATOM     15  H   UNL     1       2.080   6.341  21.580  0.00  0.00    +0.000 HD
ENDBRANCH   1  11
BRANCH   2  16
ATOM     16  C   UNL     1      -0.470  13.110  20.959  0.00  0.00    +0.000 C 
ATOM     17  C   UNL     1      -1.939  12.793  20.646  0.00  0.00    +0.000 C 
ATOM     18  C   UNL     1      -2.854  13.812  21.349  0.00  0.00    +0.000 C 
ATOM     19  C   UNL     1      -2.435  15.251  21.035  0.00  0.00    +0.000 C 
ATOM     20  C   UNL     1      -0.940  15.476  21.310  0.00  0.00    +0.000 C 
ATOM     21  N   UNL     1      -0.159  14.498  20.553  0.00  0.00    +0.000 N 
ATOM     22  C   UNL     1       0.447  14.730  19.312  0.00  0.00    +0.000 C 
ATOM     23  O   UNL     1       0.956  13.820  18.657  0.00  0.00    +0.000 OA
BRANCH  22  24
ATOM     24  C   UNL     1       0.520  16.086  18.701  0.00  0.00    +0.000 A 
ATOM     25  C   UNL     1      -0.570  16.741  18.126  0.00  0.00    +0.000 A 
ATOM     26  C   UNL     1      -0.416  17.976  17.504  0.00  0.00    +0.000 A 
ATOM     27  C   UNL     1       0.856  18.508  17.432  0.00  0.00    +0.000 A 
ATOM     28  N   UNL     1       1.947  17.900  17.940  0.00  0.00    +0.000 NA
ATOM     29  C   UNL     1       1.758  16.695  18.550  0.00  0.00    +0.000 A 
ENDBRANCH  22  24
ENDBRANCH   2  16
TORSDOF 3
ENDMDL
MODEL 5
REMARK VINA RESULT:      -8.1      3.145      8.738
REMARK  Name = 
REMARK  4 active torsions:
REMARK  status: ('A' for Active; 'I' for Inactive)
REMARK    1  A    between atoms: C_1  and  C_2
REMARK    2  A    between atoms: C_7  and  N_8
REMARK    3  A    between atoms: C_9  and  C_11
REMARK    4  A    between atoms: C_17  and  C_19
REMARK                            x       y       z     vdW  Elec       q    Type
REMARK                         _______ _______ _______ _____ _____    ______ ____
ROOT
ATOM      1  N   UNL     1       1.830   8.240  18.920  0.00  0.00    +0.000 N 
ATOM      2  C   UNL     1       1.757   9.560  18.508  0.00  0.00    +0.000 C 
ATOM      3  O   UNL     1       2.266  10.023  17.486  0.00  0.00    +0.000 OA
ATOM      4  H   UNL     1       1.102   7.928  19.551  0.00  0.00    +0.000 HD
ENDROOT
BRANCH   1  11
ATOM      5  C   UNL     1       6.099   3.879  15.893  0.00  0.00    +0.000 C 
ATOM      6  C   UNL     1       4.870   4.081  16.697  0.00  0.00    +0.000 A 
ATOM      7  N   UNL     1       4.174   3.025  17.142  0.00  0.00    +0.000 NA
ATOM      8  N   UNL     1       3.166   3.576  17.837  0.00  0.00    +0.000 N 
ATOM      9  C   UNL     1       3.172   4.942  17.842  0.00  0.00    +0.000 A 
ATOM     10  C   UNL     1       2.312   5.870  18.452  0.00  0.00    +0.000 A 
ATOM     11  C   UNL     1       2.609   7.229  18.312  0.00  0.00    +0.000 A 
ATOM     12  C   UNL     1       3.708   7.626  17.537  0.00  0.00    +0.000 A 
ATOM     13  C   UNL     1       4.556   6.682  16.930  0.00  0.00    +0.000 A 
ATOM     14  C   UNL     1       4.283   5.313  17.100  0.00  0.00    +0.000 A 
ATOM     15  H   UNL     1       2.501   2.964  18.293  0.00  0.00    +0.000 HD
ENDBRANCH   1  11
BRANCH   2  16
ATOM     16  C   UNL     1       0.899  10.494  19.410  0.00  0.00    +0.000 C 
ATOM     17  C   UNL     1       0.591   9.984  20.824  0.00  0.00    +0.000 C 
ATOM     18  C   UNL     1       0.142  11.156  21.716  0.00  0.00    +0.000 C 
ATOM     19  C   UNL     1      -0.994  11.950  21.066  0.00  0.00    +0.000 C 
ATOM     20  C   UNL     1      -0.641  12.370  19.631  0.00  0.00    +0.000 C 
ATOM     21  N   UNL     1      -0.287  11.182  18.855  0.00  0.00    +0.000 N 
ATOM     22  C   UNL     1      -1.153  10.480  18.007  0.00  0.00    +0.000 C 
ATOM     23  O   UNL     1      -0.838   9.400  17.507  0.00  0.00    +0.000 OA
BRANCH  22  24
ATOM     24  C   UNL     1      -2.506  10.988  17.651  0.00  0.00    +0.000 A 
ATOM     25  C   UNL     1      -3.478  11.339  18.589  0.00  0.00    +0.000 A 
ATOM     26  C   UNL     1      -4.750  11.735  18.188  0.00  0.00    +0.000 A 
ATOM     27  C   UNL     1      -5.034  11.722  16.837  0.00  0.00    +0.000 A 
ATOM     28  N   UNL     1      -4.143  11.357  15.892  0.00  0.00    +0.000 NA
ATOM     29  C   UNL     1      -2.903  10.983  16.320  0.00  0.00    +0.000 A 
ENDBRANCH  22  24
ENDBRANCH   2  16
TORSDOF 3
ENDMDL
MODEL 6
REMARK VINA RESULT:      -8.0      3.112      9.382
REMARK  Name = 
REMARK  4 active torsions:
REMARK  status: ('A' for Active; 'I' for Inactive)
REMARK    1  A    between atoms: C_1  and  C_2
REMARK    2  A    between atoms: C_7  and  N_8
REMARK    3  A    between atoms: C_9  and  C_11
REMARK    4  A    between atoms: C_17  and  C_19
REMARK                            x       y       z     vdW  Elec       q    Type
REMARK                         _______ _______ _______ _____ _____    ______ ____
ROOT
ATOM      1  N   UNL     1       0.221  10.599  20.047  0.00  0.00    +0.000 N 
ATOM      2  C   UNL     1      -1.027  10.962  19.569  0.00  0.00    +0.000 C 
ATOM      3  O   UNL     1      -1.684  10.342  18.731  0.00  0.00    +0.000 OA
ATOM      4  H   UNL     1       0.480  10.973  20.951  0.00  0.00    +0.000 HD
ENDROOT
BRANCH   1  11
ATOM      5  C   UNL     1       4.242   5.915  17.165  0.00  0.00    +0.000 C 
ATOM      6  C   UNL     1       3.444   6.334  18.342  0.00  0.00    +0.000 A 
ATOM      7  N   UNL     1       3.416   5.571  19.444  0.00  0.00    +0.000 NA
ATOM      8  N   UNL     1       2.634   6.259  20.290  0.00  0.00    +0.000 N 
ATOM      9  C   UNL     1       2.141   7.424  19.774  0.00  0.00    +0.000 A 
ATOM     10  C   UNL     1       1.314   8.410  20.335  0.00  0.00    +0.000 A 
ATOM     11  C   UNL     1       1.012   9.533  19.560  0.00  0.00    +0.000 A 
ATOM     12  C   UNL     1       1.493   9.621  18.246  0.00  0.00    +0.000 A 
ATOM     13  C   UNL     1       2.318   8.622  17.698  0.00  0.00    +0.000 A 
ATOM     14  C   UNL     1       2.654   7.509  18.488  0.00  0.00    +0.000 A 
ATOM     15  H   UNL     1       2.474   5.884  21.217  0.00  0.00    +0.000 HD
ENDBRANCH   1  11
BRANCH   2  16
ATOM     16  C   UNL     1      -1.644  12.235  20.215  0.00  0.00    +0.000 C 
ATOM     17  C   UNL     1      -3.131  12.494  19.934  0.00  0.00    +0.000 C 
ATOM     18  C   UNL     1      -3.691  13.494  20.963  0.00  0.00    +0.000 C 
ATOM     19  C   UNL     1      -2.830  14.758  21.039  0.00  0.00    +0.000 C 
ATOM     20  C   UNL     1      -1.347  14.420  21.256  0.00  0.00    +0.000 C 
ATOM     21  N   UNL     1      -0.901  13.515  20.197  0.00  0.00    +0.000 N 
ATOM     22  C   UNL     1      -0.227  13.900  19.031  0.00  0.00    +0.000 C 
ATOM     23  O   UNL     1      -0.019  13.110  18.110  0.00  0.00    +0.000 OA
BRANCH  22  24
ATOM     24  C   UNL     1       0.284  15.282  18.826  0.00  0.00    +0.000 A 
ATOM     25  C   UNL     1      -0.503  16.346  18.381  0.00  0.00    +0.000 A 
ATOM     26  C   UNL     1       0.055  17.597  18.137  0.00  0.00    +0.000 A 
ATOM     27  C   UNL     1       1.419  17.738  18.301  0.00  0.00    +0.000 A 
ATOM     28  N   UNL     1       2.229  16.734  18.694  0.00  0.00    +0.000 NA
ATOM     29  C   UNL     1       1.647  15.524  18.933  0.00  0.00    +0.000 A 
ENDBRANCH  22  24
ENDBRANCH   2  16
TORSDOF 3
ENDMDL
MODEL 7
REMARK VINA RESULT:      -8.0      3.276      9.144
REMARK  Name = 
REMARK  4 active torsions:
REMARK  status: ('A' for Active; 'I' for Inactive)
REMARK    1  A    between atoms: C_1  and  C_2
REMARK    2  A    between atoms: C_7  and  N_8
REMARK    3  A    between atoms: C_9  and  C_11
REMARK    4  A    between atoms: C_17  and  C_19
REMARK                            x       y       z     vdW  Elec       q    Type
REMARK                         _______ _______ _______ _____ _____    ______ ____
ROOT
ATOM      1  N   UNL     1       1.436   8.940  19.717  0.00  0.00    +0.000 N 
ATOM      2  C   UNL     1       1.406   9.828  18.653  0.00  0.00    +0.000 C 
ATOM      3  O   UNL     1       1.682   9.557  17.484  0.00  0.00    +0.000 OA
ATOM      4  H   UNL     1       0.866   9.184  20.518  0.00  0.00    +0.000 HD
ENDROOT
BRANCH   1  11
ATOM      5  C   UNL     1       4.235   2.772  18.999  0.00  0.00    +0.000 C 
ATOM      6  C   UNL     1       3.329   3.659  19.766  0.00  0.00    +0.000 A 
ATOM      7  N   UNL     1       2.723   3.208  20.874  0.00  0.00    +0.000 NA
ATOM      8  N   UNL     1       2.019   4.267  21.306  0.00  0.00    +0.000 N 
ATOM      9  C   UNL     1       2.130   5.374  20.514  0.00  0.00    +0.000 A 
ATOM     10  C   UNL     1       1.571   6.656  20.630  0.00  0.00    +0.000 A 
ATOM     11  C   UNL     1       1.913   7.611  19.667  0.00  0.00    +0.000 A 
ATOM     12  C   UNL     1       2.751   7.255  18.601  0.00  0.00    +0.000 A 
ATOM     13  C   UNL     1       3.300   5.964  18.499  0.00  0.00    +0.000 A 
ATOM     14  C   UNL     1       2.988   5.012  19.486  0.00  0.00    +0.000 A 
ATOM     15  H   UNL     1       1.480   4.175  22.158  0.00  0.00    +0.000 HD
ENDBRANCH   1  11
BRANCH   2  16
ATOM     16  C   UNL     1       0.921  11.265  18.998  0.00  0.00    +0.000 C 
ATOM     17  C   UNL     1       1.087  11.712  20.457  0.00  0.00    +0.000 C 
ATOM     18  C   UNL     1       0.990  13.246  20.548  0.00  0.00    +0.000 C 
ATOM     19  C   UNL     1      -0.277  13.768  19.865  0.00  0.00    +0.000 C 
ATOM     20  C   UNL     1      -0.410  13.228  18.432  0.00  0.00    +0.000 C 
ATOM     21  N   UNL     1      -0.364  11.767  18.463  0.00  0.00    +0.000 N 
ATOM     22  C   UNL     1      -1.480  10.920  18.455  0.00  0.00    +0.000 C 
ATOM     23  O   UNL     1      -1.377   9.707  18.640  0.00  0.00    +0.000 OA
BRANCH  22  24
ATOM     24  C   UNL     1      -2.861  11.423  18.221  0.00  0.00    +0.000 A 
ATOM     25  C   UNL     1      -3.684  11.936  19.225  0.00  0.00    +0.000 A 
ATOM     26  C   UNL     1      -4.993  12.319  18.951  0.00  0.00    +0.000 A 
ATOM     27  C   UNL     1      -5.466  12.131  17.668  0.00  0.00    +0.000 A 
ATOM     28  N   UNL     1      -4.724  11.607  16.671  0.00  0.00    +0.000 NA
ATOM     29  C   UNL     1      -3.442  11.251  16.972  0.00  0.00    +0.000 A 
ENDBRANCH  22  24
ENDBRANCH   2  16
TORSDOF 3
ENDMDL
MODEL 8
REMARK VINA RESULT:      -8.0      3.099      8.479
REMARK  Name = 
REMARK  4 active torsions:
REMARK  status: ('A' for Active; 'I' for Inactive)
REMARK    1  A    between atoms: C_1  and  C_2
REMARK    2  A    between atoms: C_7  and  N_8
REMARK    3  A    between atoms: C_9  and  C_11
REMARK    4  A    between atoms: C_17  and  C_19
REMARK                            x       y       z     vdW  Elec       q    Type
REMARK                         _______ _______ _______ _____ _____    ______ ____
ROOT
ATOM      1  N   UNL     1       2.054   8.072  18.895  0.00  0.00    +0.000 N 
ATOM      2  C   UNL     1       1.819   9.399  18.576  0.00  0.00    +0.000 C 
ATOM      3  O   UNL     1       2.237   9.983  17.575  0.00  0.00    +0.000 OA
ATOM      4  H   UNL     1       1.388   7.638  19.522  0.00  0.00    +0.000 HD
ENDROOT
BRANCH   1  11
ATOM      5  C   UNL     1       5.693   3.371  15.568  0.00  0.00    +0.000 C 
ATOM      6  C   UNL     1       5.544   4.788  15.977  0.00  0.00    +0.000 A 
ATOM      7  N   UNL     1       6.429   5.705  15.562  0.00  0.00    +0.000 NA
ATOM      8  N   UNL     1       5.974   6.852  16.092  0.00  0.00    +0.000 N 
ATOM      9  C   UNL     1       4.844   6.709  16.846  0.00  0.00    +0.000 A 
ATOM     10  C   UNL     1       4.070   7.650  17.544  0.00  0.00    +0.000 A 
ATOM     11  C   UNL     1       2.921   7.199  18.199  0.00  0.00    +0.000 A 
ATOM     12  C   UNL     1       2.604   5.833  18.187  0.00  0.00    +0.000 A 
ATOM     13  C   UNL     1       3.393   4.903  17.486  0.00  0.00    +0.000 A 
ATOM     14  C   UNL     1       4.529   5.359  16.794  0.00  0.00    +0.000 A 
ATOM     15  H   UNL     1       6.478   7.709  15.899  0.00  0.00    +0.000 HD
ENDBRANCH   1  11
BRANCH   2  16
ATOM     16  C   UNL     1       0.892  10.168  19.561  0.00  0.00    +0.000 C 
ATOM     17  C   UNL     1       0.505   9.432  20.851  0.00  0.00    +0.000 C 
ATOM     18  C   UNL     1      -0.017  10.440  21.891  0.00  0.00    +0.000 C 
ATOM     19  C   UNL     1      -1.123  11.323  21.308  0.00  0.00    +0.000 C 
ATOM     20  C   UNL     1      -0.689  11.974  19.986  0.00  0.00    +0.000 C 
ATOM     21  N   UNL     1      -0.269  10.930  19.052  0.00  0.00    +0.000 N 
ATOM     22  C   UNL     1      -1.069  10.371  18.047  0.00  0.00    +0.000 C 
ATOM     23  O   UNL     1      -0.706   9.389  17.399  0.00  0.00    +0.000 OA
BRANCH  22  24
ATOM     24  C   UNL     1      -2.406  10.922  17.693  0.00  0.00    +0.000 A 
ATOM     25  C   UNL     1      -3.352  11.335  18.633  0.00  0.00    +0.000 A 
ATOM     26  C   UNL     1      -4.612  11.769  18.236  0.00  0.00    +0.000 A 
ATOM     27  C   UNL     1      -4.913  11.733  16.889  0.00  0.00    +0.000 A 
ATOM     28  N   UNL     1      -4.048  11.309  15.944  0.00  0.00    +0.000 NA
ATOM     29  C   UNL     1      -2.818  10.899  16.368  0.00  0.00    +0.000 A 
ENDBRANCH  22  24
ENDBRANCH   2  16
TORSDOF 3
ENDMDL
MODEL 9
REMARK VINA RESULT:      -8.0      1.505      1.771
REMARK  Name = 
REMARK  4 active torsions:
REMARK  status: ('A' for Active; 'I' for Inactive)
REMARK    1  A    between atoms: C_1  and  C_2
REMARK    2  A    between atoms: C_7  and  N_8
REMARK    3  A    between atoms: C_9  and  C_11
REMARK    4  A    between atoms: C_17  and  C_19
REMARK                            x       y       z     vdW  Elec       q    Type
REMARK                         _______ _______ _______ _____ _____    ______ ____
ROOT
ATOM      1  N   UNL     1       1.835   7.063  18.839  0.00  0.00    +0.000 N 
ATOM      2  C   UNL     1       2.046   6.024  19.731  0.00  0.00    +0.000 C 
ATOM      3  O   UNL     1       1.936   6.095  20.955  0.00  0.00    +0.000 OA
ATOM      4  H   UNL     1       1.612   6.797  17.888  0.00  0.00    +0.000 HD
ENDROOT
BRANCH   1  11
ATOM      5  C   UNL     1       0.671  13.706  19.801  0.00  0.00    +0.000 C 
ATOM      6  C   UNL     1       0.675  12.336  20.366  0.00  0.00    +0.000 A 
ATOM      7  N   UNL     1       0.257  12.124  21.622  0.00  0.00    +0.000 NA
ATOM      8  N   UNL     1       0.373  10.796  21.778  0.00  0.00    +0.000 N 
ATOM      9  C   UNL     1       0.865  10.145  20.683  0.00  0.00    +0.000 A 
ATOM     10  C   UNL     1       1.118   8.784  20.450  0.00  0.00    +0.000 A 
ATOM     11  C   UNL     1       1.589   8.411  19.187  0.00  0.00    +0.000 A 
ATOM     12  C   UNL     1       1.841   9.394  18.220  0.00  0.00    +0.000 A 
ATOM     13  C   UNL     1       1.586  10.754  18.473  0.00  0.00    +0.000 A 
ATOM     14  C   UNL     1       1.077  11.129  19.729  0.00  0.00    +0.000 A 
ATOM     15  H   UNL     1       0.094  10.385  22.661  0.00  0.00    +0.000 HD
ENDBRANCH   1  11
BRANCH   2  16
ATOM     16  C   UNL     1       2.392   4.651  19.086  0.00  0.00    +0.000 C 
ATOM     17  C   UNL     1       2.798   3.526  20.048  0.00  0.00    +0.000 C 
ATOM     18  C   UNL     1       2.675   2.164  19.340  0.00  0.00    +0.000 C 
ATOM     19  C   UNL     1       3.424   2.158  18.004  0.00  0.00    +0.000 C 
ATOM     20  C   UNL     1       3.015   3.348  17.122  0.00  0.00    +0.000 C 
ATOM     21  N   UNL     1       3.224   4.591  17.864  0.00  0.00    +0.000 N 
ATOM     22  C   UNL     1       4.349   5.419  17.759  0.00  0.00    +0.000 C 
ATOM     23  O   UNL     1       4.533   6.365  18.524  0.00  0.00    +0.000 OA
BRANCH  22  24
ATOM     24  C   UNL     1       5.395   5.214  16.720  0.00  0.00    +0.000 A 
ATOM     25  C   UNL     1       5.157   5.299  15.347  0.00  0.00    +0.000 A 
ATOM     26  C   UNL     1       6.163   5.021  14.427  0.00  0.00    +0.000 A 
ATOM     27  C   UNL     1       7.388   4.611  14.915  0.00  0.00    +0.000 A 
ATOM     28  N   UNL     1       7.659   4.477  16.229  0.00  0.00    +0.000 NA
ATOM     29  C   UNL     1       6.652   4.767  17.103  0.00  0.00    +0.000 A 
ENDBRANCH  22  24
ENDBRANCH   2  16
TORSDOF 3
ENDMDL
