MODEL 1
REMARK VINA RESULT:      -8.8      0.000      0.000
REMARK  Name = 
REMARK  8 active torsions:
REMARK  status: ('A' for Active; 'I' for Inactive)
REMARK    1  A    between atoms: C_2  and  C_4
REMARK    2  A    between atoms: C_8  and  C_9
REMARK    3  A    between atoms: C_9  and  N_10
REMARK    4  A    between atoms: N_10  and  C_11
REMARK    5  A    between atoms: C_11  and  C_12
REMARK    6  A    between atoms: N_20  and  C_21
REMARK    7  A    between atoms: C_21  and  C_22
REMARK    8  A    between atoms: C_22  and  C_23
REMARK                            x       y       z     vdW  Elec       q    Type
REMARK                         _______ _______ _______ _____ _____    ______ ____
ROOT
ATOM      1  N   UNL     1       2.442   6.962  18.835  0.00  0.00    +0.000 N 
ATOM      2  C   UNL     1       2.085   8.260  18.454  0.00  0.00    +0.000 C 
ATOM      3  O   UNL     1       2.356   8.733  17.353  0.00  0.00    +0.000 OA
ATOM      4  N   UNL     1       1.383   8.985  19.395  0.00  0.00    +0.000 N 
ATOM      5  H   UNL     1       0.700   8.443  19.899  0.00  0.00    +0.000 HD
ENDROOT
BRANCH   1   6
ATOM      6  C   UNL     1       2.894   6.050  17.777  0.00  0.00    +0.000 C 
BRANCH   6  11
ATOM      7  C   UNL     1       6.718   5.523  18.231  0.00  0.00    +0.000 A 
ATOM      8  C   UNL     1       6.910   4.510  17.281  0.00  0.00    +0.000 A 
ATOM      9  C   UNL     1       5.878   4.150  16.425  0.00  0.00    +0.000 A 
ATOM     10  C   UNL     1       4.632   4.757  16.566  0.00  0.00    +0.000 A 
ATOM     11  C   UNL     1       4.367   5.698  17.589  0.00  0.00    +0.000 A 
ATOM     12  C   UNL     1       5.441   6.116  18.391  0.00  0.00    +0.000 A 
BRANCH   7  14
ATOM     13  N   UNL     1       8.410   7.156  18.957  0.00  0.00    +0.000 N 
ATOM     14  C   UNL     1       7.924   5.885  19.036  0.00  0.00    +0.000 C 
ATOM     15  O   UNL     1       8.517   5.058  19.725  0.00  0.00    +0.000 OA
ATOM     16  H   UNL     1       9.302   7.317  19.404  0.00  0.00    +0.000 HD
ATOM     17  H   UNL     1       8.105   7.838  18.271  0.00  0.00    +0.000 HD
ENDBRANCH   7  14
ENDBRANCH   6  11
ENDBRANCH   1   6
BRANCH   1  18
ATOM     18  C   UNL     1       2.075   6.384  20.141  0.00  0.00    +0.000 C 
BRANCH  18  19
ATOM     19  C   UNL     1       2.039   4.859  20.163  0.00  0.00    +0.000 A 
ATOM     20  C   UNL     1       3.165   4.091  20.497  0.00  0.00    +0.000 A 
ATOM     21  C   UNL     1       3.169   2.707  20.310  0.00  0.00    +0.000 A 
ATOM     22  C   UNL     1       2.033   2.064  19.831  0.00  0.00    +0.000 A 
ATOM     23  C   UNL     1       0.883   2.801  19.560  0.00  0.00    +0.000 A 
ATOM     24  C   UNL     1       0.881   4.187  19.731  0.00  0.00    +0.000 A 
ENDBRANCH  18  19
ENDBRANCH   1  18
BRANCH   4  25
ATOM     25  C   UNL     1       0.904  10.326  19.093  0.00  0.00    +0.000 C 
BRANCH  25  26
ATOM     26  C   UNL     1      -0.547  10.551  19.557  0.00  0.00    +0.000 C 
BRANCH  26  27
ATOM     27  C   UNL     1      -1.636  10.579  18.498  0.00  0.00    +0.000 A 
ATOM     28  C   UNL     1      -2.728  11.457  18.659  0.00  0.00    +0.000 A 
ATOM     29  C   UNL     1      -3.724  11.549  17.681  0.00  0.00    +0.000 A 
ATOM     30  C   UNL     1      -3.625  10.782  16.532  0.00  0.00    +0.000 A 
ATOM     31  F   UNL     1      -4.596  10.835  15.610  0.00  0.00    +0.000 F 
ATOM     32  C   UNL     1      -2.544   9.926  16.337  0.00  0.00    +0.000 A 
ATOM     33  C   UNL     1      -1.554   9.823  17.320  0.00  0.00    +0.000 A 
ENDBRANCH  26  27
ENDBRANCH  25  26
ENDBRANCH   4  25
TORSDOF 8
ENDMDL
MODEL 2
REMARK VINA RESULT:      -8.7      4.723      8.114
REMARK  Name = 
REMARK  8 active torsions:
REMARK  status: ('A' for Active; 'I' for Inactive)
REMARK    1  A    between atoms: C_2  and  C_4
REMARK    2  A    between atoms: C_8  and  C_9
REMARK    3  A    between atoms: C_9  and  N_10
REMARK    4  A    between atoms: N_10  and  C_11
REMARK    5  A    between atoms: C_11  and  C_12
REMARK    6  A    between atoms: N_20  and  C_21
REMARK    7  A    between atoms: C_21  and  C_22
REMARK    8  A    between atoms: C_22  and  C_23
REMARK                            x       y       z     vdW  Elec       q    Type
REMARK                         _______ _______ _______ _____ _____    ______ ____
ROOT
ATOM      1  N   UNL     1       5.691   5.809  17.627  0.00  0.00    +0.000 N 
ATOM      2  C   UNL     1       6.884   6.378  18.088  0.00  0.00    +0.000 C 
ATOM      3  O   UNL     1       7.742   5.737  18.690  0.00  0.00    +0.000 OA
ATOM      4  N   UNL     1       7.051   7.718  17.809  0.00  0.00    +0.000 N 
ATOM      5  H   UNL     1       6.733   7.986  16.892  0.00  0.00    +0.000 HD
ENDROOT
BRANCH   1   6
ATOM      6  C   UNL     1       5.607   4.343  17.609  0.00  0.00    +0.000 C 
BRANCH   6  11
ATOM      7  C   UNL     1       2.752   2.876  19.801  0.00  0.00    +0.000 A 
ATOM      8  C   UNL     1       1.820   2.607  18.789  0.00  0.00    +0.000 A 
ATOM      9  C   UNL     1       2.181   2.738  17.454  0.00  0.00    +0.000 A 
ATOM     10  C   UNL     1       3.453   3.205  17.134  0.00  0.00    +0.000 A 
ATOM     11  C   UNL     1       4.381   3.599  18.128  0.00  0.00    +0.000 A 
ATOM     12  C   UNL     1       4.035   3.380  19.472  0.00  0.00    +0.000 A 
BRANCH   7  14
ATOM     13  N   UNL     1       0.964   2.816  21.490  0.00  0.00    +0.000 N 
ATOM     14  C   UNL     1       2.279   2.616  21.194  0.00  0.00    +0.000 C 
ATOM     15  O   UNL     1       3.050   2.275  22.089  0.00  0.00    +0.000 OA
ATOM     16  H   UNL     1       0.718   2.764  22.469  0.00  0.00    +0.000 HD
ATOM     17  H   UNL     1       0.308   3.280  20.871  0.00  0.00    +0.000 HD
ENDBRANCH   7  14
ENDBRANCH   6  11
ENDBRANCH   1   6
BRANCH   1  18
ATOM     18  C   UNL     1       4.685   6.572  16.867  0.00  0.00    +0.000 C 
BRANCH  18  19
ATOM     19  C   UNL     1       3.542   7.120  17.716  0.00  0.00    +0.000 A 
ATOM     20  C   UNL     1       2.858   8.296  17.376  0.00  0.00    +0.000 A 
ATOM     21  C   UNL     1       1.963   8.888  18.271  0.00  0.00    +0.000 A 
ATOM     22  C   UNL     1       1.702   8.287  19.497  0.00  0.00    +0.000 A 
ATOM     23  C   UNL     1       2.318   7.082  19.822  0.00  0.00    +0.000 A 
ATOM     24  C   UNL     1       3.226   6.496  18.937  0.00  0.00    +0.000 A 
ENDBRANCH  18  19
ENDBRANCH   1  18
BRANCH   4  25
ATOM     25  C   UNL     1       8.277   8.407  18.184  0.00  0.00    +0.000 C 
BRANCH  25  26
ATOM     26  C   UNL     1       8.350   9.835  17.613  0.00  0.00    +0.000 C 
BRANCH  26  27
ATOM     27  C   UNL     1       9.073  10.893  18.429  0.00  0.00    +0.000 A 
ATOM     28  C   UNL     1       9.563  10.558  19.708  0.00  0.00    +0.000 A 
ATOM     29  C   UNL     1      10.278  11.489  20.468  0.00  0.00    +0.000 A 
ATOM     30  C   UNL     1      10.525  12.749  19.949  0.00  0.00    +0.000 A 
ATOM     31  F   UNL     1      11.175  13.659  20.687  0.00  0.00    +0.000 F 
ATOM     32  C   UNL     1      10.074  13.097  18.677  0.00  0.00    +0.000 A 
ATOM     33  C   UNL     1       9.346  12.172  17.922  0.00  0.00    +0.000 A 
ENDBRANCH  26  27
ENDBRANCH  25  26
ENDBRANCH   4  25
TORSDOF 8
ENDMDL
MODEL 3
REMARK VINA RESULT:      -8.7      4.690      8.057
REMARK  Name = 
REMARK  8 active torsions:
REMARK  status: ('A' for Active; 'I' for Inactive)
REMARK    1  A    between atoms: C_2  and  C_4
REMARK    2  A    between atoms: C_8  and  C_9
REMARK    3  A    between atoms: C_9  and  N_10
REMARK    4  A    between atoms: N_10  and  C_11
REMARK    5  A    between atoms: C_11  and  C_12
REMARK    6  A    between atoms: N_20  and  C_21
REMARK    7  A    between atoms: C_21  and  C_22
REMARK    8  A    between atoms: C_22  and  C_23
REMARK                            x       y       z     vdW  Elec       q    Type
REMARK                         _______ _______ _______ _____ _____    ______ ____
ROOT
ATOM      1  N   UNL     1       5.658   5.751  17.627  0.00  0.00    +0.000 N 
ATOM      2  C   UNL     1       6.883   6.304  18.016  0.00  0.00    +0.000 C 
ATOM      3  O   UNL     1       7.774   5.649  18.551  0.00  0.00    +0.000 OA
ATOM      4  N   UNL     1       7.042   7.648  17.746  0.00  0.00    +0.000 N 
ATOM      5  H   UNL     1       6.666   7.931  16.855  0.00  0.00    +0.000 HD
ENDROOT
BRANCH   1   6
ATOM      6  C   UNL     1       5.561   4.286  17.593  0.00  0.00    +0.000 C 
BRANCH   6  11
ATOM      7  C   UNL     1       2.717   2.841  19.814  0.00  0.00    +0.000 A 
ATOM      8  C   UNL     1       1.782   2.558  18.808  0.00  0.00    +0.000 A 
ATOM      9  C   UNL     1       2.138   2.673  17.471  0.00  0.00    +0.000 A 
ATOM     10  C   UNL     1       3.408   3.138  17.140  0.00  0.00    +0.000 A 
ATOM     11  C   UNL     1       4.339   3.546  18.126  0.00  0.00    +0.000 A 
ATOM     12  C   UNL     1       3.998   3.343  19.473  0.00  0.00    +0.000 A 
BRANCH   7  14
ATOM     13  N   UNL     1       0.927   2.756  21.500  0.00  0.00    +0.000 N 
ATOM     14  C   UNL     1       2.250   2.597  21.211  0.00  0.00    +0.000 C 
ATOM     15  O   UNL     1       3.030   2.306  22.116  0.00  0.00    +0.000 OA
ATOM     16  H   UNL     1       0.681   2.718  22.479  0.00  0.00    +0.000 HD
ATOM     17  H   UNL     1       0.257   3.180  20.868  0.00  0.00    +0.000 HD
ENDBRANCH   7  14
ENDBRANCH   6  11
ENDBRANCH   1   6
BRANCH   1  18
ATOM     18  C   UNL     1       4.610   6.532  16.946  0.00  0.00    +0.000 C 
BRANCH  18  19
ATOM     19  C   UNL     1       3.616   7.202  17.889  0.00  0.00    +0.000 A 
ATOM     20  C   UNL     1       3.220   6.611  19.098  0.00  0.00    +0.000 A 
ATOM     21  C   UNL     1       2.160   7.138  19.839  0.00  0.00    +0.000 A 
ATOM     22  C   UNL     1       1.511   8.290  19.408  0.00  0.00    +0.000 A 
ATOM     23  C   UNL     1       1.937   8.931  18.248  0.00  0.00    +0.000 A 
ATOM     24  C   UNL     1       2.986   8.397  17.496  0.00  0.00    +0.000 A 
ENDBRANCH  18  19
ENDBRANCH   1  18
BRANCH   4  25
ATOM     25  C   UNL     1       8.296   8.323  18.049  0.00  0.00    +0.000 C 
BRANCH  25  26
ATOM     26  C   UNL     1       8.299   9.793  17.594  0.00  0.00    +0.000 C 
BRANCH  26  27
ATOM     27  C   UNL     1       9.055  10.800  18.444  0.00  0.00    +0.000 A 
ATOM     28  C   UNL     1       9.179  12.129  17.988  0.00  0.00    +0.000 A 
ATOM     29  C   UNL     1       9.823  13.097  18.766  0.00  0.00    +0.000 A 
ATOM     30  C   UNL     1      10.326  12.749  20.009  0.00  0.00    +0.000 A 
ATOM     31  F   UNL     1      10.979  13.661  20.742  0.00  0.00    +0.000 F 
ATOM     32  C   UNL     1      10.193  11.451  20.494  0.00  0.00    +0.000 A 
ATOM     33  C   UNL     1       9.562  10.478  19.712  0.00  0.00    +0.000 A 
ENDBRANCH  26  27
ENDBRANCH  25  26
ENDBRANCH   4  25
TORSDOF 8
ENDMDL
MODEL 4
REMARK VINA RESULT:      -8.6      5.842      8.587
REMARK  Name = 
REMARK  8 active torsions:
REMARK  status: ('A' for Active; 'I' for Inactive)
REMARK    1  A    between atoms: C_2  and  C_4
REMARK    2  A    between atoms: C_8  and  C_9
REMARK    3  A    between atoms: C_9  and  N_10
REMARK    4  A    between atoms: N_10  and  C_11
REMARK    5  A    between atoms: C_11  and  C_12
REMARK    6  A    between atoms: N_20  and  C_21
REMARK    7  A    between atoms: C_21  and  C_22
REMARK    8  A    between atoms: C_22  and  C_23
REMARK                            x       y       z     vdW  Elec       q    Type
REMARK                         _______ _______ _______ _____ _____    ______ ____
ROOT
ATOM      1  N   UNL     1       6.056   5.478  17.375  0.00  0.00    +0.000 N 
ATOM      2  C   UNL     1       6.984   6.246  18.088  0.00  0.00    +0.000 C 
ATOM      3  O   UNL     1       7.484   5.877  19.148  0.00  0.00    +0.000 OA
ATOM      4  N   UNL     1       7.323   7.454  17.515  0.00  0.00    +0.000 N 
ATOM      5  H   UNL     1       7.424   7.415  16.513  0.00  0.00    +0.000 HD
ENDROOT
BRANCH   1   6
ATOM      6  C   UNL     1       5.908   4.070  17.763  0.00  0.00    +0.000 C 
BRANCH   6  11
ATOM      7  C   UNL     1       2.575   3.398  19.648  0.00  0.00    +0.000 A 
ATOM      8  C   UNL     1       1.915   2.655  18.658  0.00  0.00    +0.000 A 
ATOM      9  C   UNL     1       2.594   2.255  17.515  0.00  0.00    +0.000 A 
ATOM     10  C   UNL     1       3.914   2.656  17.330  0.00  0.00    +0.000 A 
ATOM     11  C   UNL     1       4.578   3.503  18.250  0.00  0.00    +0.000 A 
ATOM     12  C   UNL     1       3.910   3.830  19.441  0.00  0.00    +0.000 A 
BRANCH   7  14
ATOM     13  N   UNL     1       0.584   4.351  20.733  0.00  0.00    +0.000 N 
ATOM     14  C   UNL     1       1.771   3.695  20.870  0.00  0.00    +0.000 C 
ATOM     15  O   UNL     1       2.171   3.410  21.997  0.00  0.00    +0.000 OA
ATOM     16  H   UNL     1       0.144   4.655  21.591  0.00  0.00    +0.000 HD
ATOM     17  H   UNL     1       0.277   4.792  19.874  0.00  0.00    +0.000 HD
ENDBRANCH   7  14
ENDBRANCH   6  11
ENDBRANCH   1   6
BRANCH   1  18
ATOM     18  C   UNL     1       5.493   5.906  16.082  0.00  0.00    +0.000 C 
BRANCH  18  19
ATOM     19  C   UNL     1       6.035   5.141  14.879  0.00  0.00    +0.000 A 
ATOM     20  C   UNL     1       7.290   5.422  14.319  0.00  0.00    +0.000 A 
ATOM     21  C   UNL     1       7.674   4.858  13.100  0.00  0.00    +0.000 A 
ATOM     22  C   UNL     1       6.829   3.968  12.447  0.00  0.00    +0.000 A 
ATOM     23  C   UNL     1       5.609   3.622  13.022  0.00  0.00    +0.000 A 
ATOM     24  C   UNL     1       5.216   4.197  14.232  0.00  0.00    +0.000 A 
ENDBRANCH  18  19
ENDBRANCH   1  18
BRANCH   4  25
ATOM     25  C   UNL     1       8.323   8.314  18.132  0.00  0.00    +0.000 C 
BRANCH  25  26
ATOM     26  C   UNL     1       8.174   9.787  17.710  0.00  0.00    +0.000 C 
BRANCH  26  27
ATOM     27  C   UNL     1       9.016  10.823  18.436  0.00  0.00    +0.000 A 
ATOM     28  C   UNL     1       9.443  10.561  19.754  0.00  0.00    +0.000 A 
ATOM     29  C   UNL     1      10.262  11.467  20.435  0.00  0.00    +0.000 A 
ATOM     30  C   UNL     1      10.674  12.627  19.800  0.00  0.00    +0.000 A 
ATOM     31  F   UNL     1      11.425  13.518  20.461  0.00  0.00    +0.000 F 
ATOM     32  C   UNL     1      10.287  12.897  18.489  0.00  0.00    +0.000 A 
ATOM     33  C   UNL     1       9.457  11.999  17.811  0.00  0.00    +0.000 A 
ENDBRANCH  26  27
ENDBRANCH  25  26
ENDBRANCH   4  25
TORSDOF 8
ENDMDL
MODEL 5
REMARK VINA RESULT:      -8.6      3.507      4.886
REMARK  Name = 
REMARK  8 active torsions:
REMARK  status: ('A' for Active; 'I' for Inactive)
REMARK    1  A    between atoms: C_2  and  C_4
REMARK    2  A    between atoms: C_8  and  C_9
REMARK    3  A    between atoms: C_9  and  N_10
REMARK    4  A    between atoms: N_10  and  C_11
REMARK    5  A    between atoms: C_11  and  C_12
REMARK    6  A    between atoms: N_20  and  C_21
REMARK    7  A    between atoms: C_21  and  C_22
REMARK    8  A    between atoms: C_22  and  C_23
REMARK                            x       y       z     vdW  Elec       q    Type
REMARK                         _______ _______ _______ _____ _____    ______ ____
ROOT
ATOM      1  N   UNL     1       4.516   4.869  17.346  0.00  0.00    +0.000 N 
ATOM      2  C   UNL     1       4.516   6.261  17.483  0.00  0.00    +0.000 C 
ATOM      3  O   UNL     1       5.546   6.931  17.511  0.00  0.00    +0.000 OA
ATOM      4  N   UNL     1       3.272   6.851  17.569  0.00  0.00    +0.000 N 
ATOM      5  H   UNL     1       2.586   6.445  16.955  0.00  0.00    +0.000 HD
ENDROOT
BRANCH   1   6
ATOM      6  C   UNL     1       5.773   4.233  16.930  0.00  0.00    +0.000 C 
BRANCH   6  11
ATOM      7  C   UNL     1       5.906   3.622  13.094  0.00  0.00    +0.000 A 
ATOM      8  C   UNL     1       6.900   4.554  12.762  0.00  0.00    +0.000 A 
ATOM      9  C   UNL     1       7.601   5.213  13.763  0.00  0.00    +0.000 A 
ATOM     10  C   UNL     1       7.262   4.991  15.095  0.00  0.00    +0.000 A 
ATOM     11  C   UNL     1       6.187   4.147  15.464  0.00  0.00    +0.000 A 
ATOM     12  C   UNL     1       5.543   3.422  14.449  0.00  0.00    +0.000 A 
BRANCH   7  14
ATOM     13  N   UNL     1       4.150   3.429  11.382  0.00  0.00    +0.000 N 
ATOM     14  C   UNL     1       5.281   2.912  11.938  0.00  0.00    +0.000 C 
ATOM     15  O   UNL     1       5.730   1.851  11.508  0.00  0.00    +0.000 OA
ATOM     16  H   UNL     1       3.686   2.846  10.699  0.00  0.00    +0.000 HD
ATOM     17  H   UNL     1       3.609   4.181  11.794  0.00  0.00    +0.000 HD
ENDBRANCH   7  14
ENDBRANCH   6  11
ENDBRANCH   1   6
BRANCH   1  18
ATOM     18  C   UNL     1       3.277   4.075  17.269  0.00  0.00    +0.000 C 
BRANCH  18  19
ATOM     19  C   UNL     1       2.682   3.710  18.625  0.00  0.00    +0.000 A 
ATOM     20  C   UNL     1       1.444   4.210  19.055  0.00  0.00    +0.000 A 
ATOM     21  C   UNL     1       1.019   4.032  20.374  0.00  0.00    +0.000 A 
ATOM     22  C   UNL     1       1.802   3.311  21.269  0.00  0.00    +0.000 A 
ATOM     23  C   UNL     1       3.000   2.747  20.841  0.00  0.00    +0.000 A 
ATOM     24  C   UNL     1       3.436   2.937  19.527  0.00  0.00    +0.000 A 
ENDBRANCH  18  19
ENDBRANCH   1  18
BRANCH   4  25
ATOM     25  C   UNL     1       3.141   8.299  17.653  0.00  0.00    +0.000 C 
BRANCH  25  26
ATOM     26  C   UNL     1       1.688   8.746  17.896  0.00  0.00    +0.000 C 
BRANCH  26  27
ATOM     27  C   UNL     1       1.249   8.992  19.329  0.00  0.00    +0.000 A 
ATOM     28  C   UNL     1       0.372  10.061  19.605  0.00  0.00    +0.000 A 
ATOM     29  C   UNL     1      -0.096  10.287  20.904  0.00  0.00    +0.000 A 
ATOM     30  C   UNL     1       0.293   9.438  21.927  0.00  0.00    +0.000 A 
ATOM     31  F   UNL     1      -0.119   9.673  23.181  0.00  0.00    +0.000 F 
ATOM     32  C   UNL     1       1.138   8.360  21.676  0.00  0.00    +0.000 A 
ATOM     33  C   UNL     1       1.617   8.140  20.381  0.00  0.00    +0.000 A 
ENDBRANCH  26  27
ENDBRANCH  25  26
ENDBRANCH   4  25
TORSDOF 8
ENDMDL
MODEL 6
REMARK VINA RESULT:      -8.5      5.370      8.610
REMARK  Name = 
REMARK  8 active torsions:
REMARK  status: ('A' for Active; 'I' for Inactive)
REMARK    1  A    between atoms: C_2  and  C_4
REMARK    2  A    between atoms: C_8  and  C_9
REMARK    3  A    between atoms: C_9  and  N_10
REMARK    4  A    between atoms: N_10  and  C_11
REMARK    5  A    between atoms: C_11  and  C_12
REMARK    6  A    between atoms: N_20  and  C_21
REMARK    7  A    between atoms: C_21  and  C_22
REMARK    8  A    between atoms: C_22  and  C_23
REMARK                            x       y       z     vdW  Elec       q    Type
REMARK                         _______ _______ _______ _____ _____    ______ ____
ROOT
ATOM      1  N   UNL     1       5.949   5.491  16.951  0.00  0.00    +0.000 N 
ATOM      2  C   UNL     1       6.799   6.206  17.802  0.00  0.00    +0.000 C 
ATOM      3  O   UNL     1       7.140   5.794  18.908  0.00  0.00    +0.000 OA
ATOM      4  N   UNL     1       7.256   7.412  17.312  0.00  0.00    +0.000 N 
ATOM      5  H   UNL     1       7.488   7.392  16.332  0.00  0.00    +0.000 HD
ENDROOT
BRANCH   1   6
ATOM      6  C   UNL     1       5.699   4.081  17.277  0.00  0.00    +0.000 C 
BRANCH   6  11
ATOM      7  C   UNL     1       2.422   3.903  19.360  0.00  0.00    +0.000 A 
ATOM      8  C   UNL     1       1.863   2.754  18.781  0.00  0.00    +0.000 A 
ATOM      9  C   UNL     1       2.601   1.992  17.886  0.00  0.00    +0.000 A 
ATOM     10  C   UNL     1       3.875   2.416  17.518  0.00  0.00    +0.000 A 
ATOM     11  C   UNL     1       4.428   3.630  17.989  0.00  0.00    +0.000 A 
ATOM     12  C   UNL     1       3.707   4.347  18.958  0.00  0.00    +0.000 A 
BRANCH   7  14
ATOM     13  N   UNL     1       2.131   5.544  21.169  0.00  0.00    +0.000 N 
ATOM     14  C   UNL     1       1.568   4.592  20.373  0.00  0.00    +0.000 C 
ATOM     15  O   UNL     1       0.388   4.290  20.541  0.00  0.00    +0.000 OA
ATOM     16  H   UNL     1       1.557   5.881  21.929  0.00  0.00    +0.000 HD
ATOM     17  H   UNL     1       3.129   5.713  21.232  0.00  0.00    +0.000 HD
ENDBRANCH   7  14
ENDBRANCH   6  11
ENDBRANCH   1   6
BRANCH   1  18
ATOM     18  C   UNL     1       5.579   5.970  15.607  0.00  0.00    +0.000 C 
BRANCH  18  19
ATOM     19  C   UNL     1       6.105   5.103  14.467  0.00  0.00    +0.000 A 
ATOM     20  C   UNL     1       7.335   5.357  13.842  0.00  0.00    +0.000 A 
ATOM     21  C   UNL     1       7.696   4.684  12.672  0.00  0.00    +0.000 A 
ATOM     22  C   UNL     1       6.856   3.715  12.136  0.00  0.00    +0.000 A 
ATOM     23  C   UNL     1       5.663   3.399  12.782  0.00  0.00    +0.000 A 
ATOM     24  C   UNL     1       5.291   4.081  13.942  0.00  0.00    +0.000 A 
ENDBRANCH  18  19
ENDBRANCH   1  18
BRANCH   4  25
ATOM     25  C   UNL     1       8.194   8.218  18.080  0.00  0.00    +0.000 C 
BRANCH  25  26
ATOM     26  C   UNL     1       8.155   9.705  17.684  0.00  0.00    +0.000 C 
BRANCH  26  27
ATOM     27  C   UNL     1       9.056  10.667  18.440  0.00  0.00    +0.000 A 
ATOM     28  C   UNL     1       9.387  11.905  17.851  0.00  0.00    +0.000 A 
ATOM     29  C   UNL     1      10.170  12.838  18.538  0.00  0.00    +0.000 A 
ATOM     30  C   UNL     1      10.609  12.550  19.819  0.00  0.00    +0.000 A 
ATOM     31  F   UNL     1      11.394  13.422  20.467  0.00  0.00    +0.000 F 
ATOM     32  C   UNL     1      10.275  11.346  20.434  0.00  0.00    +0.000 A 
ATOM     33  C   UNL     1       9.503  10.405  19.743  0.00  0.00    +0.000 A 
ENDBRANCH  26  27
ENDBRANCH  25  26
ENDBRANCH   4  25
TORSDOF 8
ENDMDL
MODEL 7
REMARK VINA RESULT:      -8.4      2.555      3.035
REMARK  Name = 
REMARK  8 active torsions:
REMARK  status: ('A' for Active; 'I' for Inactive)
REMARK    1  A    between atoms: C_2  and  C_4
REMARK    2  A    between atoms: C_8  and  C_9
REMARK    3  A    between atoms: C_9  and  N_10
REMARK    4  A    between atoms: N_10  and  C_11
REMARK    5  A    between atoms: C_11  and  C_12
REMARK    6  A    between atoms: N_20  and  C_21
REMARK    7  A    between atoms: C_21  and  C_22
REMARK    8  A    between atoms: C_22  and  C_23
REMARK                            x       y       z     vdW  Elec       q    Type
REMARK                         _______ _______ _______ _____ _____    ______ ____
ROOT
ATOM      1  N   UNL     1       2.130   6.265  19.605  0.00  0.00    +0.000 N 
ATOM      2  C   UNL     1       2.005   7.594  20.027  0.00  0.00    +0.000 C 
ATOM      3  O   UNL     1       2.311   8.552  19.321  0.00  0.00    +0.000 OA
ATOM      4  N   UNL     1       1.492   7.770  21.295  0.00  0.00    +0.000 N 
ATOM      5  H   UNL     1       0.743   7.138  21.523  0.00  0.00    +0.000 HD
ENDROOT
BRANCH   1   6
ATOM      6  C   UNL     1       2.357   6.032  18.174  0.00  0.00    +0.000 C 
BRANCH   6  11
ATOM      7  C   UNL     1       6.173   6.155  17.442  0.00  0.00    +0.000 A 
ATOM      8  C   UNL     1       6.305   4.924  16.783  0.00  0.00    +0.000 A 
ATOM      9  C   UNL     1       5.177   4.186  16.448  0.00  0.00    +0.000 A 
ATOM     10  C   UNL     1       3.921   4.647  16.834  0.00  0.00    +0.000 A 
ATOM     11  C   UNL     1       3.756   5.824  17.602  0.00  0.00    +0.000 A 
ATOM     12  C   UNL     1       4.895   6.605  17.859  0.00  0.00    +0.000 A 
BRANCH   7  14
ATOM     13  N   UNL     1       8.137   6.683  18.825  0.00  0.00    +0.000 N 
ATOM     14  C   UNL     1       7.447   6.900  17.671  0.00  0.00    +0.000 C 
ATOM     15  O   UNL     1       7.863   7.737  16.872  0.00  0.00    +0.000 OA
ATOM     16  H   UNL     1       8.912   7.307  19.001  0.00  0.00    +0.000 HD
ATOM     17  H   UNL     1       7.770   6.166  19.616  0.00  0.00    +0.000 HD
ENDBRANCH   7  14
ENDBRANCH   6  11
ENDBRANCH   1   6
BRANCH   1  18
ATOM     18  C   UNL     1       1.719   5.122  20.439  0.00  0.00    +0.000 C 
BRANCH  18  19
ATOM     19  C   UNL     1       2.261   3.776  19.968  0.00  0.00    +0.000 A 
ATOM     20  C   UNL     1       3.564   3.351  20.264  0.00  0.00    +0.000 A 
ATOM     21  C   UNL     1       4.105   2.218  19.651  0.00  0.00    +0.000 A 
ATOM     22  C   UNL     1       3.336   1.467  18.769  0.00  0.00    +0.000 A 
ATOM     23  C   UNL     1       2.016   1.833  18.517  0.00  0.00    +0.000 A 
ATOM     24  C   UNL     1       1.478   2.975  19.116  0.00  0.00    +0.000 A 
ENDBRANCH  18  19
ENDBRANCH   1  18
BRANCH   4  25
ATOM     25  C   UNL     1       1.259   9.107  21.822  0.00  0.00    +0.000 C 
BRANCH  25  26
ATOM     26  C   UNL     1      -0.155   9.270  22.410  0.00  0.00    +0.000 C 
BRANCH  26  27
ATOM     27  C   UNL     1      -0.864  10.598  22.201  0.00  0.00    +0.000 A 
ATOM     28  C   UNL     1      -0.829  11.202  20.927  0.00  0.00    +0.000 A 
ATOM     29  C   UNL     1      -1.513  12.397  20.682  0.00  0.00    +0.000 A 
ATOM     30  C   UNL     1      -2.248  12.984  21.698  0.00  0.00    +0.000 A 
ATOM     31  F   UNL     1      -2.872  14.150  21.482  0.00  0.00    +0.000 F 
ATOM     32  C   UNL     1      -2.320  12.394  22.958  0.00  0.00    +0.000 A 
ATOM     33  C   UNL     1      -1.626  11.206  23.209  0.00  0.00    +0.000 A 
ENDBRANCH  26  27
ENDBRANCH  25  26
ENDBRANCH   4  25
TORSDOF 8
ENDMDL
MODEL 8
REMARK VINA RESULT:      -8.4      1.954      2.419
REMARK  Name = 
REMARK  8 active torsions:
REMARK  status: ('A' for Active; 'I' for Inactive)
REMARK    1  A    between atoms: C_2  and  C_4
REMARK    2  A    between atoms: C_8  and  C_9
REMARK    3  A    between atoms: C_9  and  N_10
REMARK    4  A    between atoms: N_10  and  C_11
REMARK    5  A    between atoms: C_11  and  C_12
REMARK    6  A    between atoms: N_20  and  C_21
REMARK    7  A    between atoms: C_21  and  C_22
REMARK    8  A    between atoms: C_22  and  C_23
REMARK                            x       y       z     vdW  Elec       q    Type
REMARK                         _______ _______ _______ _____ _____    ______ ____
ROOT
ATOM      1  N   UNL     1       2.170   6.221  19.590  0.00  0.00    +0.000 N 
ATOM      2  C   UNL     1       1.932   7.545  19.974  0.00  0.00    +0.000 C 
ATOM      3  O   UNL     1       2.173   8.507  19.248  0.00  0.00    +0.000 OA
ATOM      4  N   UNL     1       1.386   7.711  21.230  0.00  0.00    +0.000 N 
ATOM      5  H   UNL     1       0.685   7.027  21.463  0.00  0.00    +0.000 HD
ENDROOT
BRANCH   1   6
ATOM      6  C   UNL     1       2.439   5.971  18.168  0.00  0.00    +0.000 C 
BRANCH   6  11
ATOM      7  C   UNL     1       6.273   6.186  17.567  0.00  0.00    +0.000 A 
ATOM      8  C   UNL     1       6.445   4.995  16.847  0.00  0.00    +0.000 A 
ATOM      9  C   UNL     1       5.341   4.261  16.437  0.00  0.00    +0.000 A 
ATOM     10  C   UNL     1       4.066   4.682  16.806  0.00  0.00    +0.000 A 
ATOM     11  C   UNL     1       3.859   5.814  17.631  0.00  0.00    +0.000 A 
ATOM     12  C   UNL     1       4.976   6.595  17.967  0.00  0.00    +0.000 A 
BRANCH   7  14
ATOM     13  N   UNL     1       7.877   7.989  17.085  0.00  0.00    +0.000 N 
ATOM     14  C   UNL     1       7.528   6.936  17.876  0.00  0.00    +0.000 C 
ATOM     15  O   UNL     1       8.277   6.598  18.791  0.00  0.00    +0.000 OA
ATOM     16  H   UNL     1       8.798   8.375  17.244  0.00  0.00    +0.000 HD
ATOM     17  H   UNL     1       7.428   8.208  16.203  0.00  0.00    +0.000 HD
ENDBRANCH   7  14
ENDBRANCH   6  11
ENDBRANCH   1   6
BRANCH   1  18
ATOM     18  C   UNL     1       1.837   5.069  20.447  0.00  0.00    +0.000 C 
BRANCH  18  19
ATOM     19  C   UNL     1       2.352   3.731  19.926  0.00  0.00    +0.000 A 
ATOM     20  C   UNL     1       3.644   3.267  20.210  0.00  0.00    +0.000 A 
ATOM     21  C   UNL     1       4.163   2.147  19.556  0.00  0.00    +0.000 A 
ATOM     22  C   UNL     1       3.381   1.447  18.644  0.00  0.00    +0.000 A 
ATOM     23  C   UNL     1       2.071   1.851  18.401  0.00  0.00    +0.000 A 
ATOM     24  C   UNL     1       1.555   2.980  19.042  0.00  0.00    +0.000 A 
ENDBRANCH  18  19
ENDBRANCH   1  18
BRANCH   4  25
ATOM     25  C   UNL     1       1.037   9.038  21.718  0.00  0.00    +0.000 C 
BRANCH  25  26
ATOM     26  C   UNL     1      -0.336   9.512  21.209  0.00  0.00    +0.000 C 
BRANCH  26  27
ATOM     27  C   UNL     1      -0.390  10.790  20.390  0.00  0.00    +0.000 A 
ATOM     28  C   UNL     1       0.653  11.731  20.517  0.00  0.00    +0.000 A 
ATOM     29  C   UNL     1       0.666  12.896  19.742  0.00  0.00    +0.000 A 
ATOM     30  C   UNL     1      -0.349  13.117  18.825  0.00  0.00    +0.000 A 
ATOM     31  F   UNL     1      -0.365  14.249  18.109  0.00  0.00    +0.000 F 
ATOM     32  C   UNL     1      -1.377  12.191  18.663  0.00  0.00    +0.000 A 
ATOM     33  C   UNL     1      -1.399  11.033  19.447  0.00  0.00    +0.000 A 
ENDBRANCH  26  27
ENDBRANCH  25  26
ENDBRANCH   4  25
TORSDOF 8
ENDMDL
MODEL 9
REMARK VINA RESULT:      -8.3      3.486      8.046
REMARK  Name = 
REMARK  8 active torsions:
REMARK  status: ('A' for Active; 'I' for Inactive)
REMARK    1  A    between atoms: C_2  and  C_4
REMARK    2  A    between atoms: C_8  and  C_9
REMARK    3  A    between atoms: C_9  and  N_10
REMARK    4  A    between atoms: N_10  and  C_11
REMARK    5  A    between atoms: C_11  and  C_12
REMARK    6  A    between atoms: N_20  and  C_21
REMARK    7  A    between atoms: C_21  and  C_22
REMARK    8  A    between atoms: C_22  and  C_23
REMARK                            x       y       z     vdW  Elec       q    Type
REMARK                         _______ _______ _______ _____ _____    ______ ____
ROOT
ATOM      1  N   UNL     1       3.109   7.012  18.425  0.00  0.00    +0.000 N 
ATOM      2  C   UNL     1       4.171   6.522  17.656  0.00  0.00    +0.000 C 
ATOM      3  O   UNL     1       4.513   7.025  16.589  0.00  0.00    +0.000 OA
ATOM      4  N   UNL     1       4.834   5.433  18.184  0.00  0.00    +0.000 N 
ATOM      5  H   UNL     1       4.965   5.480  19.181  0.00  0.00    +0.000 HD
ENDROOT
BRANCH   1   6
ATOM      6  C   UNL     1       2.587   8.341  18.081  0.00  0.00    +0.000 C 
BRANCH   6  11
ATOM      7  C   UNL     1       0.127   9.845  20.688  0.00  0.00    +0.000 A 
ATOM      8  C   UNL     1      -0.730  10.521  19.809  0.00  0.00    +0.000 A 
ATOM      9  C   UNL     1      -0.605  10.345  18.438  0.00  0.00    +0.000 A 
ATOM     10  C   UNL     1       0.422   9.546  17.943  0.00  0.00    +0.000 A 
ATOM     11  C   UNL     1       1.379   8.942  18.793  0.00  0.00    +0.000 A 
ATOM     12  C   UNL     1       1.191   9.057  20.180  0.00  0.00    +0.000 A 
BRANCH   7  14
ATOM     13  N   UNL     1      -0.640   8.993  22.865  0.00  0.00    +0.000 N 
ATOM     14  C   UNL     1      -0.158  10.042  22.141  0.00  0.00    +0.000 C 
ATOM     15  O   UNL     1      -0.017  11.134  22.688  0.00  0.00    +0.000 OA
ATOM     16  H   UNL     1      -0.949   9.208  23.803  0.00  0.00    +0.000 HD
ATOM     17  H   UNL     1      -0.967   8.126  22.456  0.00  0.00    +0.000 HD
ENDBRANCH   7  14
ENDBRANCH   6  11
ENDBRANCH   1   6
BRANCH   1  18
ATOM     18  C   UNL     1       2.732   6.432  19.726  0.00  0.00    +0.000 C 
BRANCH  18  19
ATOM     19  C   UNL     1       1.950   5.126  19.626  0.00  0.00    +0.000 A 
ATOM     20  C   UNL     1       1.613   4.370  20.759  0.00  0.00    +0.000 A 
ATOM     21  C   UNL     1       1.085   3.083  20.630  0.00  0.00    +0.000 A 
ATOM     22  C   UNL     1       0.841   2.552  19.368  0.00  0.00    +0.000 A 
ATOM     23  C   UNL     1       1.102   3.315  18.233  0.00  0.00    +0.000 A 
ATOM     24  C   UNL     1       1.646   4.596  18.359  0.00  0.00    +0.000 A 
ENDBRANCH  18  19
ENDBRANCH   1  18
BRANCH   4  25
ATOM     25  C   UNL     1       5.993   4.870  17.506  0.00  0.00    +0.000 C 
BRANCH  25  26
ATOM     26  C   UNL     1       5.603   3.870  16.403  0.00  0.00    +0.000 C 
BRANCH  26  27
ATOM     27  C   UNL     1       6.168   4.090  15.010  0.00  0.00    +0.000 A 
ATOM     28  C   UNL     1       5.569   3.434  13.915  0.00  0.00    +0.000 A 
ATOM     29  C   UNL     1       6.027   3.651  12.611  0.00  0.00    +0.000 A 
ATOM     30  C   UNL     1       7.068   4.538  12.392  0.00  0.00    +0.000 A 
ATOM     31  F   UNL     1       7.538   4.721  11.151  0.00  0.00    +0.000 F 
ATOM     32  C   UNL     1       7.660   5.219  13.454  0.00  0.00    +0.000 A 
ATOM     33  C   UNL     1       7.212   4.992  14.759  0.00  0.00    +0.000 A 
ENDBRANCH  26  27
ENDBRANCH  25  26
ENDBRANCH   4  25
TORSDOF 8
ENDMDL
