MODEL 1
REMARK VINA RESULT:      -7.9      0.000      0.000
REMARK  Name = 
REMARK  7 active torsions:
REMARK  status: ('A' for Active; 'I' for Inactive)
REMARK    1  A    between atoms: C_2  and  C_3
REMARK    2  A    between atoms: C_3  and  C_4
REMARK    3  A    between atoms: C_4  and  C_5
REMARK    4  A    between atoms: C_7  and  C_8
REMARK    5  A    between atoms: N_16  and  C_17
REMARK    6  A    between atoms: C_17  and  C_18
REMARK    7  A    between atoms: C_18  and  C_19
REMARK                            x       y       z     vdW  Elec       q    Type
REMARK                         _______ _______ _______ _____ _____    ______ ____
ROOT
ATOM      1  O   UNL     1       7.046   7.762  17.445  0.00  0.00    +0.000 OA
ATOM      2  C   UNL     1       6.515   6.846  16.820  0.00  0.00    +0.000 C 
ATOM      3  N   UNL     1       5.176   6.712  16.615  0.00  0.00    +0.000 N 
ATOM      4  H   UNL     1       4.877   5.764  16.437  0.00  0.00    +0.000 HD
ENDROOT
BRANCH   2   5
ATOM      5  C   UNL     1       7.320   5.754  16.156  0.00  0.00    +0.000 C 
BRANCH   5   6
ATOM      6  C   UNL     1       7.226   4.430  16.895  0.00  0.00    +0.000 C 
BRANCH   6   7
ATOM      7  C   UNL     1       5.849   4.031  17.309  0.00  0.00    +0.000 A 
ATOM      8  N   UNL     1       5.295   3.903  18.491  0.00  0.00    +0.000 NA
ATOM      9  C   UNL     1       3.976   3.559  18.189  0.00  0.00    +0.000 A 
ATOM     10  N   UNL     1       3.734   3.506  16.871  0.00  0.00    +0.000 NA
ATOM     11  O   UNL     1       4.966   3.817  16.294  0.00  0.00    +0.000 OA
BRANCH   9  12
ATOM     12  C   UNL     1       2.979   3.291  19.228  0.00  0.00    +0.000 A 
ATOM     13  C   UNL     1       3.397   2.995  20.506  0.00  0.00    +0.000 A 
ATOM     14  C   UNL     1       2.497   2.775  21.563  0.00  0.00    +0.000 A 
ATOM     15  C   UNL     1       1.139   2.822  21.365  0.00  0.00    +0.000 A 
ATOM     16  C   UNL     1       0.675   3.106  20.091  0.00  0.00    +0.000 A 
ATOM     17  C   UNL     1       1.581   3.348  19.037  0.00  0.00    +0.000 A 
ENDBRANCH   9  12
ENDBRANCH   6   7
ENDBRANCH   5   6
ENDBRANCH   2   5
BRANCH   3  18
ATOM     18  C   UNL     1       4.199   7.548  17.249  0.00  0.00    +0.000 C 
BRANCH  18  19
ATOM     19  C   UNL     1       3.017   6.734  17.806  0.00  0.00    +0.000 C 
BRANCH  19  20
ATOM     20  C   UNL     1       2.389   7.341  19.025  0.00  0.00    +0.000 A 
ATOM     21  C   UNL     1       2.258   6.716  20.247  0.00  0.00    +0.000 A 
ATOM     22  N   UNL     1       1.798   7.660  21.127  0.00  0.00    +0.000 N 
ATOM     23  C   UNL     1       1.133   8.644  20.414  0.00  0.00    +0.000 A 
ATOM     24  C   UNL     1       0.065   9.503  20.756  0.00  0.00    +0.000 A 
ATOM     25  C   UNL     1      -0.574  10.183  19.721  0.00  0.00    +0.000 A 
ATOM     26  C   UNL     1       0.024  10.265  18.474  0.00  0.00    +0.000 A 
ATOM     27  C   UNL     1       1.175   9.516  18.182  0.00  0.00    +0.000 A 
ATOM     28  C   UNL     1       1.624   8.559  19.114  0.00  0.00    +0.000 A 
ATOM     29  H   UNL     1       1.700   7.485  22.116  0.00  0.00    +0.000 HD
ENDBRANCH  19  20
ENDBRANCH  18  19
ENDBRANCH   3  18
TORSDOF 7
ENDMDL
MODEL 2
REMARK VINA RESULT:      -7.8      0.834      1.367
REMARK  Name = 
REMARK  7 active torsions:
REMARK  status: ('A' for Active; 'I' for Inactive)
REMARK    1  A    between atoms: C_2  and  C_3
REMARK    2  A    between atoms: C_3  and  C_4
REMARK    3  A    between atoms: C_4  and  C_5
REMARK    4  A    between atoms: C_7  and  C_8
REMARK    5  A    between atoms: N_16  and  C_17
REMARK    6  A    between atoms: C_17  and  C_18
REMARK    7  A    between atoms: C_18  and  C_19
REMARK                            x       y       z     vdW  Elec       q    Type
REMARK                         _______ _______ _______ _____ _____    ______ ____
ROOT
ATOM      1  O   UNL     1       6.916   7.652  17.511  0.00  0.00    +0.000 OA
ATOM      2  C   UNL     1       6.353   6.853  16.767  0.00  0.00    +0.000 C 
ATOM      3  N   UNL     1       5.016   6.827  16.512  0.00  0.00    +0.000 N 
ATOM      4  H   UNL     1       4.669   5.927  16.212  0.00  0.00    +0.000 HD
ENDROOT
BRANCH   2   5
ATOM      5  C   UNL     1       7.115   5.801  15.996  0.00  0.00    +0.000 C 
BRANCH   5   6
ATOM      6  C   UNL     1       7.239   4.493  16.760  0.00  0.00    +0.000 C 
BRANCH   6   7
ATOM      7  C   UNL     1       6.190   4.264  17.798  0.00  0.00    +0.000 A 
ATOM      8  N   UNL     1       4.941   3.874  17.705  0.00  0.00    +0.000 NA
ATOM      9  C   UNL     1       4.529   3.806  19.038  0.00  0.00    +0.000 A 
ATOM     10  N   UNL     1       5.503   4.120  19.906  0.00  0.00    +0.000 NA
ATOM     11  O   UNL     1       6.593   4.421  19.089  0.00  0.00    +0.000 OA
BRANCH   9  12
ATOM     12  C   UNL     1       3.167   3.425  19.418  0.00  0.00    +0.000 A 
ATOM     13  C   UNL     1       2.243   3.153  18.434  0.00  0.00    +0.000 A 
ATOM     14  C   UNL     1       0.932   2.736  18.726  0.00  0.00    +0.000 A 
ATOM     15  C   UNL     1       0.498   2.599  20.022  0.00  0.00    +0.000 A 
ATOM     16  C   UNL     1       1.394   2.873  21.042  0.00  0.00    +0.000 A 
ATOM     17  C   UNL     1       2.715   3.271  20.746  0.00  0.00    +0.000 A 
ENDBRANCH   9  12
ENDBRANCH   6   7
ENDBRANCH   5   6
ENDBRANCH   2   5
BRANCH   3  18
ATOM     18  C   UNL     1       4.069   7.639  17.218  0.00  0.00    +0.000 C 
BRANCH  18  19
ATOM     19  C   UNL     1       2.944   6.799  17.848  0.00  0.00    +0.000 C 
BRANCH  19  20
ATOM     20  C   UNL     1       2.312   7.441  19.048  0.00  0.00    +0.000 A 
ATOM     21  C   UNL     1       2.147   6.839  20.277  0.00  0.00    +0.000 A 
ATOM     22  N   UNL     1       1.697   7.808  21.135  0.00  0.00    +0.000 N 
ATOM     23  C   UNL     1       1.068   8.796  20.396  0.00  0.00    +0.000 A 
ATOM     24  C   UNL     1       0.016   9.686  20.708  0.00  0.00    +0.000 A 
ATOM     25  C   UNL     1      -0.590  10.365  19.652  0.00  0.00    +0.000 A 
ATOM     26  C   UNL     1       0.029  10.412  18.414  0.00  0.00    +0.000 A 
ATOM     27  C   UNL     1       1.165   9.631  18.151  0.00  0.00    +0.000 A 
ATOM     28  C   UNL     1       1.577   8.678  19.105  0.00  0.00    +0.000 A 
ATOM     29  H   UNL     1       1.579   7.651  22.125  0.00  0.00    +0.000 HD
ENDBRANCH  19  20
ENDBRANCH  18  19
ENDBRANCH   3  18
TORSDOF 7
ENDMDL
MODEL 3
REMARK VINA RESULT:      -7.8      3.185      5.218
REMARK  Name = 
REMARK  7 active torsions:
REMARK  status: ('A' for Active; 'I' for Inactive)
REMARK    1  A    between atoms: C_2  and  C_3
REMARK    2  A    between atoms: C_3  and  C_4
REMARK    3  A    between atoms: C_4  and  C_5
REMARK    4  A    between atoms: C_7  and  C_8
REMARK    5  A    between atoms: N_16  and  C_17
REMARK    6  A    between atoms: C_17  and  C_18
REMARK    7  A    between atoms: C_18  and  C_19
REMARK                            x       y       z     vdW  Elec       q    Type
REMARK                         _______ _______ _______ _____ _____    ______ ____
ROOT
ATOM      1  O   UNL     1       6.491   5.077  20.118  0.00  0.00    +0.000 OA
ATOM      2  C   UNL     1       6.301   5.186  18.909  0.00  0.00    +0.000 C 
ATOM      3  N   UNL     1       5.294   4.584  18.218  0.00  0.00    +0.000 N 
ATOM      4  H   UNL     1       5.486   4.455  17.234  0.00  0.00    +0.000 HD
ENDROOT
BRANCH   2   5
ATOM      5  C   UNL     1       7.169   6.060  18.035  0.00  0.00    +0.000 C 
BRANCH   5   6
ATOM      6  C   UNL     1       6.429   6.577  16.812  0.00  0.00    +0.000 C 
BRANCH   6   7
ATOM      7  C   UNL     1       6.600   5.760  15.576  0.00  0.00    +0.000 A 
ATOM      8  N   UNL     1       5.762   5.005  14.905  0.00  0.00    +0.000 NA
ATOM      9  C   UNL     1       6.525   4.566  13.821  0.00  0.00    +0.000 A 
ATOM     10  N   UNL     1       7.773   5.059  13.823  0.00  0.00    +0.000 NA
ATOM     11  O   UNL     1       7.820   5.843  14.977  0.00  0.00    +0.000 OA
BRANCH   9  12
ATOM     12  C   UNL     1       5.989   3.663  12.801  0.00  0.00    +0.000 A 
ATOM     13  C   UNL     1       4.688   3.817  12.378  0.00  0.00    +0.000 A 
ATOM     14  C   UNL     1       4.123   3.017  11.370  0.00  0.00    +0.000 A 
ATOM     15  C   UNL     1       4.843   2.016  10.765  0.00  0.00    +0.000 A 
ATOM     16  C   UNL     1       6.154   1.820  11.170  0.00  0.00    +0.000 A 
ATOM     17  C   UNL     1       6.725   2.638  12.167  0.00  0.00    +0.000 A 
ENDBRANCH   9  12
ENDBRANCH   6   7
ENDBRANCH   5   6
ENDBRANCH   2   5
BRANCH   3  18
ATOM     18  C   UNL     1       4.419   3.609  18.799  0.00  0.00    +0.000 C 
BRANCH  18  19
ATOM     19  C   UNL     1       2.937   3.994  18.637  0.00  0.00    +0.000 C 
BRANCH  19  20
ATOM     20  C   UNL     1       2.531   5.183  19.458  0.00  0.00    +0.000 A 
ATOM     21  C   UNL     1       1.853   5.126  20.657  0.00  0.00    +0.000 A 
ATOM     22  N   UNL     1       1.832   6.400  21.160  0.00  0.00    +0.000 N 
ATOM     23  C   UNL     1       1.964   7.294  20.110  0.00  0.00    +0.000 A 
ATOM     24  C   UNL     1       1.502   8.617  19.928  0.00  0.00    +0.000 A 
ATOM     25  C   UNL     1       1.548   9.146  18.640  0.00  0.00    +0.000 A 
ATOM     26  C   UNL     1       2.313   8.526  17.665  0.00  0.00    +0.000 A 
ATOM     27  C   UNL     1       2.894   7.271  17.901  0.00  0.00    +0.000 A 
ATOM     28  C   UNL     1       2.560   6.573  19.079  0.00  0.00    +0.000 A 
ATOM     29  H   UNL     1       1.471   6.622  22.076  0.00  0.00    +0.000 HD
ENDBRANCH  19  20
ENDBRANCH  18  19
ENDBRANCH   3  18
TORSDOF 7
ENDMDL
MODEL 4
REMARK VINA RESULT:      -7.8      2.044      6.721
REMARK  Name = 
REMARK  7 active torsions:
REMARK  status: ('A' for Active; 'I' for Inactive)
REMARK    1  A    between atoms: C_2  and  C_3
REMARK    2  A    between atoms: C_3  and  C_4
REMARK    3  A    between atoms: C_4  and  C_5
REMARK    4  A    between atoms: C_7  and  C_8
REMARK    5  A    between atoms: N_16  and  C_17
REMARK    6  A    between atoms: C_17  and  C_18
REMARK    7  A    between atoms: C_18  and  C_19
REMARK                            x       y       z     vdW  Elec       q    Type
REMARK                         _______ _______ _______ _____ _____    ______ ____
ROOT
ATOM      1  O   UNL     1       0.241   2.715  18.366  0.00  0.00    +0.000 OA
ATOM      2  C   UNL     1       1.190   3.139  19.022  0.00  0.00    +0.000 C 
ATOM      3  N   UNL     1       2.381   3.547  18.503  0.00  0.00    +0.000 N 
ATOM      4  H   UNL     1       3.153   3.499  19.153  0.00  0.00    +0.000 HD
ENDROOT
BRANCH   2   5
ATOM      5  C   UNL     1       1.120   3.299  20.523  0.00  0.00    +0.000 C 
BRANCH   5   6
ATOM      6  C   UNL     1       2.152   4.282  21.052  0.00  0.00    +0.000 C 
BRANCH   6   7
ATOM      7  C   UNL     1       1.929   5.705  20.664  0.00  0.00    +0.000 A 
ATOM      8  N   UNL     1       1.196   6.652  21.200  0.00  0.00    +0.000 NA
ATOM      9  C   UNL     1       1.467   7.760  20.394  0.00  0.00    +0.000 A 
ATOM     10  N   UNL     1       2.352   7.498  19.420  0.00  0.00    +0.000 NA
ATOM     11  O   UNL     1       2.654   6.147  19.599  0.00  0.00    +0.000 OA
BRANCH   9  12
ATOM     12  C   UNL     1       0.836   9.063  20.616  0.00  0.00    +0.000 A 
ATOM     13  C   UNL     1       0.378   9.386  21.874  0.00  0.00    +0.000 A 
ATOM     14  C   UNL     1      -0.194  10.635  22.170  0.00  0.00    +0.000 A 
ATOM     15  C   UNL     1      -0.347  11.598  21.202  0.00  0.00    +0.000 A 
ATOM     16  C   UNL     1       0.090  11.308  19.920  0.00  0.00    +0.000 A 
ATOM     17  C   UNL     1       0.684  10.062  19.631  0.00  0.00    +0.000 A 
ENDBRANCH   9  12
ENDBRANCH   6   7
ENDBRANCH   5   6
ENDBRANCH   2   5
BRANCH   3  18
ATOM     18  C   UNL     1       2.734   3.375  17.126  0.00  0.00    +0.000 C 
BRANCH  18  19
ATOM     19  C   UNL     1       4.257   3.251  16.932  0.00  0.00    +0.000 C 
BRANCH  19  20
ATOM     20  C   UNL     1       4.946   4.566  16.720  0.00  0.00    +0.000 A 
ATOM     21  C   UNL     1       5.114   5.188  15.500  0.00  0.00    +0.000 A 
ATOM     22  N   UNL     1       5.628   6.431  15.758  0.00  0.00    +0.000 N 
ATOM     23  C   UNL     1       6.283   6.396  16.978  0.00  0.00    +0.000 A 
ATOM     24  C   UNL     1       7.381   7.126  17.485  0.00  0.00    +0.000 A 
ATOM     25  C   UNL     1       7.992   6.654  18.645  0.00  0.00    +0.000 A 
ATOM     26  C   UNL     1       7.345   5.716  19.434  0.00  0.00    +0.000 A 
ATOM     27  C   UNL     1       6.169   5.094  18.987  0.00  0.00    +0.000 A 
ATOM     28  C   UNL     1       5.738   5.313  17.663  0.00  0.00    +0.000 A 
ATOM     29  H   UNL     1       5.763   7.128  15.040  0.00  0.00    +0.000 HD
ENDBRANCH  19  20
ENDBRANCH  18  19
ENDBRANCH   3  18
TORSDOF 7
ENDMDL
MODEL 5
REMARK VINA RESULT:      -7.7      2.362      7.163
REMARK  Name = 
REMARK  7 active torsions:
REMARK  status: ('A' for Active; 'I' for Inactive)
REMARK    1  A    between atoms: C_2  and  C_3
REMARK    2  A    between atoms: C_3  and  C_4
REMARK    3  A    between atoms: C_4  and  C_5
REMARK    4  A    between atoms: C_7  and  C_8
REMARK    5  A    between atoms: N_16  and  C_17
REMARK    6  A    between atoms: C_17  and  C_18
REMARK    7  A    between atoms: C_18  and  C_19
REMARK                            x       y       z     vdW  Elec       q    Type
REMARK                         _______ _______ _______ _____ _____    ______ ____
ROOT
ATOM      1  O   UNL     1       2.808   3.568  20.093  0.00  0.00    +0.000 OA
ATOM      2  C   UNL     1       2.534   4.571  19.438  0.00  0.00    +0.000 C 
ATOM      3  N   UNL     1       2.428   4.616  18.082  0.00  0.00    +0.000 N 
ATOM      4  H   UNL     1       2.578   5.533  17.685  0.00  0.00    +0.000 HD
ENDROOT
BRANCH   2   5
ATOM      5  C   UNL     1       2.236   5.900  20.092  0.00  0.00    +0.000 C 
BRANCH   5   6
ATOM      6  C   UNL     1       2.554   7.078  19.187  0.00  0.00    +0.000 C 
BRANCH   6   7
ATOM      7  C   UNL     1       1.736   8.303  19.430  0.00  0.00    +0.000 A 
ATOM      8  N   UNL     1       0.958   8.650  20.428  0.00  0.00    +0.000 NA
ATOM      9  C   UNL     1       0.534   9.931  20.070  0.00  0.00    +0.000 A 
ATOM     10  N   UNL     1       1.058  10.354  18.909  0.00  0.00    +0.000 NA
ATOM     11  O   UNL     1       1.847   9.282  18.490  0.00  0.00    +0.000 OA
BRANCH   9  12
ATOM     12  C   UNL     1      -0.387  10.711  20.900  0.00  0.00    +0.000 A 
ATOM     13  C   UNL     1      -0.498  10.421  22.241  0.00  0.00    +0.000 A 
ATOM     14  C   UNL     1      -1.325  11.158  23.106  0.00  0.00    +0.000 A 
ATOM     15  C   UNL     1      -2.089  12.202  22.646  0.00  0.00    +0.000 A 
ATOM     16  C   UNL     1      -2.015  12.520  21.300  0.00  0.00    +0.000 A 
ATOM     17  C   UNL     1      -1.168  11.792  20.438  0.00  0.00    +0.000 A 
ENDBRANCH   9  12
ENDBRANCH   6   7
ENDBRANCH   5   6
ENDBRANCH   2   5
BRANCH   3  18
ATOM     18  C   UNL     1       2.786   3.519  17.232  0.00  0.00    +0.000 C 
BRANCH  18  19
ATOM     19  C   UNL     1       4.308   3.431  17.014  0.00  0.00    +0.000 C 
BRANCH  19  20
ATOM     20  C   UNL     1       4.966   4.765  16.815  0.00  0.00    +0.000 A 
ATOM     21  C   UNL     1       5.044   5.441  15.616  0.00  0.00    +0.000 A 
ATOM     22  N   UNL     1       5.560   6.679  15.894  0.00  0.00    +0.000 N 
ATOM     23  C   UNL     1       6.297   6.601  17.065  0.00  0.00    +0.000 A 
ATOM     24  C   UNL     1       7.418   7.324  17.529  0.00  0.00    +0.000 A 
ATOM     25  C   UNL     1       8.110   6.810  18.624  0.00  0.00    +0.000 A 
ATOM     26  C   UNL     1       7.528   5.830  19.412  0.00  0.00    +0.000 A 
ATOM     27  C   UNL     1       6.332   5.211  19.018  0.00  0.00    +0.000 A 
ATOM     28  C   UNL     1       5.811   5.481  17.736  0.00  0.00    +0.000 A 
ATOM     29  H   UNL     1       5.639   7.408  15.200  0.00  0.00    +0.000 HD
ENDBRANCH  19  20
ENDBRANCH  18  19
ENDBRANCH   3  18
TORSDOF 7
ENDMDL
MODEL 6
REMARK VINA RESULT:      -7.7      5.201      6.632
REMARK  Name = 
REMARK  7 active torsions:
REMARK  status: ('A' for Active; 'I' for Inactive)
REMARK    1  A    between atoms: C_2  and  C_3
REMARK    2  A    between atoms: C_3  and  C_4
REMARK    3  A    between atoms: C_4  and  C_5
REMARK    4  A    between atoms: C_7  and  C_8
REMARK    5  A    between atoms: N_16  and  C_17
REMARK    6  A    between atoms: C_17  and  C_18
REMARK    7  A    between atoms: C_18  and  C_19
REMARK                            x       y       z     vdW  Elec       q    Type
REMARK                         _______ _______ _______ _____ _____    ______ ____
ROOT
ATOM      1  O   UNL     1       7.521   7.755  16.992  0.00  0.00    +0.000 OA
ATOM      2  C   UNL     1       8.025   7.607  18.103  0.00  0.00    +0.000 C 
ATOM      3  N   UNL     1       8.575   8.603  18.852  0.00  0.00    +0.000 N 
ATOM      4  H   UNL     1       9.259   8.285  19.524  0.00  0.00    +0.000 HD
ENDROOT
BRANCH   2   5
ATOM      5  C   UNL     1       8.053   6.268  18.801  0.00  0.00    +0.000 C 
BRANCH   5   6
ATOM      6  C   UNL     1       7.616   5.130  17.893  0.00  0.00    +0.000 C 
BRANCH   6   7
ATOM      7  C   UNL     1       6.200   4.689  18.067  0.00  0.00    +0.000 A 
ATOM      8  N   UNL     1       5.514   4.355  19.134  0.00  0.00    +0.000 NA
ATOM      9  C   UNL     1       4.239   4.099  18.625  0.00  0.00    +0.000 A 
ATOM     10  N   UNL     1       4.151   4.297  17.301  0.00  0.00    +0.000 NA
ATOM     11  O   UNL     1       5.441   4.684  16.936  0.00  0.00    +0.000 OA
BRANCH   9  12
ATOM     12  C   UNL     1       3.129   3.664  19.477  0.00  0.00    +0.000 A 
ATOM     13  C   UNL     1       3.400   2.997  20.651  0.00  0.00    +0.000 A 
ATOM     14  C   UNL     1       2.388   2.592  21.538  0.00  0.00    +0.000 A 
ATOM     15  C   UNL     1       1.063   2.825  21.265  0.00  0.00    +0.000 A 
ATOM     16  C   UNL     1       0.747   3.484  20.088  0.00  0.00    +0.000 A 
ATOM     17  C   UNL     1       1.765   3.908  19.209  0.00  0.00    +0.000 A 
ENDBRANCH   9  12
ENDBRANCH   6   7
ENDBRANCH   5   6
ENDBRANCH   2   5
BRANCH   3  18
ATOM     18  C   UNL     1       8.781   9.932  18.357  0.00  0.00    +0.000 C 
BRANCH  18  19
ATOM     19  C   UNL     1      10.088  10.549  18.889  0.00  0.00    +0.000 C 
BRANCH  19  20
ATOM     20  C   UNL     1       9.974  12.009  19.217  0.00  0.00    +0.000 A 
ATOM     21  C   UNL     1       9.059  12.559  20.089  0.00  0.00    +0.000 A 
ATOM     22  N   UNL     1       9.398  13.877  20.239  0.00  0.00    +0.000 N 
ATOM     23  C   UNL     1      10.104  14.284  19.118  0.00  0.00    +0.000 A 
ATOM     24  C   UNL     1      10.230  15.540  18.483  0.00  0.00    +0.000 A 
ATOM     25  C   UNL     1      10.779  15.564  17.202  0.00  0.00    +0.000 A 
ATOM     26  C   UNL     1      11.465  14.459  16.723  0.00  0.00    +0.000 A 
ATOM     27  C   UNL     1      11.456  13.248  17.432  0.00  0.00    +0.000 A 
ATOM     28  C   UNL     1      10.613  13.117  18.554  0.00  0.00    +0.000 A 
ATOM     29  H   UNL     1       8.939  14.490  20.897  0.00  0.00    +0.000 HD
ENDBRANCH  19  20
ENDBRANCH  18  19
ENDBRANCH   3  18
TORSDOF 7
ENDMDL
MODEL 7
REMARK VINA RESULT:      -7.7      1.009      1.179
REMARK  Name = 
REMARK  7 active torsions:
REMARK  status: ('A' for Active; 'I' for Inactive)
REMARK    1  A    between atoms: C_2  and  C_3
REMARK    2  A    between atoms: C_3  and  C_4
REMARK    3  A    between atoms: C_4  and  C_5
REMARK    4  A    between atoms: C_7  and  C_8
REMARK    5  A    between atoms: N_16  and  C_17
REMARK    6  A    between atoms: C_17  and  C_18
REMARK    7  A    between atoms: C_18  and  C_19
REMARK                            x       y       z     vdW  Elec       q    Type
REMARK                         _______ _______ _______ _____ _____    ______ ____
ROOT
ATOM      1  O   UNL     1       4.934   6.852  14.877  0.00  0.00    +0.000 OA
ATOM      2  C   UNL     1       5.657   6.439  15.781  0.00  0.00    +0.000 C 
ATOM      3  N   UNL     1       5.469   6.685  17.107  0.00  0.00    +0.000 N 
ATOM      4  H   UNL     1       6.310   6.617  17.664  0.00  0.00    +0.000 HD
ENDROOT
BRANCH   2   5
ATOM      5  C   UNL     1       6.850   5.552  15.514  0.00  0.00    +0.000 C 
BRANCH   5   6
ATOM      6  C   UNL     1       6.635   4.127  15.998  0.00  0.00    +0.000 C 
BRANCH   6   7
ATOM      7  C   UNL     1       5.838   3.997  17.253  0.00  0.00    +0.000 A 
ATOM      8  N   UNL     1       4.603   3.608  17.467  0.00  0.00    +0.000 NA
ATOM      9  C   UNL     1       4.490   3.661  18.857  0.00  0.00    +0.000 A 
ATOM     10  N   UNL     1       5.623   4.044  19.464  0.00  0.00    +0.000 NA
ATOM     11  O   UNL     1       6.508   4.265  18.408  0.00  0.00    +0.000 OA
BRANCH   9  12
ATOM     12  C   UNL     1       3.246   3.324  19.554  0.00  0.00    +0.000 A 
ATOM     13  C   UNL     1       3.282   3.039  20.901  0.00  0.00    +0.000 A 
ATOM     14  C   UNL     1       2.123   2.754  21.642  0.00  0.00    +0.000 A 
ATOM     15  C   UNL     1       0.885   2.723  21.049  0.00  0.00    +0.000 A 
ATOM     16  C   UNL     1       0.806   2.993  19.692  0.00  0.00    +0.000 A 
ATOM     17  C   UNL     1       1.969   3.300  18.955  0.00  0.00    +0.000 A 
ENDBRANCH   9  12
ENDBRANCH   6   7
ENDBRANCH   5   6
ENDBRANCH   2   5
BRANCH   3  18
ATOM     18  C   UNL     1       4.485   7.600  17.602  0.00  0.00    +0.000 C 
BRANCH  18  19
ATOM     19  C   UNL     1       3.146   6.901  17.904  0.00  0.00    +0.000 C 
BRANCH  19  20
ATOM     20  C   UNL     1       2.422   7.473  19.087  0.00  0.00    +0.000 A 
ATOM     21  C   UNL     1       2.234   6.829  20.292  0.00  0.00    +0.000 A 
ATOM     22  N   UNL     1       1.688   7.746  21.150  0.00  0.00    +0.000 N 
ATOM     23  C   UNL     1       1.037   8.717  20.406  0.00  0.00    +0.000 A 
ATOM     24  C   UNL     1      -0.078   9.536  20.688  0.00  0.00    +0.000 A 
ATOM     25  C   UNL     1      -0.672  10.208  19.622  0.00  0.00    +0.000 A 
ATOM     26  C   UNL     1       0.001  10.325  18.416  0.00  0.00    +0.000 A 
ATOM     27  C   UNL     1       1.192   9.617  18.190  0.00  0.00    +0.000 A 
ATOM     28  C   UNL     1       1.613   8.664  19.139  0.00  0.00    +0.000 A 
ATOM     29  H   UNL     1       1.533   7.556  22.129  0.00  0.00    +0.000 HD
ENDBRANCH  19  20
ENDBRANCH  18  19
ENDBRANCH   3  18
TORSDOF 7
ENDMDL
MODEL 8
REMARK VINA RESULT:      -7.6      5.769      8.896
REMARK  Name = 
REMARK  7 active torsions:
REMARK  status: ('A' for Active; 'I' for Inactive)
REMARK    1  A    between atoms: C_2  and  C_3
REMARK    2  A    between atoms: C_3  and  C_4
REMARK    3  A    between atoms: C_4  and  C_5
REMARK    4  A    between atoms: C_7  and  C_8
REMARK    5  A    between atoms: N_16  and  C_17
REMARK    6  A    between atoms: C_17  and  C_18
REMARK    7  A    between atoms: C_18  and  C_19
REMARK                            x       y       z     vdW  Elec       q    Type
REMARK                         _______ _______ _______ _____ _____    ______ ____
ROOT
ATOM      1  O   UNL     1       8.017   6.716  18.593  0.00  0.00    +0.000 OA
ATOM      2  C   UNL     1       7.667   7.547  17.759  0.00  0.00    +0.000 C 
ATOM      3  N   UNL     1       6.871   7.289  16.684  0.00  0.00    +0.000 N 
ATOM      4  H   UNL     1       6.986   7.939  15.918  0.00  0.00    +0.000 HD
ENDROOT
BRANCH   2   5
ATOM      5  C   UNL     1       8.061   9.002  17.859  0.00  0.00    +0.000 C 
BRANCH   5   6
ATOM      6  C   UNL     1       9.008   9.270  19.017  0.00  0.00    +0.000 C 
BRANCH   6   7
ATOM      7  C   UNL     1       9.309  10.709  19.269  0.00  0.00    +0.000 A 
ATOM      8  N   UNL     1       9.418  11.397  20.382  0.00  0.00    +0.000 NA
ATOM      9  C   UNL     1       9.767  12.673  19.934  0.00  0.00    +0.000 A 
ATOM     10  N   UNL     1       9.890  12.747  18.600  0.00  0.00    +0.000 NA
ATOM     11  O   UNL     1       9.588  11.456  18.165  0.00  0.00    +0.000 OA
BRANCH   9  12
ATOM     12  C   UNL     1       9.975  13.794  20.853  0.00  0.00    +0.000 A 
ATOM     13  C   UNL     1      10.864  14.790  20.514  0.00  0.00    +0.000 A 
ATOM     14  C   UNL     1      11.077  15.918  21.324  0.00  0.00    +0.000 A 
ATOM     15  C   UNL     1      10.418  16.074  22.519  0.00  0.00    +0.000 A 
ATOM     16  C   UNL     1       9.522  15.090  22.902  0.00  0.00    +0.000 A 
ATOM     17  C   UNL     1       9.294  13.969  22.077  0.00  0.00    +0.000 A 
ENDBRANCH   9  12
ENDBRANCH   6   7
ENDBRANCH   5   6
ENDBRANCH   2   5
BRANCH   3  18
ATOM     18  C   UNL     1       6.474   5.967  16.303  0.00  0.00    +0.000 C 
BRANCH  18  19
ATOM     19  C   UNL     1       4.982   5.709  16.581  0.00  0.00    +0.000 C 
BRANCH  19  20
ATOM     20  C   UNL     1       4.736   4.761  17.718  0.00  0.00    +0.000 A 
ATOM     21  C   UNL     1       5.701   3.991  18.333  0.00  0.00    +0.000 A 
ATOM     22  N   UNL     1       5.107   3.407  19.420  0.00  0.00    +0.000 N 
ATOM     23  C   UNL     1       3.742   3.335  19.194  0.00  0.00    +0.000 A 
ATOM     24  C   UNL     1       2.754   2.430  19.643  0.00  0.00    +0.000 A 
ATOM     25  C   UNL     1       1.517   2.454  19.003  0.00  0.00    +0.000 A 
ATOM     26  C   UNL     1       1.173   3.533  18.203  0.00  0.00    +0.000 A 
ATOM     27  C   UNL     1       2.123   4.512  17.875  0.00  0.00    +0.000 A 
ATOM     28  C   UNL     1       3.471   4.307  18.234  0.00  0.00    +0.000 A 
ATOM     29  H   UNL     1       5.619   2.860  20.096  0.00  0.00    +0.000 HD
ENDBRANCH  19  20
ENDBRANCH  18  19
ENDBRANCH   3  18
TORSDOF 7
ENDMDL
MODEL 9
REMARK VINA RESULT:      -7.6      2.250      7.006
REMARK  Name = 
REMARK  7 active torsions:
REMARK  status: ('A' for Active; 'I' for Inactive)
REMARK    1  A    between atoms: C_2  and  C_3
REMARK    2  A    between atoms: C_3  and  C_4
REMARK    3  A    between atoms: C_4  and  C_5
REMARK    4  A    between atoms: C_7  and  C_8
REMARK    5  A    between atoms: N_16  and  C_17
REMARK    6  A    between atoms: C_17  and  C_18
REMARK    7  A    between atoms: C_18  and  C_19
REMARK                            x       y       z     vdW  Elec       q    Type
REMARK                         _______ _______ _______ _____ _____    ______ ____
ROOT
ATOM      1  O   UNL     1       1.132   2.841  17.971  0.00  0.00    +0.000 OA
ATOM      2  C   UNL     1       2.036   2.587  18.764  0.00  0.00    +0.000 C 
ATOM      3  N   UNL     1       3.366   2.638  18.478  0.00  0.00    +0.000 N 
ATOM      4  H   UNL     1       3.940   2.058  19.074  0.00  0.00    +0.000 HD
ENDROOT
BRANCH   2   5
ATOM      5  C   UNL     1       1.761   2.217  20.203  0.00  0.00    +0.000 C 
BRANCH   5   6
ATOM      6  C   UNL     1       2.221   3.289  21.177  0.00  0.00    +0.000 C 
BRANCH   6   7
ATOM      7  C   UNL     1       2.412   4.645  20.584  0.00  0.00    +0.000 A 
ATOM      8  N   UNL     1       1.601   5.671  20.472  0.00  0.00    +0.000 NA
ATOM      9  C   UNL     1       2.403   6.646  19.875  0.00  0.00    +0.000 A 
ATOM     10  N   UNL     1       3.660   6.233  19.658  0.00  0.00    +0.000 NA
ATOM     11  O   UNL     1       3.664   4.918  20.124  0.00  0.00    +0.000 OA
BRANCH   9  12
ATOM     12  C   UNL     1       1.894   7.977  19.536  0.00  0.00    +0.000 A 
ATOM     13  C   UNL     1       2.079   8.467  18.262  0.00  0.00    +0.000 A 
ATOM     14  C   UNL     1       1.577   9.714  17.853  0.00  0.00    +0.000 A 
ATOM     15  C   UNL     1       0.888  10.526  18.721  0.00  0.00    +0.000 A 
ATOM     16  C   UNL     1       0.691  10.076  20.016  0.00  0.00    +0.000 A 
ATOM     17  C   UNL     1       1.177   8.814  20.418  0.00  0.00    +0.000 A 
ENDBRANCH   9  12
ENDBRANCH   6   7
ENDBRANCH   5   6
ENDBRANCH   2   5
BRANCH   3  18
ATOM     18  C   UNL     1       3.875   2.839  17.154  0.00  0.00    +0.000 C 
BRANCH  18  19
ATOM     19  C   UNL     1       3.953   4.333  16.787  0.00  0.00    +0.000 C 
BRANCH  19  20
ATOM     20  C   UNL     1       5.276   4.742  16.210  0.00  0.00    +0.000 A 
ATOM     21  C   UNL     1       6.042   5.801  16.652  0.00  0.00    +0.000 A 
ATOM     22  N   UNL     1       7.237   5.729  15.987  0.00  0.00    +0.000 N 
ATOM     23  C   UNL     1       7.044   5.042  14.799  0.00  0.00    +0.000 A 
ATOM     24  C   UNL     1       7.692   5.115  13.546  0.00  0.00    +0.000 A 
ATOM     25  C   UNL     1       7.073   4.498  12.461  0.00  0.00    +0.000 A 
ATOM     26  C   UNL     1       6.052   3.585  12.675  0.00  0.00    +0.000 A 
ATOM     27  C   UNL     1       5.505   3.409  13.955  0.00  0.00    +0.000 A 
ATOM     28  C   UNL     1       5.891   4.284  14.991  0.00  0.00    +0.000 A 
ATOM     29  H   UNL     1       8.016   6.338  16.191  0.00  0.00    +0.000 HD
ENDBRANCH  19  20
ENDBRANCH  18  19
ENDBRANCH   3  18
TORSDOF 7
ENDMDL
