MODEL 1
REMARK VINA RESULT:      -8.3      0.000      0.000
REMARK  Name = 
REMARK  4 active torsions:
REMARK  status: ('A' for Active; 'I' for Inactive)
REMARK    1  A    between atoms: C_5  and  C_6
REMARK    2  A    between atoms: C_6  and  N_7
REMARK    3  A    between atoms: C_6  and  C_21
REMARK    4  A    between atoms: C_14  and  C_15
REMARK                            x       y       z     vdW  Elec       q    Type
REMARK                         _______ _______ _______ _____ _____    ______ ____
ROOT
ATOM      1  N   UNL     1       4.814   3.496  16.441  0.00  0.00    +0.000 N 
ATOM      2  C   UNL     1       4.001   3.437  17.547  0.00  0.00    +0.000 A 
ATOM      3  C   UNL     1       3.781   2.075  18.145  0.00  0.00    +0.000 A 
ATOM      4  C   UNL     1       2.920   1.939  19.158  0.00  0.00    +0.000 A 
ATOM      5  C   UNL     1       2.266   3.083  19.645  0.00  0.00    +0.000 A 
ATOM      6  N   UNL     1       1.361   3.253  20.582  0.00  0.00    +0.000 NA
ATOM      7  N   UNL     1       1.140   4.603  20.700  0.00  0.00    +0.000 NA
ATOM      8  C   UNL     1       1.923   5.225  19.832  0.00  0.00    +0.000 A 
ATOM      9  N   UNL     1       2.611   4.299  19.092  0.00  0.00    +0.000 N 
ATOM     10  N   UNL     1       3.458   4.518  18.040  0.00  0.00    +0.000 NA
ATOM     11  H   UNL     1       5.361   2.667  16.239  0.00  0.00    +0.000 HD
ENDROOT
BRANCH   8  12
ATOM     12  C   UNL     1       2.137   6.665  19.653  0.00  0.00    +0.000 C 
ATOM     13  F   UNL     1       1.738   7.096  18.425  0.00  0.00    +0.000 F 
ATOM     14  F   UNL     1       1.429   7.402  20.554  0.00  0.00    +0.000 F 
ATOM     15  F   UNL     1       3.438   7.032  19.778  0.00  0.00    +0.000 F 
ENDBRANCH   8  12
BRANCH   1  16
ATOM     16  C   UNL     1       5.460   4.710  15.947  0.00  0.00    +0.000 C 
BRANCH  16  21
ATOM     17  F   UNL     1       7.645   4.101  10.752  0.00  0.00    +0.000 F 
ATOM     18  C   UNL     1       7.168   4.215  11.997  0.00  0.00    +0.000 A 
ATOM     19  C   UNL     1       6.046   3.485  12.369  0.00  0.00    +0.000 A 
ATOM     20  C   UNL     1       5.528   3.624  13.659  0.00  0.00    +0.000 A 
ATOM     21  C   UNL     1       6.128   4.499  14.587  0.00  0.00    +0.000 A 
ATOM     22  C   UNL     1       7.268   5.218  14.186  0.00  0.00    +0.000 A 
ATOM     23  C   UNL     1       7.782   5.076  12.894  0.00  0.00    +0.000 A 
ENDBRANCH  16  21
BRANCH  16  24
ATOM     24  C   UNL     1       6.475   5.211  16.973  0.00  0.00    +0.000 A 
ATOM     25  C   UNL     1       7.362   4.478  17.744  0.00  0.00    +0.000 A 
ATOM     26  C   UNL     1       8.096   5.292  18.652  0.00  0.00    +0.000 A 
ATOM     27  C   UNL     1       7.761   6.621  18.539  0.00  0.00    +0.000 A 
ATOM     28  S   UNL     1       6.566   6.883  17.344  0.00  0.00    +0.000 S 
ENDBRANCH  16  24
ENDBRANCH   1  16
TORSDOF 4
ENDMDL
MODEL 2
REMARK VINA RESULT:      -8.2      3.636      5.841
REMARK  Name = 
REMARK  4 active torsions:
REMARK  status: ('A' for Active; 'I' for Inactive)
REMARK    1  A    between atoms: C_5  and  C_6
REMARK    2  A    between atoms: C_6  and  N_7
REMARK    3  A    between atoms: C_6  and  C_21
REMARK    4  A    between atoms: C_14  and  C_15
REMARK                            x       y       z     vdW  Elec       q    Type
REMARK                         _______ _______ _______ _____ _____    ______ ____
ROOT
ATOM      1  N   UNL     1       2.634   7.664  18.081  0.00  0.00    +0.000 N 
ATOM      2  C   UNL     1       1.658   8.503  18.562  0.00  0.00    +0.000 A 
ATOM      3  C   UNL     1       0.805   9.196  17.535  0.00  0.00    +0.000 A 
ATOM      4  C   UNL     1      -0.093  10.100  17.936  0.00  0.00    +0.000 A 
ATOM      5  C   UNL     1      -0.224  10.357  19.311  0.00  0.00    +0.000 A 
ATOM      6  N   UNL     1      -0.974  11.197  19.987  0.00  0.00    +0.000 NA
ATOM      7  N   UNL     1      -0.758  10.960  21.322  0.00  0.00    +0.000 NA
ATOM      8  C   UNL     1       0.118   9.971  21.427  0.00  0.00    +0.000 A 
ATOM      9  N   UNL     1       0.537   9.599  20.176  0.00  0.00    +0.000 N 
ATOM     10  N   UNL     1       1.493   8.676  19.846  0.00  0.00    +0.000 NA
ATOM     11  H   UNL     1       2.574   7.418  17.101  0.00  0.00    +0.000 HD
ENDROOT
BRANCH   8  12
ATOM     12  C   UNL     1       0.584   9.280  22.633  0.00  0.00    +0.000 C 
ATOM     13  F   UNL     1      -0.017   9.749  23.760  0.00  0.00    +0.000 F 
ATOM     14  F   UNL     1       0.313   7.946  22.594  0.00  0.00    +0.000 F 
ATOM     15  F   UNL     1       1.921   9.405  22.838  0.00  0.00    +0.000 F 
ENDBRANCH   8  12
BRANCH   1  16
ATOM     16  C   UNL     1       3.298   6.626  18.866  0.00  0.00    +0.000 C 
BRANCH  16  21
ATOM     17  F   UNL     1       7.820   4.327  16.335  0.00  0.00    +0.000 F 
ATOM     18  C   UNL     1       6.778   4.916  16.935  0.00  0.00    +0.000 A 
ATOM     19  C   UNL     1       6.534   4.668  18.279  0.00  0.00    +0.000 A 
ATOM     20  C   UNL     1       5.431   5.257  18.901  0.00  0.00    +0.000 A 
ATOM     21  C   UNL     1       4.559   6.097  18.179  0.00  0.00    +0.000 A 
ATOM     22  C   UNL     1       4.835   6.338  16.821  0.00  0.00    +0.000 A 
ATOM     23  C   UNL     1       5.940   5.744  16.203  0.00  0.00    +0.000 A 
ENDBRANCH  16  21
BRANCH  16  24
ATOM     24  C   UNL     1       2.322   5.486  19.150  0.00  0.00    +0.000 A 
ATOM     25  C   UNL     1       1.734   5.129  20.353  0.00  0.00    +0.000 A 
ATOM     26  C   UNL     1       0.939   3.953  20.242  0.00  0.00    +0.000 A 
ATOM     27  C   UNL     1       0.931   3.456  18.959  0.00  0.00    +0.000 A 
ATOM     28  S   UNL     1       1.877   4.404  17.896  0.00  0.00    +0.000 S 
ENDBRANCH  16  24
ENDBRANCH   1  16
TORSDOF 4
ENDMDL
MODEL 3
REMARK VINA RESULT:      -8.2      0.185      1.190
REMARK  Name = 
REMARK  4 active torsions:
REMARK  status: ('A' for Active; 'I' for Inactive)
REMARK    1  A    between atoms: C_5  and  C_6
REMARK    2  A    between atoms: C_6  and  N_7
REMARK    3  A    between atoms: C_6  and  C_21
REMARK    4  A    between atoms: C_14  and  C_15
REMARK                            x       y       z     vdW  Elec       q    Type
REMARK                         _______ _______ _______ _____ _____    ______ ____
ROOT
ATOM      1  N   UNL     1       4.601   3.505  16.345  0.00  0.00    +0.000 N 
ATOM      2  C   UNL     1       3.827   3.440  17.478  0.00  0.00    +0.000 A 
ATOM      3  C   UNL     1       3.602   2.070  18.058  0.00  0.00    +0.000 A 
ATOM      4  C   UNL     1       2.776   1.930  19.099  0.00  0.00    +0.000 A 
ATOM      5  C   UNL     1       2.162   3.076  19.631  0.00  0.00    +0.000 A 
ATOM      6  N   UNL     1       1.295   3.245  20.604  0.00  0.00    +0.000 NA
ATOM      7  N   UNL     1       1.104   4.596  20.755  0.00  0.00    +0.000 NA
ATOM      8  C   UNL     1       1.868   5.220  19.872  0.00  0.00    +0.000 A 
ATOM      9  N   UNL     1       2.510   4.296  19.089  0.00  0.00    +0.000 N 
ATOM     10  N   UNL     1       3.323   4.521  18.012  0.00  0.00    +0.000 NA
ATOM     11  H   UNL     1       5.123   2.670  16.108  0.00  0.00    +0.000 HD
ENDROOT
BRANCH   8  12
ATOM     12  C   UNL     1       2.102   6.659  19.713  0.00  0.00    +0.000 C 
ATOM     13  F   UNL     1       3.420   6.981  19.823  0.00  0.00    +0.000 F 
ATOM     14  F   UNL     1       1.710   7.108  18.488  0.00  0.00    +0.000 F 
ATOM     15  F   UNL     1       1.451   7.412  20.636  0.00  0.00    +0.000 F 
ENDBRANCH   8  12
BRANCH   1  16
ATOM     16  C   UNL     1       5.252   4.716  15.852  0.00  0.00    +0.000 C 
BRANCH  16  21
ATOM     17  F   UNL     1       7.802   3.796  10.873  0.00  0.00    +0.000 F 
ATOM     18  C   UNL     1       7.166   4.045  12.024  0.00  0.00    +0.000 A 
ATOM     19  C   UNL     1       7.741   4.905  12.951  0.00  0.00    +0.000 A 
ATOM     20  C   UNL     1       7.094   5.144  14.166  0.00  0.00    +0.000 A 
ATOM     21  C   UNL     1       5.866   4.520  14.464  0.00  0.00    +0.000 A 
ATOM     22  C   UNL     1       5.302   3.661  13.504  0.00  0.00    +0.000 A 
ATOM     23  C   UNL     1       5.955   3.424  12.290  0.00  0.00    +0.000 A 
ENDBRANCH  16  21
BRANCH  16  24
ATOM     24  C   UNL     1       6.312   5.178  16.849  0.00  0.00    +0.000 A 
ATOM     25  C   UNL     1       7.245   4.418  17.536  0.00  0.00    +0.000 A 
ATOM     26  C   UNL     1       8.016   5.195  18.446  0.00  0.00    +0.000 A 
ATOM     27  C   UNL     1       7.661   6.523  18.419  0.00  0.00    +0.000 A 
ATOM     28  S   UNL     1       6.404   6.830  17.301  0.00  0.00    +0.000 S 
ENDBRANCH  16  24
ENDBRANCH   1  16
TORSDOF 4
ENDMDL
MODEL 4
REMARK VINA RESULT:      -7.8      3.561      5.677
REMARK  Name = 
REMARK  4 active torsions:
REMARK  status: ('A' for Active; 'I' for Inactive)
REMARK    1  A    between atoms: C_5  and  C_6
REMARK    2  A    between atoms: C_6  and  N_7
REMARK    3  A    between atoms: C_6  and  C_21
REMARK    4  A    between atoms: C_14  and  C_15
REMARK                            x       y       z     vdW  Elec       q    Type
REMARK                         _______ _______ _______ _____ _____    ______ ____
ROOT
ATOM      1  N   UNL     1       2.782   7.405  18.003  0.00  0.00    +0.000 N 
ATOM      2  C   UNL     1       1.839   8.286  18.475  0.00  0.00    +0.000 A 
ATOM      3  C   UNL     1       0.991   8.979  17.443  0.00  0.00    +0.000 A 
ATOM      4  C   UNL     1       0.128   9.921  17.834  0.00  0.00    +0.000 A 
ATOM      5  C   UNL     1       0.026  10.216  19.203  0.00  0.00    +0.000 A 
ATOM      6  N   UNL     1      -0.688  11.095  19.868  0.00  0.00    +0.000 NA
ATOM      7  N   UNL     1      -0.459  10.885  21.205  0.00  0.00    +0.000 NA
ATOM      8  C   UNL     1       0.387   9.873  21.323  0.00  0.00    +0.000 A 
ATOM      9  N   UNL     1       0.776   9.457  20.077  0.00  0.00    +0.000 N 
ATOM     10  N   UNL     1       1.698   8.497  19.757  0.00  0.00    +0.000 NA
ATOM     11  H   UNL     1       2.699   7.136  17.030  0.00  0.00    +0.000 HD
ENDROOT
BRANCH   8  12
ATOM     12  C   UNL     1       0.850   9.199  22.540  0.00  0.00    +0.000 C 
ATOM     13  F   UNL     1       0.193   9.631  23.650  0.00  0.00    +0.000 F 
ATOM     14  F   UNL     1       0.647   7.854  22.487  0.00  0.00    +0.000 F 
ATOM     15  F   UNL     1       2.172   9.389  22.786  0.00  0.00    +0.000 F 
ENDBRANCH   8  12
BRANCH   1  16
ATOM     16  C   UNL     1       3.425   6.368  18.804  0.00  0.00    +0.000 C 
BRANCH  16  21
ATOM     17  F   UNL     1       8.100   4.568  16.148  0.00  0.00    +0.000 F 
ATOM     18  C   UNL     1       6.982   4.943  16.784  0.00  0.00    +0.000 A 
ATOM     19  C   UNL     1       5.896   5.395  16.047  0.00  0.00    +0.000 A 
ATOM     20  C   UNL     1       4.739   5.815  16.709  0.00  0.00    +0.000 A 
ATOM     21  C   UNL     1       4.663   5.789  18.116  0.00  0.00    +0.000 A 
ATOM     22  C   UNL     1       5.776   5.318  18.837  0.00  0.00    +0.000 A 
ATOM     23  C   UNL     1       6.931   4.901  18.169  0.00  0.00    +0.000 A 
ENDBRANCH  16  21
BRANCH  16  24
ATOM     24  C   UNL     1       2.421   5.262  19.124  0.00  0.00    +0.000 A 
ATOM     25  C   UNL     1       1.745   4.427  18.249  0.00  0.00    +0.000 A 
ATOM     26  C   UNL     1       0.823   3.570  18.917  0.00  0.00    +0.000 A 
ATOM     27  C   UNL     1       0.834   3.766  20.278  0.00  0.00    +0.000 A 
ATOM     28  S   UNL     1       1.948   4.975  20.747  0.00  0.00    +0.000 S 
ENDBRANCH  16  24
ENDBRANCH   1  16
TORSDOF 4
ENDMDL
MODEL 5
REMARK VINA RESULT:      -7.8      0.645      1.108
REMARK  Name = 
REMARK  4 active torsions:
REMARK  status: ('A' for Active; 'I' for Inactive)
REMARK    1  A    between atoms: C_5  and  C_6
REMARK    2  A    between atoms: C_6  and  N_7
REMARK    3  A    between atoms: C_6  and  C_21
REMARK    4  A    between atoms: C_14  and  C_15
REMARK                            x       y       z     vdW  Elec       q    Type
REMARK                         _______ _______ _______ _____ _____    ______ ____
ROOT
ATOM      1  N   UNL     1       4.609   3.618  16.350  0.00  0.00    +0.000 N 
ATOM      2  C   UNL     1       3.875   3.595  17.511  0.00  0.00    +0.000 A 
ATOM      3  C   UNL     1       3.711   2.255  18.174  0.00  0.00    +0.000 A 
ATOM      4  C   UNL     1       2.924   2.151  19.249  0.00  0.00    +0.000 A 
ATOM      5  C   UNL     1       2.294   3.307  19.737  0.00  0.00    +0.000 A 
ATOM      6  N   UNL     1       1.455   3.505  20.728  0.00  0.00    +0.000 NA
ATOM      7  N   UNL     1       1.227   4.857  20.810  0.00  0.00    +0.000 NA
ATOM      8  C   UNL     1       1.943   5.452  19.868  0.00  0.00    +0.000 A 
ATOM      9  N   UNL     1       2.586   4.503  19.116  0.00  0.00    +0.000 N 
ATOM     10  N   UNL     1       3.356   4.690  18.000  0.00  0.00    +0.000 NA
ATOM     11  H   UNL     1       5.149   2.787  16.141  0.00  0.00    +0.000 HD
ENDROOT
BRANCH   8  12
ATOM     12  C   UNL     1       2.128   6.885  19.621  0.00  0.00    +0.000 C 
ATOM     13  F   UNL     1       3.438   7.250  19.664  0.00  0.00    +0.000 F 
ATOM     14  F   UNL     1       1.680   7.254  18.389  0.00  0.00    +0.000 F 
ATOM     15  F   UNL     1       1.487   7.671  20.525  0.00  0.00    +0.000 F 
ENDBRANCH   8  12
BRANCH   1  16
ATOM     16  C   UNL     1       5.206   4.817  15.768  0.00  0.00    +0.000 C 
BRANCH  16  21
ATOM     17  F   UNL     1       7.725   3.882  10.775  0.00  0.00    +0.000 F 
ATOM     18  C   UNL     1       7.166   4.073  11.977  0.00  0.00    +0.000 A 
ATOM     19  C   UNL     1       5.997   3.398  12.302  0.00  0.00    +0.000 A 
ATOM     20  C   UNL     1       5.396   3.617  13.544  0.00  0.00    +0.000 A 
ATOM     21  C   UNL     1       5.960   4.518  14.470  0.00  0.00    +0.000 A 
ATOM     22  C   UNL     1       7.149   5.181  14.117  0.00  0.00    +0.000 A 
ATOM     23  C   UNL     1       7.746   4.959  12.873  0.00  0.00    +0.000 A 
ENDBRANCH  16  21
BRANCH  16  24
ATOM     24  C   UNL     1       6.131   5.483  16.785  0.00  0.00    +0.000 A 
ATOM     25  C   UNL     1       6.285   6.831  17.063  0.00  0.00    +0.000 A 
ATOM     26  C   UNL     1       7.307   7.076  18.024  0.00  0.00    +0.000 A 
ATOM     27  C   UNL     1       7.893   5.910  18.460  0.00  0.00    +0.000 A 
ATOM     28  S   UNL     1       7.212   4.530  17.715  0.00  0.00    +0.000 S 
ENDBRANCH  16  24
ENDBRANCH   1  16
TORSDOF 4
ENDMDL
MODEL 6
REMARK VINA RESULT:      -7.8      2.900      7.511
REMARK  Name = 
REMARK  4 active torsions:
REMARK  status: ('A' for Active; 'I' for Inactive)
REMARK    1  A    between atoms: C_5  and  C_6
REMARK    2  A    between atoms: C_6  and  N_7
REMARK    3  A    between atoms: C_6  and  C_21
REMARK    4  A    between atoms: C_14  and  C_15
REMARK                            x       y       z     vdW  Elec       q    Type
REMARK                         _______ _______ _______ _____ _____    ______ ____
ROOT
ATOM      1  N   UNL     1       4.047   6.291  19.569  0.00  0.00    +0.000 N 
ATOM      2  C   UNL     1       5.104   5.722  18.901  0.00  0.00    +0.000 A 
ATOM      3  C   UNL     1       6.294   5.334  19.736  0.00  0.00    +0.000 A 
ATOM      4  C   UNL     1       7.392   4.871  19.132  0.00  0.00    +0.000 A 
ATOM      5  C   UNL     1       7.388   4.741  17.733  0.00  0.00    +0.000 A 
ATOM      6  N   UNL     1       8.308   4.359  16.877  0.00  0.00    +0.000 NA
ATOM      7  N   UNL     1       7.729   4.337  15.632  0.00  0.00    +0.000 NA
ATOM      8  C   UNL     1       6.462   4.700  15.763  0.00  0.00    +0.000 A 
ATOM      9  N   UNL     1       6.214   5.031  17.069  0.00  0.00    +0.000 N 
ATOM     10  N   UNL     1       5.061   5.533  17.609  0.00  0.00    +0.000 NA
ATOM     11  H   UNL     1       4.061   6.218  20.579  0.00  0.00    +0.000 HD
ENDROOT
BRANCH   8  12
ATOM     12  C   UNL     1       5.403   4.724  14.748  0.00  0.00    +0.000 C 
ATOM     13  F   UNL     1       4.312   4.004  15.127  0.00  0.00    +0.000 F 
ATOM     14  F   UNL     1       4.952   5.986  14.510  0.00  0.00    +0.000 F 
ATOM     15  F   UNL     1       5.796   4.213  13.553  0.00  0.00    +0.000 F 
ENDBRANCH   8  12
BRANCH   1  16
ATOM     16  C   UNL     1       2.686   6.383  19.046  0.00  0.00    +0.000 C 
BRANCH  16  21
ATOM     17  F   UNL     1      -0.394  10.772  20.887  0.00  0.00    +0.000 F 
ATOM     18  C   UNL     1       0.375   9.755  20.478  0.00  0.00    +0.000 A 
ATOM     19  C   UNL     1       0.844   9.735  19.171  0.00  0.00    +0.000 A 
ATOM     20  C   UNL     1       1.622   8.661  18.732  0.00  0.00    +0.000 A 
ATOM     21  C   UNL     1       1.933   7.594  19.599  0.00  0.00    +0.000 A 
ATOM     22  C   UNL     1       1.453   7.645  20.920  0.00  0.00    +0.000 A 
ATOM     23  C   UNL     1       0.674   8.722  21.353  0.00  0.00    +0.000 A 
ENDBRANCH  16  21
BRANCH  16  24
ATOM     24  C   UNL     1       1.926   5.093  19.347  0.00  0.00    +0.000 A 
ATOM     25  C   UNL     1       1.499   4.605  20.572  0.00  0.00    +0.000 A 
ATOM     26  C   UNL     1       0.891   3.322  20.465  0.00  0.00    +0.000 A 
ATOM     27  C   UNL     1       0.859   2.875  19.164  0.00  0.00    +0.000 A 
ATOM     28  S   UNL     1       1.559   3.997  18.081  0.00  0.00    +0.000 S 
ENDBRANCH  16  24
ENDBRANCH   1  16
TORSDOF 4
ENDMDL
MODEL 7
REMARK VINA RESULT:      -7.7      2.888      7.508
REMARK  Name = 
REMARK  4 active torsions:
REMARK  status: ('A' for Active; 'I' for Inactive)
REMARK    1  A    between atoms: C_5  and  C_6
REMARK    2  A    between atoms: C_6  and  N_7
REMARK    3  A    between atoms: C_6  and  C_21
REMARK    4  A    between atoms: C_14  and  C_15
REMARK                            x       y       z     vdW  Elec       q    Type
REMARK                         _______ _______ _______ _____ _____    ______ ____
ROOT
ATOM      1  N   UNL     1       3.999   6.265  19.551  0.00  0.00    +0.000 N 
ATOM      2  C   UNL     1       5.067   5.704  18.894  0.00  0.00    +0.000 A 
ATOM      3  C   UNL     1       6.257   5.338  19.738  0.00  0.00    +0.000 A 
ATOM      4  C   UNL     1       7.364   4.884  19.144  0.00  0.00    +0.000 A 
ATOM      5  C   UNL     1       7.369   4.742  17.746  0.00  0.00    +0.000 A 
ATOM      6  N   UNL     1       8.299   4.365  16.899  0.00  0.00    +0.000 NA
ATOM      7  N   UNL     1       7.727   4.325  15.651  0.00  0.00    +0.000 NA
ATOM      8  C   UNL     1       6.455   4.674  15.771  0.00  0.00    +0.000 A 
ATOM      9  N   UNL     1       6.196   5.013  17.074  0.00  0.00    +0.000 N 
ATOM     10  N   UNL     1       5.033   5.504  17.603  0.00  0.00    +0.000 NA
ATOM     11  H   UNL     1       4.008   6.200  20.562  0.00  0.00    +0.000 HD
ENDROOT
BRANCH   8  12
ATOM     12  C   UNL     1       5.402   4.676  14.751  0.00  0.00    +0.000 C 
ATOM     13  F   UNL     1       5.826   4.146  13.571  0.00  0.00    +0.000 F 
ATOM     14  F   UNL     1       4.325   3.932  15.127  0.00  0.00    +0.000 F 
ATOM     15  F   UNL     1       4.940   5.920  14.461  0.00  0.00    +0.000 F 
ENDBRANCH   8  12
BRANCH   1  16
ATOM     16  C   UNL     1       2.640   6.335  19.020  0.00  0.00    +0.000 C 
BRANCH  16  21
ATOM     17  F   UNL     1       0.087  10.899  21.209  0.00  0.00    +0.000 F 
ATOM     18  C   UNL     1       0.644   9.807  20.672  0.00  0.00    +0.000 A 
ATOM     19  C   UNL     1       0.951   8.725  21.487  0.00  0.00    +0.000 A 
ATOM     20  C   UNL     1       1.559   7.595  20.934  0.00  0.00    +0.000 A 
ATOM     21  C   UNL     1       1.869   7.541  19.560  0.00  0.00    +0.000 A 
ATOM     22  C   UNL     1       1.538   8.647  18.757  0.00  0.00    +0.000 A 
ATOM     23  C   UNL     1       0.931   9.776  19.315  0.00  0.00    +0.000 A 
ENDBRANCH  16  21
BRANCH  16  24
ATOM     24  C   UNL     1       1.895   5.038  19.327  0.00  0.00    +0.000 A 
ATOM     25  C   UNL     1       1.493   4.540  20.556  0.00  0.00    +0.000 A 
ATOM     26  C   UNL     1       0.893   3.253  20.452  0.00  0.00    +0.000 A 
ATOM     27  C   UNL     1       0.842   2.813  19.150  0.00  0.00    +0.000 A 
ATOM     28  S   UNL     1       1.514   3.947  18.060  0.00  0.00    +0.000 S 
ENDBRANCH  16  24
ENDBRANCH   1  16
TORSDOF 4
ENDMDL
MODEL 8
REMARK VINA RESULT:      -7.7      6.846      9.714
REMARK  Name = 
REMARK  4 active torsions:
REMARK  status: ('A' for Active; 'I' for Inactive)
REMARK    1  A    between atoms: C_5  and  C_6
REMARK    2  A    between atoms: C_6  and  N_7
REMARK    3  A    between atoms: C_6  and  C_21
REMARK    4  A    between atoms: C_14  and  C_15
REMARK                            x       y       z     vdW  Elec       q    Type
REMARK                         _______ _______ _______ _____ _____    ______ ____
ROOT
ATOM      1  N   UNL     1      -0.501  11.839  19.825  0.00  0.00    +0.000 N 
ATOM      2  C   UNL     1      -1.815  11.926  19.431  0.00  0.00    +0.000 A 
ATOM      3  C   UNL     1      -2.746  12.658  20.359  0.00  0.00    +0.000 A 
ATOM      4  C   UNL     1      -4.053  12.688  20.083  0.00  0.00    +0.000 A 
ATOM      5  C   UNL     1      -4.510  12.051  18.917  0.00  0.00    +0.000 A 
ATOM      6  N   UNL     1      -5.711  11.884  18.414  0.00  0.00    +0.000 NA
ATOM      7  N   UNL     1      -5.565  11.258  17.200  0.00  0.00    +0.000 NA
ATOM      8  C   UNL     1      -4.272  11.065  16.991  0.00  0.00    +0.000 A 
ATOM      9  N   UNL     1      -3.564  11.492  18.083  0.00  0.00    +0.000 N 
ATOM     10  N   UNL     1      -2.217  11.396  18.307  0.00  0.00    +0.000 NA
ATOM     11  H   UNL     1      -0.220  12.440  20.590  0.00  0.00    +0.000 HD
ENDROOT
BRANCH   8  12
ATOM     12  C   UNL     1      -3.602  10.540  15.796  0.00  0.00    +0.000 C 
ATOM     13  F   UNL     1      -2.965   9.362  16.038  0.00  0.00    +0.000 F 
ATOM     14  F   UNL     1      -4.481  10.287  14.787  0.00  0.00    +0.000 F 
ATOM     15  F   UNL     1      -2.661  11.383  15.298  0.00  0.00    +0.000 F 
ENDBRANCH   8  12
BRANCH   1  16
ATOM     16  C   UNL     1       0.614  11.530  18.934  0.00  0.00    +0.000 C 
BRANCH  16  21
ATOM     17  F   UNL     1       2.438   6.257  19.938  0.00  0.00    +0.000 F 
ATOM     18  C   UNL     1       2.056   7.519  19.705  0.00  0.00    +0.000 A 
ATOM     19  C   UNL     1       1.436   8.243  20.714  0.00  0.00    +0.000 A 
ATOM     20  C   UNL     1       1.011   9.551  20.465  0.00  0.00    +0.000 A 
ATOM     21  C   UNL     1       1.200  10.142  19.199  0.00  0.00    +0.000 A 
ATOM     22  C   UNL     1       1.839   9.388  18.199  0.00  0.00    +0.000 A 
ATOM     23  C   UNL     1       2.261   8.080  18.453  0.00  0.00    +0.000 A 
ENDBRANCH  16  21
BRANCH  16  24
ATOM     24  C   UNL     1       1.693  12.603  19.062  0.00  0.00    +0.000 A 
ATOM     25  C   UNL     1       2.580  13.058  18.100  0.00  0.00    +0.000 A 
ATOM     26  C   UNL     1       3.500  14.015  18.616  0.00  0.00    +0.000 A 
ATOM     27  C   UNL     1       3.280  14.272  19.950  0.00  0.00    +0.000 A 
ATOM     28  S   UNL     1       1.973  13.364  20.573  0.00  0.00    +0.000 S 
ENDBRANCH  16  24
ENDBRANCH   1  16
TORSDOF 4
ENDMDL
MODEL 9
REMARK VINA RESULT:      -7.6      6.809      9.746
REMARK  Name = 
REMARK  4 active torsions:
REMARK  status: ('A' for Active; 'I' for Inactive)
REMARK    1  A    between atoms: C_5  and  C_6
REMARK    2  A    between atoms: C_6  and  N_7
REMARK    3  A    between atoms: C_6  and  C_21
REMARK    4  A    between atoms: C_14  and  C_15
REMARK                            x       y       z     vdW  Elec       q    Type
REMARK                         _______ _______ _______ _____ _____    ______ ____
ROOT
ATOM      1  N   UNL     1      -0.630  11.891  19.988  0.00  0.00    +0.000 N 
ATOM      2  C   UNL     1      -1.926  11.960  19.537  0.00  0.00    +0.000 A 
ATOM      3  C   UNL     1      -2.906  12.682  20.420  0.00  0.00    +0.000 A 
ATOM      4  C   UNL     1      -4.200  12.694  20.085  0.00  0.00    +0.000 A 
ATOM      5  C   UNL     1      -4.596  12.050  18.902  0.00  0.00    +0.000 A 
ATOM      6  N   UNL     1      -5.771  11.866  18.345  0.00  0.00    +0.000 NA
ATOM      7  N   UNL     1      -5.563  11.240  17.141  0.00  0.00    +0.000 NA
ATOM      8  C   UNL     1      -4.259  11.062  16.990  0.00  0.00    +0.000 A 
ATOM      9  N   UNL     1      -3.606  11.501  18.112  0.00  0.00    +0.000 N 
ATOM     10  N   UNL     1      -2.270  11.423  18.396  0.00  0.00    +0.000 NA
ATOM     11  H   UNL     1      -0.391  12.497  20.764  0.00  0.00    +0.000 HD
ENDROOT
BRANCH   8  12
ATOM     12  C   UNL     1      -3.530  10.545  15.828  0.00  0.00    +0.000 C 
ATOM     13  F   UNL     1      -2.860   9.394  16.112  0.00  0.00    +0.000 F 
ATOM     14  F   UNL     1      -4.364  10.244  14.794  0.00  0.00    +0.000 F 
ATOM     15  F   UNL     1      -2.603  11.413  15.348  0.00  0.00    +0.000 F 
ENDBRANCH   8  12
BRANCH   1  16
ATOM     16  C   UNL     1       0.528  11.594  19.149  0.00  0.00    +0.000 C 
BRANCH  16  21
ATOM     17  F   UNL     1       2.651   6.371  19.739  0.00  0.00    +0.000 F 
ATOM     18  C   UNL     1       2.102   7.583  19.596  0.00  0.00    +0.000 A 
ATOM     19  C   UNL     1       2.214   8.245  18.380  0.00  0.00    +0.000 A 
ATOM     20  C   UNL     1       1.667   9.523  18.237  0.00  0.00    +0.000 A 
ATOM     21  C   UNL     1       1.007  10.150  19.313  0.00  0.00    +0.000 A 
ATOM     22  C   UNL     1       0.901   9.453  20.529  0.00  0.00    +0.000 A 
ATOM     23  C   UNL     1       1.451   8.175  20.668  0.00  0.00    +0.000 A 
ENDBRANCH  16  21
BRANCH  16  24
ATOM     24  C   UNL     1       1.658  12.574  19.459  0.00  0.00    +0.000 A 
ATOM     25  C   UNL     1       2.042  13.093  20.685  0.00  0.00    +0.000 A 
ATOM     26  C   UNL     1       3.093  14.047  20.566  0.00  0.00    +0.000 A 
ATOM     27  C   UNL     1       3.489  14.218  19.260  0.00  0.00    +0.000 A 
ATOM     28  S   UNL     1       2.597  13.232  18.184  0.00  0.00    +0.000 S 
ENDBRANCH  16  24
ENDBRANCH   1  16
TORSDOF 4
ENDMDL
