MODEL 1
REMARK VINA RESULT:      -9.3      0.000      0.000
REMARK  Name = 
REMARK  2 active torsions:
REMARK  status: ('A' for Active; 'I' for Inactive)
REMARK    1  A    between atoms: S_2  and  C_4
REMARK    2  A    between atoms: S_2  and  N_14
REMARK                            x       y       z     vdW  Elec       q    Type
REMARK                         _______ _______ _______ _____ _____    ______ ____
ROOT
ATOM      1  N   UNL     1       3.375   4.704  18.464  0.00  0.00    +0.000 NA
ATOM      2  C   UNL     1       3.039   5.904  17.626  0.00  0.00    +0.000 C 
ATOM      3  C   UNL     1       2.923   7.198  18.473  0.00  0.00    +0.000 C 
ATOM      4  N   UNL     1       2.017   6.973  19.608  0.00  0.00    +0.000 N 
ATOM      5  C   UNL     1       1.418   8.039  20.180  0.00  0.00    +0.000 A 
ATOM      6  N   UNL     1       1.370   9.294  19.779  0.00  0.00    +0.000 NA
ATOM      7  C   UNL     1       0.644   9.924  20.762  0.00  0.00    +0.000 A 
ATOM      8  C   UNL     1       0.277  11.264  20.938  0.00  0.00    +0.000 A 
ATOM      9  C   UNL     1      -0.450  11.600  22.094  0.00  0.00    +0.000 A 
ATOM     10  C   UNL     1      -0.808  10.629  23.039  0.00  0.00    +0.000 A 
ATOM     11  C   UNL     1      -0.468   9.286  22.864  0.00  0.00    +0.000 A 
ATOM     12  C   UNL     1       0.257   9.003  21.716  0.00  0.00    +0.000 A 
ATOM     13  O   UNL     1       0.728   7.791  21.335  0.00  0.00    +0.000 OA
ATOM     14  C   UNL     1       2.379   5.831  20.461  0.00  0.00    +0.000 C 
ATOM     15  C   UNL     1       2.417   4.561  19.602  0.00  0.00    +0.000 C 
ENDROOT
BRANCH   1  17
ATOM     16  O   UNL     1       5.171   3.024  19.177  0.00  0.00    +0.000 OA
ATOM     17  S   UNL     1       5.017   4.409  18.799  0.00  0.00    +0.000 S 
ATOM     18  O   UNL     1       5.504   5.483  19.639  0.00  0.00    +0.000 OA
BRANCH  17  19
ATOM     19  C   UNL     1       5.764   4.577  17.188  0.00  0.00    +0.000 A 
ATOM     20  C   UNL     1       6.865   5.426  17.054  0.00  0.00    +0.000 A 
ATOM     21  C   UNL     1       7.493   5.554  15.815  0.00  0.00    +0.000 A 
ATOM     22  C   UNL     1       7.009   4.869  14.691  0.00  0.00    +0.000 A 
ATOM     23  C   UNL     1       7.643   4.995  13.443  0.00  0.00    +0.000 A 
ATOM     24  C   UNL     1       7.137   4.346  12.316  0.00  0.00    +0.000 A 
ATOM     25  C   UNL     1       5.985   3.571  12.422  0.00  0.00    +0.000 A 
ATOM     26  C   UNL     1       5.349   3.421  13.660  0.00  0.00    +0.000 A 
ATOM     27  C   UNL     1       5.851   4.058  14.812  0.00  0.00    +0.000 A 
ATOM     28  C   UNL     1       5.242   3.908  16.075  0.00  0.00    +0.000 A 
ENDBRANCH  17  19
ENDBRANCH   1  17
TORSDOF 2
ENDMDL
MODEL 2
REMARK VINA RESULT:      -8.3      3.243     10.865
REMARK  Name = 
REMARK  2 active torsions:
REMARK  status: ('A' for Active; 'I' for Inactive)
REMARK    1  A    between atoms: S_2  and  C_4
REMARK    2  A    between atoms: S_2  and  N_14
REMARK                            x       y       z     vdW  Elec       q    Type
REMARK                         _______ _______ _______ _____ _____    ______ ____
ROOT
ATOM      1  N   UNL     1      -0.326   9.662  20.776  0.00  0.00    +0.000 NA
ATOM      2  C   UNL     1      -0.166   8.244  21.243  0.00  0.00    +0.000 C 
ATOM      3  C   UNL     1       1.272   7.710  21.014  0.00  0.00    +0.000 C 
ATOM      4  N   UNL     1       1.677   7.943  19.621  0.00  0.00    +0.000 N 
ATOM      5  C   UNL     1       2.652   7.172  19.092  0.00  0.00    +0.000 A 
ATOM      6  N   UNL     1       3.221   6.085  19.574  0.00  0.00    +0.000 NA
ATOM      7  C   UNL     1       4.150   5.751  18.617  0.00  0.00    +0.000 A 
ATOM      8  C   UNL     1       5.096   4.720  18.553  0.00  0.00    +0.000 A 
ATOM      9  C   UNL     1       5.942   4.673  17.431  0.00  0.00    +0.000 A 
ATOM     10  C   UNL     1       5.842   5.618  16.401  0.00  0.00    +0.000 A 
ATOM     11  C   UNL     1       4.887   6.637  16.440  0.00  0.00    +0.000 A 
ATOM     12  C   UNL     1       4.082   6.650  17.569  0.00  0.00    +0.000 A 
ATOM     13  O   UNL     1       3.108   7.547  17.858  0.00  0.00    +0.000 OA
ATOM     14  C   UNL     1       1.573   9.342  19.181  0.00  0.00    +0.000 C 
ATOM     15  C   UNL     1       0.124   9.813  19.359  0.00  0.00    +0.000 C 
ENDROOT
BRANCH   1  17
ATOM     16  O   UNL     1       1.045  11.782  21.201  0.00  0.00    +0.000 OA
ATOM     17  S   UNL     1       0.106  10.903  21.856  0.00  0.00    +0.000 S 
ATOM     18  O   UNL     1       0.400  10.299  23.139  0.00  0.00    +0.000 OA
BRANCH  17  19
ATOM     19  C   UNL     1      -1.418  11.817  22.006  0.00  0.00    +0.000 A 
ATOM     20  C   UNL     1      -1.793  12.656  20.954  0.00  0.00    +0.000 A 
ATOM     21  C   UNL     1      -2.996  13.359  21.026  0.00  0.00    +0.000 A 
ATOM     22  C   UNL     1      -3.817  13.264  22.158  0.00  0.00    +0.000 A 
ATOM     23  C   UNL     1      -5.031  13.969  22.229  0.00  0.00    +0.000 A 
ATOM     24  C   UNL     1      -5.828  13.906  23.373  0.00  0.00    +0.000 A 
ATOM     25  C   UNL     1      -5.416  13.144  24.463  0.00  0.00    +0.000 A 
ATOM     26  C   UNL     1      -4.218  12.423  24.404  0.00  0.00    +0.000 A 
ATOM     27  C   UNL     1      -3.406  12.463  23.254  0.00  0.00    +0.000 A 
ATOM     28  C   UNL     1      -2.204  11.730  23.161  0.00  0.00    +0.000 A 
ENDBRANCH  17  19
ENDBRANCH   1  17
TORSDOF 2
ENDMDL
MODEL 3
REMARK VINA RESULT:      -8.1      3.338     10.695
REMARK  Name = 
REMARK  2 active torsions:
REMARK  status: ('A' for Active; 'I' for Inactive)
REMARK    1  A    between atoms: S_2  and  C_4
REMARK    2  A    between atoms: S_2  and  N_14
REMARK                            x       y       z     vdW  Elec       q    Type
REMARK                         _______ _______ _______ _____ _____    ______ ____
ROOT
ATOM      1  N   UNL     1      -0.145  10.160  19.732  0.00  0.00    +0.000 NA
ATOM      2  C   UNL     1       0.008   8.869  20.483  0.00  0.00    +0.000 C 
ATOM      3  C   UNL     1       1.448   8.301  20.385  0.00  0.00    +0.000 C 
ATOM      4  N   UNL     1       1.869   8.242  18.978  0.00  0.00    +0.000 N 
ATOM      5  C   UNL     1       2.848   7.380  18.630  0.00  0.00    +0.000 A 
ATOM      6  N   UNL     1       3.411   6.416  19.332  0.00  0.00    +0.000 NA
ATOM      7  C   UNL     1       4.350   5.893  18.475  0.00  0.00    +0.000 A 
ATOM      8  C   UNL     1       5.295   4.872  18.635  0.00  0.00    +0.000 A 
ATOM      9  C   UNL     1       6.154   4.596  17.556  0.00  0.00    +0.000 A 
ATOM     10  C   UNL     1       6.066   5.309  16.352  0.00  0.00    +0.000 A 
ATOM     11  C   UNL     1       5.112   6.313  16.171  0.00  0.00    +0.000 A 
ATOM     12  C   UNL     1       4.295   6.557  17.264  0.00  0.00    +0.000 A 
ATOM     13  O   UNL     1       3.318   7.493  17.350  0.00  0.00    +0.000 OA
ATOM     14  C   UNL     1       1.771   9.521  18.258  0.00  0.00    +0.000 C 
ATOM     15  C   UNL     1       0.321  10.016  18.319  0.00  0.00    +0.000 C 
ENDROOT
BRANCH   1  17
ATOM     16  O   UNL     1       0.482  12.636  19.556  0.00  0.00    +0.000 OA
ATOM     17  S   UNL     1       0.276  11.598  20.538  0.00  0.00    +0.000 S 
ATOM     18  O   UNL     1       1.284  11.279  21.527  0.00  0.00    +0.000 OA
BRANCH  17  19
ATOM     19  C   UNL     1      -1.235  12.005  21.393  0.00  0.00    +0.000 A 
ATOM     20  C   UNL     1      -1.303  11.769  22.768  0.00  0.00    +0.000 A 
ATOM     21  C   UNL     1      -2.459  12.108  23.471  0.00  0.00    +0.000 A 
ATOM     22  C   UNL     1      -3.571  12.647  22.809  0.00  0.00    +0.000 A 
ATOM     23  C   UNL     1      -4.734  12.992  23.518  0.00  0.00    +0.000 A 
ATOM     24  C   UNL     1      -5.855  13.490  22.852  0.00  0.00    +0.000 A 
ATOM     25  C   UNL     1      -5.828  13.641  21.468  0.00  0.00    +0.000 A 
ATOM     26  C   UNL     1      -4.673  13.319  20.748  0.00  0.00    +0.000 A 
ATOM     27  C   UNL     1      -3.527  12.826  21.402  0.00  0.00    +0.000 A 
ATOM     28  C   UNL     1      -2.343  12.511  20.703  0.00  0.00    +0.000 A 
ENDBRANCH  17  19
ENDBRANCH   1  17
TORSDOF 2
ENDMDL
MODEL 4
REMARK VINA RESULT:      -8.0      3.327     10.815
REMARK  Name = 
REMARK  2 active torsions:
REMARK  status: ('A' for Active; 'I' for Inactive)
REMARK    1  A    between atoms: S_2  and  C_4
REMARK    2  A    between atoms: S_2  and  N_14
REMARK                            x       y       z     vdW  Elec       q    Type
REMARK                         _______ _______ _______ _____ _____    ______ ____
ROOT
ATOM      1  N   UNL     1      -0.194  10.465  19.746  0.00  0.00    +0.000 NA
ATOM      2  C   UNL     1      -0.159   9.229  20.599  0.00  0.00    +0.000 C 
ATOM      3  C   UNL     1       1.230   8.538  20.575  0.00  0.00    +0.000 C 
ATOM      4  N   UNL     1       1.663   8.334  19.185  0.00  0.00    +0.000 N 
ATOM      5  C   UNL     1       2.571   7.370  18.925  0.00  0.00    +0.000 A 
ATOM      6  N   UNL     1       3.042   6.422  19.711  0.00  0.00    +0.000 NA
ATOM      7  C   UNL     1       3.945   5.757  18.916  0.00  0.00    +0.000 A 
ATOM      8  C   UNL     1       4.800   4.678  19.174  0.00  0.00    +0.000 A 
ATOM      9  C   UNL     1       5.647   4.247  18.138  0.00  0.00    +0.000 A 
ATOM     10  C   UNL     1       5.636   4.867  16.881  0.00  0.00    +0.000 A 
ATOM     11  C   UNL     1       4.772   5.928  16.602  0.00  0.00    +0.000 A 
ATOM     12  C   UNL     1       3.962   6.325  17.656  0.00  0.00    +0.000 A 
ATOM     13  O   UNL     1       3.067   7.342  17.650  0.00  0.00    +0.000 OA
ATOM     14  C   UNL     1       1.682   9.556  18.366  0.00  0.00    +0.000 C 
ATOM     15  C   UNL     1       0.278  10.171  18.359  0.00  0.00    +0.000 C 
ENDROOT
BRANCH   1  17
ATOM     16  O   UNL     1       0.752  12.818  19.394  0.00  0.00    +0.000 OA
ATOM     17  S   UNL     1       0.335  11.922  20.447  0.00  0.00    +0.000 S 
ATOM     18  O   UNL     1       1.208  11.597  21.556  0.00  0.00    +0.000 OA
BRANCH  17  19
ATOM     19  C   UNL     1      -1.180  12.592  21.107  0.00  0.00    +0.000 A 
ATOM     20  C   UNL     1      -1.774  13.667  20.442  0.00  0.00    +0.000 A 
ATOM     21  C   UNL     1      -2.978  14.193  20.914  0.00  0.00    +0.000 A 
ATOM     22  C   UNL     1      -3.580  13.680  22.071  0.00  0.00    +0.000 A 
ATOM     23  C   UNL     1      -4.795  14.206  22.544  0.00  0.00    +0.000 A 
ATOM     24  C   UNL     1      -5.373  13.723  23.718  0.00  0.00    +0.000 A 
ATOM     25  C   UNL     1      -4.739  12.713  24.438  0.00  0.00    +0.000 A 
ATOM     26  C   UNL     1      -3.538  12.166  23.974  0.00  0.00    +0.000 A 
ATOM     27  C   UNL     1      -2.944  12.631  22.784  0.00  0.00    +0.000 A 
ATOM     28  C   UNL     1      -1.745  12.084  22.283  0.00  0.00    +0.000 A 
ENDBRANCH  17  19
ENDBRANCH   1  17
TORSDOF 2
ENDMDL
MODEL 5
REMARK VINA RESULT:      -7.9      4.593     10.014
REMARK  Name = 
REMARK  2 active torsions:
REMARK  status: ('A' for Active; 'I' for Inactive)
REMARK    1  A    between atoms: S_2  and  C_4
REMARK    2  A    between atoms: S_2  and  N_14
REMARK                            x       y       z     vdW  Elec       q    Type
REMARK                         _______ _______ _______ _____ _____    ______ ____
ROOT
ATOM      1  N   UNL     1      -0.076  11.881  19.741  0.00  0.00    +0.000 NA
ATOM      2  C   UNL     1      -0.554  10.559  20.270  0.00  0.00    +0.000 C 
ATOM      3  C   UNL     1       0.598   9.528  20.400  0.00  0.00    +0.000 C 
ATOM      4  N   UNL     1       1.342   9.447  19.135  0.00  0.00    +0.000 N 
ATOM      5  C   UNL     1       2.049   8.328  18.871  0.00  0.00    +0.000 A 
ATOM      6  N   UNL     1       2.062   7.170  19.501  0.00  0.00    +0.000 NA
ATOM      7  C   UNL     1       2.979   6.425  18.798  0.00  0.00    +0.000 A 
ATOM      8  C   UNL     1       3.466   5.126  18.985  0.00  0.00    +0.000 A 
ATOM      9  C   UNL     1       4.449   4.657  18.095  0.00  0.00    +0.000 A 
ATOM     10  C   UNL     1       4.924   5.457  17.045  0.00  0.00    +0.000 A 
ATOM     11  C   UNL     1       4.428   6.745  16.833  0.00  0.00    +0.000 A 
ATOM     12  C   UNL     1       3.469   7.168  17.740  0.00  0.00    +0.000 A 
ATOM     13  O   UNL     1       2.859   8.378  17.768  0.00  0.00    +0.000 OA
ATOM     14  C   UNL     1       1.857  10.735  18.647  0.00  0.00    +0.000 C 
ATOM     15  C   UNL     1       0.683  11.704  18.467  0.00  0.00    +0.000 C 
ENDROOT
BRANCH   1  17
ATOM     16  O   UNL     1       1.816  12.510  21.347  0.00  0.00    +0.000 OA
ATOM     17  S   UNL     1       0.549  13.000  20.860  0.00  0.00    +0.000 S 
ATOM     18  O   UNL     1      -0.518  13.373  21.766  0.00  0.00    +0.000 OA
BRANCH  17  19
ATOM     19  C   UNL     1       0.916  14.403  19.823  0.00  0.00    +0.000 A 
ATOM     20  C   UNL     1       2.255  14.692  19.550  0.00  0.00    +0.000 A 
ATOM     21  C   UNL     1       2.574  15.763  18.714  0.00  0.00    +0.000 A 
ATOM     22  C   UNL     1       1.569  16.577  18.174  0.00  0.00    +0.000 A 
ATOM     23  C   UNL     1       1.891  17.653  17.329  0.00  0.00    +0.000 A 
ATOM     24  C   UNL     1       0.893  18.488  16.825  0.00  0.00    +0.000 A 
ATOM     25  C   UNL     1      -0.438  18.262  17.167  0.00  0.00    +0.000 A 
ATOM     26  C   UNL     1      -0.778  17.186  17.994  0.00  0.00    +0.000 A 
ATOM     27  C   UNL     1       0.213  16.324  18.503  0.00  0.00    +0.000 A 
ATOM     28  C   UNL     1      -0.104  15.220  19.323  0.00  0.00    +0.000 A 
ENDBRANCH  17  19
ENDBRANCH   1  17
TORSDOF 2
ENDMDL
MODEL 6
REMARK VINA RESULT:      -7.8      0.624      1.419
REMARK  Name = 
REMARK  2 active torsions:
REMARK  status: ('A' for Active; 'I' for Inactive)
REMARK    1  A    between atoms: S_2  and  C_4
REMARK    2  A    between atoms: S_2  and  N_14
REMARK                            x       y       z     vdW  Elec       q    Type
REMARK                         _______ _______ _______ _____ _____    ______ ____
ROOT
ATOM      1  N   UNL     1       3.566   4.965  18.464  0.00  0.00    +0.000 NA
ATOM      2  C   UNL     1       2.822   5.934  17.591  0.00  0.00    +0.000 C 
ATOM      3  C   UNL     1       2.619   7.308  18.280  0.00  0.00    +0.000 C 
ATOM      4  N   UNL     1       2.035   7.118  19.615  0.00  0.00    +0.000 N 
ATOM      5  C   UNL     1       1.361   8.142  20.179  0.00  0.00    +0.000 A 
ATOM      6  N   UNL     1       0.971   9.286  19.653  0.00  0.00    +0.000 NA
ATOM      7  C   UNL     1       0.352   9.933  20.696  0.00  0.00    +0.000 A 
ATOM      8  C   UNL     1      -0.241  11.198  20.791  0.00  0.00    +0.000 A 
ATOM      9  C   UNL     1      -0.765  11.587  22.037  0.00  0.00    +0.000 A 
ATOM     10  C   UNL     1      -0.708  10.736  23.150  0.00  0.00    +0.000 A 
ATOM     11  C   UNL     1      -0.142   9.463  23.063  0.00  0.00    +0.000 A 
ATOM     12  C   UNL     1       0.371   9.126  21.819  0.00  0.00    +0.000 A 
ATOM     13  O   UNL     1       0.993   7.970  21.486  0.00  0.00    +0.000 OA
ATOM     14  C   UNL     1       2.795   6.212  20.489  0.00  0.00    +0.000 C 
ATOM     15  C   UNL     1       2.916   4.845  19.805  0.00  0.00    +0.000 C 
ENDROOT
BRANCH   1  17
ATOM     16  O   UNL     1       5.779   3.927  19.226  0.00  0.00    +0.000 OA
ATOM     17  S   UNL     1       5.266   5.020  18.435  0.00  0.00    +0.000 S 
ATOM     18  O   UNL     1       5.675   6.388  18.677  0.00  0.00    +0.000 OA
BRANCH  17  19
ATOM     19  C   UNL     1       5.625   4.623  16.734  0.00  0.00    +0.000 A 
ATOM     20  C   UNL     1       4.939   3.559  16.144  0.00  0.00    +0.000 A 
ATOM     21  C   UNL     1       5.173   3.243  14.805  0.00  0.00    +0.000 A 
ATOM     22  C   UNL     1       6.116   3.958  14.053  0.00  0.00    +0.000 A 
ATOM     23  C   UNL     1       6.348   3.643  12.703  0.00  0.00    +0.000 A 
ATOM     24  C   UNL     1       7.316   4.327  11.967  0.00  0.00    +0.000 A 
ATOM     25  C   UNL     1       8.069   5.328  12.574  0.00  0.00    +0.000 A 
ATOM     26  C   UNL     1       7.840   5.667  13.913  0.00  0.00    +0.000 A 
ATOM     27  C   UNL     1       6.860   4.997  14.670  0.00  0.00    +0.000 A 
ATOM     28  C   UNL     1       6.595   5.330  16.015  0.00  0.00    +0.000 A 
ENDBRANCH  17  19
ENDBRANCH   1  17
TORSDOF 2
ENDMDL
MODEL 7
REMARK VINA RESULT:      -7.8      4.021     10.533
REMARK  Name = 
REMARK  2 active torsions:
REMARK  status: ('A' for Active; 'I' for Inactive)
REMARK    1  A    between atoms: S_2  and  C_4
REMARK    2  A    between atoms: S_2  and  N_14
REMARK                            x       y       z     vdW  Elec       q    Type
REMARK                         _______ _______ _______ _____ _____    ______ ____
ROOT
ATOM      1  N   UNL     1       0.947  11.582  19.505  0.00  0.00    +0.000 NA
ATOM      2  C   UNL     1       1.833  11.089  18.397  0.00  0.00    +0.000 C 
ATOM      3  C   UNL     1       1.610   9.584  18.093  0.00  0.00    +0.000 C 
ATOM      4  N   UNL     1       1.696   8.805  19.336  0.00  0.00    +0.000 N 
ATOM      5  C   UNL     1       1.996   7.491  19.256  0.00  0.00    +0.000 A 
ATOM      6  N   UNL     1       2.408   6.781  18.225  0.00  0.00    +0.000 NA
ATOM      7  C   UNL     1       2.531   5.509  18.730  0.00  0.00    +0.000 A 
ATOM      8  C   UNL     1       2.894   4.296  18.131  0.00  0.00    +0.000 A 
ATOM      9  C   UNL     1       2.888   3.139  18.931  0.00  0.00    +0.000 A 
ATOM     10  C   UNL     1       2.538   3.192  20.287  0.00  0.00    +0.000 A 
ATOM     11  C   UNL     1       2.197   4.398  20.903  0.00  0.00    +0.000 A 
ATOM     12  C   UNL     1       2.208   5.510  20.074  0.00  0.00    +0.000 A 
ATOM     13  O   UNL     1       1.889   6.781  20.421  0.00  0.00    +0.000 OA
ATOM     14  C   UNL     1       0.787   9.254  20.401  0.00  0.00    +0.000 C 
ATOM     15  C   UNL     1       1.084  10.724  20.720  0.00  0.00    +0.000 C 
ENDROOT
BRANCH   1  17
ATOM     16  O   UNL     1      -1.452  10.923  18.903  0.00  0.00    +0.000 OA
ATOM     17  S   UNL     1      -0.623  12.090  19.093  0.00  0.00    +0.000 S 
ATOM     18  O   UNL     1      -0.512  13.115  18.077  0.00  0.00    +0.000 OA
BRANCH  17  19
ATOM     19  C   UNL     1      -1.176  12.860  20.604  0.00  0.00    +0.000 A 
ATOM     20  C   UNL     1      -0.587  14.067  20.986  0.00  0.00    +0.000 A 
ATOM     21  C   UNL     1      -1.021  14.711  22.146  0.00  0.00    +0.000 A 
ATOM     22  C   UNL     1      -2.016  14.143  22.953  0.00  0.00    +0.000 A 
ATOM     23  C   UNL     1      -2.456  14.794  24.119  0.00  0.00    +0.000 A 
ATOM     24  C   UNL     1      -3.417  14.209  24.944  0.00  0.00    +0.000 A 
ATOM     25  C   UNL     1      -3.943  12.962  24.618  0.00  0.00    +0.000 A 
ATOM     26  C   UNL     1      -3.529  12.306  23.453  0.00  0.00    +0.000 A 
ATOM     27  C   UNL     1      -2.569  12.885  22.600  0.00  0.00    +0.000 A 
ATOM     28  C   UNL     1      -2.148  12.256  21.410  0.00  0.00    +0.000 A 
ENDBRANCH  17  19
ENDBRANCH   1  17
TORSDOF 2
ENDMDL
MODEL 8
REMARK VINA RESULT:      -7.8      4.146      6.703
REMARK  Name = 
REMARK  2 active torsions:
REMARK  status: ('A' for Active; 'I' for Inactive)
REMARK    1  A    between atoms: S_2  and  C_4
REMARK    2  A    between atoms: S_2  and  N_14
REMARK                            x       y       z     vdW  Elec       q    Type
REMARK                         _______ _______ _______ _____ _____    ______ ____
ROOT
ATOM      1  N   UNL     1       0.694  10.448  20.254  0.00  0.00    +0.000 NA
ATOM      2  C   UNL     1       0.263  11.743  20.882  0.00  0.00    +0.000 C 
ATOM      3  C   UNL     1      -1.279  11.842  21.021  0.00  0.00    +0.000 C 
ATOM      4  N   UNL     1      -1.917  11.548  19.729  0.00  0.00    +0.000 N 
ATOM      5  C   UNL     1      -3.161  12.020  19.500  0.00  0.00    +0.000 A 
ATOM      6  N   UNL     1      -3.879  12.878  20.197  0.00  0.00    +0.000 NA
ATOM      7  C   UNL     1      -5.061  12.959  19.499  0.00  0.00    +0.000 A 
ATOM      8  C   UNL     1      -6.242  13.672  19.741  0.00  0.00    +0.000 A 
ATOM      9  C   UNL     1      -7.306  13.509  18.835  0.00  0.00    +0.000 A 
ATOM     10  C   UNL     1      -7.192  12.668  17.719  0.00  0.00    +0.000 A 
ATOM     11  C   UNL     1      -6.011  11.971  17.453  0.00  0.00    +0.000 A 
ATOM     12  C   UNL     1      -4.994  12.154  18.377  0.00  0.00    +0.000 A 
ATOM     13  O   UNL     1      -3.771  11.570  18.360  0.00  0.00    +0.000 OA
ATOM     14  C   UNL     1      -1.536  10.256  19.141  0.00  0.00    +0.000 C 
ATOM     15  C   UNL     1      -0.014  10.221  18.958  0.00  0.00    +0.000 C 
ENDROOT
BRANCH   1  17
ATOM     16  O   UNL     1      -0.420   8.570  21.589  0.00  0.00    +0.000 OA
ATOM     17  S   UNL     1       0.885   9.100  21.273  0.00  0.00    +0.000 S 
ATOM     18  O   UNL     1       1.831   9.452  22.311  0.00  0.00    +0.000 OA
BRANCH  17  19
ATOM     19  C   UNL     1       1.661   7.917  20.189  0.00  0.00    +0.000 A 
ATOM     20  C   UNL     1       2.135   8.362  18.953  0.00  0.00    +0.000 A 
ATOM     21  C   UNL     1       2.778   7.468  18.095  0.00  0.00    +0.000 A 
ATOM     22  C   UNL     1       2.919   6.118  18.441  0.00  0.00    +0.000 A 
ATOM     23  C   UNL     1       3.570   5.218  17.579  0.00  0.00    +0.000 A 
ATOM     24  C   UNL     1       3.674   3.865  17.906  0.00  0.00    +0.000 A 
ATOM     25  C   UNL     1       3.122   3.395  19.095  0.00  0.00    +0.000 A 
ATOM     26  C   UNL     1       2.486   4.279  19.973  0.00  0.00    +0.000 A 
ATOM     27  C   UNL     1       2.380   5.650  19.668  0.00  0.00    +0.000 A 
ATOM     28  C   UNL     1       1.761   6.566  20.543  0.00  0.00    +0.000 A 
ENDBRANCH  17  19
ENDBRANCH   1  17
TORSDOF 2
ENDMDL
MODEL 9
REMARK VINA RESULT:      -7.7      3.338     10.921
REMARK  Name = 
REMARK  2 active torsions:
REMARK  status: ('A' for Active; 'I' for Inactive)
REMARK    1  A    between atoms: S_2  and  C_4
REMARK    2  A    between atoms: S_2  and  N_14
REMARK                            x       y       z     vdW  Elec       q    Type
REMARK                         _______ _______ _______ _____ _____    ______ ____
ROOT
ATOM      1  N   UNL     1      -0.129  10.526  19.747  0.00  0.00    +0.000 NA
ATOM      2  C   UNL     1      -0.101   9.331  20.656  0.00  0.00    +0.000 C 
ATOM      3  C   UNL     1       1.266   8.599  20.621  0.00  0.00    +0.000 C 
ATOM      4  N   UNL     1       1.646   8.317  19.230  0.00  0.00    +0.000 N 
ATOM      5  C   UNL     1       2.518   7.315  18.988  0.00  0.00    +0.000 A 
ATOM      6  N   UNL     1       2.987   6.391  19.803  0.00  0.00    +0.000 NA
ATOM      7  C   UNL     1       3.845   5.662  19.012  0.00  0.00    +0.000 A 
ATOM      8  C   UNL     1       4.676   4.572  19.295  0.00  0.00    +0.000 A 
ATOM      9  C   UNL     1       5.476   4.067  18.254  0.00  0.00    +0.000 A 
ATOM     10  C   UNL     1       5.440   4.627  16.969  0.00  0.00    +0.000 A 
ATOM     11  C   UNL     1       4.598   5.700  16.668  0.00  0.00    +0.000 A 
ATOM     12  C   UNL     1       3.836   6.170  17.727  0.00  0.00    +0.000 A 
ATOM     13  O   UNL     1       2.969   7.212  17.700  0.00  0.00    +0.000 OA
ATOM     14  C   UNL     1       1.673   9.497  18.353  0.00  0.00    +0.000 C 
ATOM     15  C   UNL     1       0.287  10.154  18.361  0.00  0.00    +0.000 C 
ENDROOT
BRANCH   1  17
ATOM     16  O   UNL     1       0.734  12.885  19.252  0.00  0.00    +0.000 OA
ATOM     17  S   UNL     1       0.464  11.999  20.360  0.00  0.00    +0.000 S 
ATOM     18  O   UNL     1       1.473  11.698  21.353  0.00  0.00    +0.000 OA
BRANCH  17  19
ATOM     19  C   UNL     1      -0.965  12.659  21.197  0.00  0.00    +0.000 A 
ATOM     20  C   UNL     1      -2.215  12.511  20.591  0.00  0.00    +0.000 A 
ATOM     21  C   UNL     1      -3.357  12.987  21.236  0.00  0.00    +0.000 A 
ATOM     22  C   UNL     1      -3.263  13.648  22.469  0.00  0.00    +0.000 A 
ATOM     23  C   UNL     1      -4.414  14.124  23.121  0.00  0.00    +0.000 A 
ATOM     24  C   UNL     1      -4.314  14.817  24.328  0.00  0.00    +0.000 A 
ATOM     25  C   UNL     1      -3.063  15.050  24.893  0.00  0.00    +0.000 A 
ATOM     26  C   UNL     1      -1.908  14.569  24.267  0.00  0.00    +0.000 A 
ATOM     27  C   UNL     1      -1.987  13.856  23.054  0.00  0.00    +0.000 A 
ATOM     28  C   UNL     1      -0.841  13.343  22.411  0.00  0.00    +0.000 A 
ENDBRANCH  17  19
ENDBRANCH   1  17
TORSDOF 2
ENDMDL
