MODEL 1
REMARK VINA RESULT:      -7.9      0.000      0.000
REMARK  Name = 
REMARK  6 active torsions:
REMARK  status: ('A' for Active; 'I' for Inactive)
REMARK    1  A    between atoms: C_1  and  C_2
REMARK    2  A    between atoms: C_2  and  C_3
REMARK    3  A    between atoms: C_3  and  C_4
REMARK    4  A    between atoms: N_13  and  C_14
REMARK    5  A    between atoms: C_14  and  C_15
REMARK    6  A    between atoms: C_22  and  C_23
REMARK                            x       y       z     vdW  Elec       q    Type
REMARK                         _______ _______ _______ _____ _____    ______ ____
ROOT
ATOM      1  C   UNL     1      -0.491  10.886  19.701  0.00  0.00    +0.000 C 
ATOM      2  N   UNL     1      -0.848  10.147  20.888  0.00  0.00    +0.000 N 
ATOM      3  C   UNL     1       0.002   9.129  21.177  0.00  0.00    +0.000 C 
ATOM      4  O   UNL     1      -0.070   8.404  22.161  0.00  0.00    +0.000 OA
ATOM      5  N   UNL     1       0.986   9.094  20.219  0.00  0.00    +0.000 N 
ATOM      6  C   UNL     1       0.837  10.159  19.369  0.00  0.00    +0.000 C 
ATOM      7  O   UNL     1       1.638  10.513  18.514  0.00  0.00    +0.000 OA
ATOM      8  H   UNL     1      -1.645  10.335  21.480  0.00  0.00    +0.000 HD
ENDROOT
BRANCH   1   9
ATOM      9  C   UNL     1      -1.480  10.677  18.553  0.00  0.00    +0.000 A 
ATOM     10  C   UNL     1      -2.632  11.476  18.476  0.00  0.00    +0.000 A 
ATOM     11  C   UNL     1      -3.521  11.364  17.401  0.00  0.00    +0.000 A 
ATOM     12  C   UNL     1      -3.268  10.455  16.378  0.00  0.00    +0.000 A 
ATOM     13  C   UNL     1      -2.137   9.647  16.440  0.00  0.00    +0.000 A 
ATOM     14  C   UNL     1      -1.254   9.752  17.517  0.00  0.00    +0.000 A 
ENDBRANCH   1   9
BRANCH   1  16
ATOM     15  C   UNL     1      -0.623  12.820  21.431  0.00  0.00    +0.000 C 
ATOM     16  C   UNL     1      -0.249  12.382  20.015  0.00  0.00    +0.000 C 
ENDBRANCH   1  16
BRANCH   5  17
ATOM     17  C   UNL     1       2.205   8.316  20.261  0.00  0.00    +0.000 C 
BRANCH  17  18
ATOM     18  C   UNL     1       2.042   6.973  19.607  0.00  0.00    +0.000 A 
ATOM     19  C   UNL     1       1.838   5.916  20.416  0.00  0.00    +0.000 A 
ATOM     20  C   UNL     1       1.328   4.651  19.888  0.00  0.00    +0.000 A 
ATOM     21  O   UNL     1       0.595   3.939  20.561  0.00  0.00    +0.000 OA
ATOM     22  O   UNL     1       1.761   4.319  18.630  0.00  0.00    +0.000 OA
ATOM     23  C   UNL     1       2.671   5.198  18.025  0.00  0.00    +0.000 A 
ATOM     24  C   UNL     1       3.620   4.599  17.213  0.00  0.00    +0.000 A 
ATOM     25  C   UNL     1       4.648   5.377  16.692  0.00  0.00    +0.000 A 
ATOM     26  C   UNL     1       5.850   4.702  16.107  0.00  0.00    +0.000 C 
ATOM     27  C   UNL     1       4.561   6.772  16.799  0.00  0.00    +0.000 A 
ATOM     28  C   UNL     1       3.596   7.369  17.626  0.00  0.00    +0.000 A 
ATOM     29  C   UNL     1       2.705   6.565  18.345  0.00  0.00    +0.000 A 
ENDBRANCH  17  18
ENDBRANCH   5  17
TORSDOF 4
ENDMDL
MODEL 2
REMARK VINA RESULT:      -7.3      3.371      7.844
REMARK  Name = 
REMARK  6 active torsions:
REMARK  status: ('A' for Active; 'I' for Inactive)
REMARK    1  A    between atoms: C_1  and  C_2
REMARK    2  A    between atoms: C_2  and  C_3
REMARK    3  A    between atoms: C_3  and  C_4
REMARK    4  A    between atoms: N_13  and  C_14
REMARK    5  A    between atoms: C_14  and  C_15
REMARK    6  A    between atoms: C_22  and  C_23
REMARK                            x       y       z     vdW  Elec       q    Type
REMARK                         _______ _______ _______ _____ _____    ______ ____
ROOT
ATOM      1  C   UNL     1       6.154   5.213  16.231  0.00  0.00    +0.000 C 
ATOM      2  N   UNL     1       6.084   3.823  16.612  0.00  0.00    +0.000 N 
ATOM      3  C   UNL     1       4.873   3.446  17.094  0.00  0.00    +0.000 C 
ATOM      4  O   UNL     1       4.565   2.309  17.426  0.00  0.00    +0.000 OA
ATOM      5  N   UNL     1       4.039   4.537  17.085  0.00  0.00    +0.000 N 
ATOM      6  C   UNL     1       4.676   5.596  16.493  0.00  0.00    +0.000 C 
ATOM      7  O   UNL     1       4.159   6.660  16.177  0.00  0.00    +0.000 OA
ATOM      8  H   UNL     1       6.840   3.155  16.541  0.00  0.00    +0.000 HD
ENDROOT
BRANCH   1   9
ATOM      9  C   UNL     1       7.059   6.035  17.153  0.00  0.00    +0.000 A 
ATOM     10  C   UNL     1       7.333   7.375  16.840  0.00  0.00    +0.000 A 
ATOM     11  C   UNL     1       8.094   8.178  17.697  0.00  0.00    +0.000 A 
ATOM     12  C   UNL     1       8.588   7.654  18.888  0.00  0.00    +0.000 A 
ATOM     13  C   UNL     1       8.336   6.325  19.212  0.00  0.00    +0.000 A 
ATOM     14  C   UNL     1       7.583   5.521  18.353  0.00  0.00    +0.000 A 
ENDBRANCH   1   9
BRANCH   1  16
ATOM     15  C   UNL     1       6.428   4.100  13.900  0.00  0.00    +0.000 C 
ATOM     16  C   UNL     1       6.521   5.375  14.737  0.00  0.00    +0.000 C 
ENDBRANCH   1  16
BRANCH   5  17
ATOM     17  C   UNL     1       2.609   4.534  17.306  0.00  0.00    +0.000 C 
BRANCH  17  18
ATOM     18  C   UNL     1       2.259   4.768  18.748  0.00  0.00    +0.000 A 
ATOM     19  C   UNL     1       1.377   3.921  19.313  0.00  0.00    +0.000 A 
ATOM     20  C   UNL     1       1.235   3.840  20.767  0.00  0.00    +0.000 A 
ATOM     21  O   UNL     1       0.962   2.780  21.313  0.00  0.00    +0.000 OA
ATOM     22  O   UNL     1       1.385   5.025  21.441  0.00  0.00    +0.000 OA
ATOM     23  C   UNL     1       1.607   6.169  20.662  0.00  0.00    +0.000 A 
ATOM     24  C   UNL     1       1.049   7.336  21.155  0.00  0.00    +0.000 A 
ATOM     25  C   UNL     1       1.093   8.486  20.375  0.00  0.00    +0.000 A 
ATOM     26  C   UNL     1       0.214   9.646  20.732  0.00  0.00    +0.000 C 
ATOM     27  C   UNL     1       1.905   8.498  19.233  0.00  0.00    +0.000 A 
ATOM     28  C   UNL     1       2.466   7.308  18.740  0.00  0.00    +0.000 A 
ATOM     29  C   UNL     1       2.219   6.100  19.400  0.00  0.00    +0.000 A 
ENDBRANCH  17  18
ENDBRANCH   5  17
TORSDOF 4
ENDMDL
MODEL 3
REMARK VINA RESULT:      -7.3      1.148      2.867
REMARK  Name = 
REMARK  6 active torsions:
REMARK  status: ('A' for Active; 'I' for Inactive)
REMARK    1  A    between atoms: C_1  and  C_2
REMARK    2  A    between atoms: C_2  and  C_3
REMARK    3  A    between atoms: C_3  and  C_4
REMARK    4  A    between atoms: N_13  and  C_14
REMARK    5  A    between atoms: C_14  and  C_15
REMARK    6  A    between atoms: C_22  and  C_23
REMARK                            x       y       z     vdW  Elec       q    Type
REMARK                         _______ _______ _______ _____ _____    ______ ____
ROOT
ATOM      1  C   UNL     1      -0.678  10.357  18.868  0.00  0.00    +0.000 C 
ATOM      2  N   UNL     1       0.238  10.324  17.754  0.00  0.00    +0.000 N 
ATOM      3  C   UNL     1       1.395   9.663  18.015  0.00  0.00    +0.000 C 
ATOM      4  O   UNL     1       2.292   9.461  17.206  0.00  0.00    +0.000 OA
ATOM      5  N   UNL     1       1.358   9.209  19.310  0.00  0.00    +0.000 N 
ATOM      6  C   UNL     1       0.131   9.479  19.856  0.00  0.00    +0.000 C 
ATOM      7  O   UNL     1      -0.286   9.061  20.929  0.00  0.00    +0.000 OA
ATOM      8  H   UNL     1       0.075  10.736  16.846  0.00  0.00    +0.000 HD
ENDROOT
BRANCH   1   9
ATOM      9  C   UNL     1      -0.841  11.760  19.459  0.00  0.00    +0.000 A 
ATOM     10  C   UNL     1      -0.180  12.844  18.861  0.00  0.00    +0.000 A 
ATOM     11  C   UNL     1      -0.364  14.151  19.327  0.00  0.00    +0.000 A 
ATOM     12  C   UNL     1      -1.220  14.396  20.397  0.00  0.00    +0.000 A 
ATOM     13  C   UNL     1      -1.877  13.334  21.010  0.00  0.00    +0.000 A 
ATOM     14  C   UNL     1      -1.687  12.029  20.550  0.00  0.00    +0.000 A 
ENDBRANCH   1   9
BRANCH   1  16
ATOM     15  C   UNL     1      -2.593  10.067  17.137  0.00  0.00    +0.000 C 
ATOM     16  C   UNL     1      -2.032   9.700  18.511  0.00  0.00    +0.000 C 
ENDBRANCH   1  16
BRANCH   5  17
ATOM     17  C   UNL     1       2.279   8.278  19.925  0.00  0.00    +0.000 C 
BRANCH  17  18
ATOM     18  C   UNL     1       2.128   6.887  19.376  0.00  0.00    +0.000 A 
ATOM     19  C   UNL     1       1.847   5.906  20.254  0.00  0.00    +0.000 A 
ATOM     20  C   UNL     1       1.344   4.609  19.800  0.00  0.00    +0.000 A 
ATOM     21  O   UNL     1       0.552   3.970  20.479  0.00  0.00    +0.000 OA
ATOM     22  O   UNL     1       1.851   4.165  18.606  0.00  0.00    +0.000 OA
ATOM     23  C   UNL     1       2.818   4.974  17.993  0.00  0.00    +0.000 A 
ATOM     24  C   UNL     1       3.805   4.292  17.300  0.00  0.00    +0.000 A 
ATOM     25  C   UNL     1       4.882   5.005  16.787  0.00  0.00    +0.000 A 
ATOM     26  C   UNL     1       6.105   4.262  16.342  0.00  0.00    +0.000 C 
ATOM     27  C   UNL     1       4.821   6.405  16.770  0.00  0.00    +0.000 A 
ATOM     28  C   UNL     1       3.818   7.086  17.478  0.00  0.00    +0.000 A 
ATOM     29  C   UNL     1       2.863   6.362  18.199  0.00  0.00    +0.000 A 
ENDBRANCH  17  18
ENDBRANCH   5  17
TORSDOF 4
ENDMDL
MODEL 4
REMARK VINA RESULT:      -7.0      2.300      7.409
REMARK  Name = 
REMARK  6 active torsions:
REMARK  status: ('A' for Active; 'I' for Inactive)
REMARK    1  A    between atoms: C_1  and  C_2
REMARK    2  A    between atoms: C_2  and  C_3
REMARK    3  A    between atoms: C_3  and  C_4
REMARK    4  A    between atoms: N_13  and  C_14
REMARK    5  A    between atoms: C_14  and  C_15
REMARK    6  A    between atoms: C_22  and  C_23
REMARK                            x       y       z     vdW  Elec       q    Type
REMARK                         _______ _______ _______ _____ _____    ______ ____
ROOT
ATOM      1  C   UNL     1       4.032   4.870  18.496  0.00  0.00    +0.000 C 
ATOM      2  N   UNL     1       3.828   4.250  19.784  0.00  0.00    +0.000 N 
ATOM      3  C   UNL     1       2.813   4.795  20.500  0.00  0.00    +0.000 C 
ATOM      4  O   UNL     1       2.424   4.398  21.591  0.00  0.00    +0.000 OA
ATOM      5  N   UNL     1       2.260   5.817  19.769  0.00  0.00    +0.000 N 
ATOM      6  C   UNL     1       2.844   5.864  18.531  0.00  0.00    +0.000 C 
ATOM      7  O   UNL     1       2.468   6.543  17.584  0.00  0.00    +0.000 OA
ATOM      8  H   UNL     1       4.365   3.479  20.156  0.00  0.00    +0.000 HD
ENDROOT
BRANCH   1   9
ATOM      9  C   UNL     1       5.344   5.655  18.418  0.00  0.00    +0.000 A 
ATOM     10  C   UNL     1       6.390   5.345  19.300  0.00  0.00    +0.000 A 
ATOM     11  C   UNL     1       7.629   5.990  19.209  0.00  0.00    +0.000 A 
ATOM     12  C   UNL     1       7.844   6.952  18.227  0.00  0.00    +0.000 A 
ATOM     13  C   UNL     1       6.817   7.280  17.349  0.00  0.00    +0.000 A 
ATOM     14  C   UNL     1       5.578   6.643  17.445  0.00  0.00    +0.000 A 
ENDBRANCH   1   9
BRANCH   1  16
ATOM     15  C   UNL     1       2.677   2.912  17.459  0.00  0.00    +0.000 C 
ATOM     16  C   UNL     1       3.878   3.849  17.344  0.00  0.00    +0.000 C 
ENDBRANCH   1  16
BRANCH   5  17
ATOM     17  C   UNL     1       1.025   6.516  20.057  0.00  0.00    +0.000 C 
BRANCH  17  18
ATOM     18  C   UNL     1       1.269   7.914  20.549  0.00  0.00    +0.000 A 
ATOM     19  C   UNL     1       1.014   8.163  21.847  0.00  0.00    +0.000 A 
ATOM     20  C   UNL     1       1.535   9.364  22.501  0.00  0.00    +0.000 A 
ATOM     21  O   UNL     1       1.858   9.348  23.680  0.00  0.00    +0.000 OA
ATOM     22  O   UNL     1       1.590  10.487  21.715  0.00  0.00    +0.000 OA
ATOM     23  C   UNL     1       1.100  10.364  20.407  0.00  0.00    +0.000 A 
ATOM     24  C   UNL     1       0.479  11.494  19.902  0.00  0.00    +0.000 A 
ATOM     25  C   UNL     1      -0.165  11.415  18.672  0.00  0.00    +0.000 A 
ATOM     26  C   UNL     1      -1.116  12.503  18.273  0.00  0.00    +0.000 C 
ATOM     27  C   UNL     1       0.039  10.281  17.873  0.00  0.00    +0.000 A 
ATOM     28  C   UNL     1       0.669   9.141  18.396  0.00  0.00    +0.000 A 
ATOM     29  C   UNL     1       1.107   9.137  19.725  0.00  0.00    +0.000 A 
ENDBRANCH  17  18
ENDBRANCH   5  17
TORSDOF 4
ENDMDL
MODEL 5
REMARK VINA RESULT:      -7.0      2.789      7.811
REMARK  Name = 
REMARK  6 active torsions:
REMARK  status: ('A' for Active; 'I' for Inactive)
REMARK    1  A    between atoms: C_1  and  C_2
REMARK    2  A    between atoms: C_2  and  C_3
REMARK    3  A    between atoms: C_3  and  C_4
REMARK    4  A    between atoms: N_13  and  C_14
REMARK    5  A    between atoms: C_14  and  C_15
REMARK    6  A    between atoms: C_22  and  C_23
REMARK                            x       y       z     vdW  Elec       q    Type
REMARK                         _______ _______ _______ _____ _____    ______ ____
ROOT
ATOM      1  C   UNL     1       0.396   9.720  20.640  0.00  0.00    +0.000 C 
ATOM      2  N   UNL     1       1.041  10.901  21.162  0.00  0.00    +0.000 N 
ATOM      3  C   UNL     1       0.565  12.061  20.644  0.00  0.00    +0.000 C 
ATOM      4  O   UNL     1       0.922  13.184  20.977  0.00  0.00    +0.000 OA
ATOM      5  N   UNL     1      -0.423  11.764  19.738  0.00  0.00    +0.000 N 
ATOM      6  C   UNL     1      -0.665  10.416  19.748  0.00  0.00    +0.000 C 
ATOM      7  O   UNL     1      -1.592   9.847  19.186  0.00  0.00    +0.000 OA
ATOM      8  H   UNL     1       1.781  10.910  21.851  0.00  0.00    +0.000 HD
ENDROOT
BRANCH   1   9
ATOM      9  C   UNL     1       1.322   8.880  19.758  0.00  0.00    +0.000 A 
ATOM     10  C   UNL     1       1.806   7.651  20.234  0.00  0.00    +0.000 A 
ATOM     11  C   UNL     1       2.594   6.822  19.429  0.00  0.00    +0.000 A 
ATOM     12  C   UNL     1       2.905   7.204  18.128  0.00  0.00    +0.000 A 
ATOM     13  C   UNL     1       2.443   8.422  17.639  0.00  0.00    +0.000 A 
ATOM     14  C   UNL     1       1.664   9.254  18.446  0.00  0.00    +0.000 A 
ENDBRANCH   1   9
BRANCH   1  16
ATOM     15  C   UNL     1      -0.595   9.668  23.040  0.00  0.00    +0.000 C 
ATOM     16  C   UNL     1      -0.270   8.892  21.764  0.00  0.00    +0.000 C 
ENDBRANCH   1  16
BRANCH   5  17
ATOM     17  C   UNL     1      -1.340  12.699  19.123  0.00  0.00    +0.000 C 
BRANCH  17  18
ATOM     18  C   UNL     1      -2.596  12.873  19.929  0.00  0.00    +0.000 A 
ATOM     19  C   UNL     1      -2.482  12.801  21.269  0.00  0.00    +0.000 A 
ATOM     20  C   UNL     1      -3.546  13.294  22.143  0.00  0.00    +0.000 A 
ATOM     21  O   UNL     1      -3.287  13.797  23.227  0.00  0.00    +0.000 OA
ATOM     22  O   UNL     1      -4.824  13.111  21.679  0.00  0.00    +0.000 OA
ATOM     23  C   UNL     1      -4.958  12.436  20.457  0.00  0.00    +0.000 A 
ATOM     24  C   UNL     1      -6.080  11.632  20.347  0.00  0.00    +0.000 A 
ATOM     25  C   UNL     1      -6.216  10.815  19.230  0.00  0.00    +0.000 A 
ATOM     26  C   UNL     1      -7.226   9.708  19.254  0.00  0.00    +0.000 C 
ATOM     27  C   UNL     1      -5.352  11.005  18.144  0.00  0.00    +0.000 A 
ATOM     28  C   UNL     1      -4.216  11.821  18.266  0.00  0.00    +0.000 A 
ATOM     29  C   UNL     1      -3.949  12.461  19.481  0.00  0.00    +0.000 A 
ENDBRANCH  17  18
ENDBRANCH   5  17
TORSDOF 4
ENDMDL
MODEL 6
REMARK VINA RESULT:      -6.9      3.516      5.885
REMARK  Name = 
REMARK  6 active torsions:
REMARK  status: ('A' for Active; 'I' for Inactive)
REMARK    1  A    between atoms: C_1  and  C_2
REMARK    2  A    between atoms: C_2  and  C_3
REMARK    3  A    between atoms: C_3  and  C_4
REMARK    4  A    between atoms: N_13  and  C_14
REMARK    5  A    between atoms: C_14  and  C_15
REMARK    6  A    between atoms: C_22  and  C_23
REMARK                            x       y       z     vdW  Elec       q    Type
REMARK                         _______ _______ _______ _____ _____    ______ ____
ROOT
ATOM      1  C   UNL     1      -5.686  12.626  19.402  0.00  0.00    +0.000 C 
ATOM      2  N   UNL     1      -5.247  13.410  20.531  0.00  0.00    +0.000 N 
ATOM      3  C   UNL     1      -3.901  13.403  20.714  0.00  0.00    +0.000 C 
ATOM      4  O   UNL     1      -3.300  14.037  21.571  0.00  0.00    +0.000 OA
ATOM      5  N   UNL     1      -3.332  12.620  19.740  0.00  0.00    +0.000 N 
ATOM      6  C   UNL     1      -4.296  12.208  18.859  0.00  0.00    +0.000 C 
ATOM      7  O   UNL     1      -4.099  11.642  17.791  0.00  0.00    +0.000 OA
ATOM      8  H   UNL     1      -5.847  13.932  21.153  0.00  0.00    +0.000 HD
ENDROOT
BRANCH   1   9
ATOM      9  C   UNL     1      -6.463  11.374  19.815  0.00  0.00    +0.000 A 
ATOM     10  C   UNL     1      -6.307  10.188  19.082  0.00  0.00    +0.000 A 
ATOM     11  C   UNL     1      -6.943   9.005  19.474  0.00  0.00    +0.000 A 
ATOM     12  C   UNL     1      -7.741   8.987  20.614  0.00  0.00    +0.000 A 
ATOM     13  C   UNL     1      -7.916  10.154  21.350  0.00  0.00    +0.000 A 
ATOM     14  C   UNL     1      -7.288  11.337  20.953  0.00  0.00    +0.000 A 
ENDBRANCH   1   9
BRANCH   1  16
ATOM     15  C   UNL     1      -6.750  12.810  17.039  0.00  0.00    +0.000 C 
ATOM     16  C   UNL     1      -6.454  13.492  18.374  0.00  0.00    +0.000 C 
ENDBRANCH   1  16
BRANCH   5  17
ATOM     17  C   UNL     1      -1.921  12.516  19.431  0.00  0.00    +0.000 C 
BRANCH  17  18
ATOM     18  C   UNL     1      -1.264  11.382  20.166  0.00  0.00    +0.000 A 
ATOM     19  C   UNL     1      -0.719  11.660  21.366  0.00  0.00    +0.000 A 
ATOM     20  C   UNL     1      -0.374  10.590  22.302  0.00  0.00    +0.000 A 
ATOM     21  O   UNL     1      -0.466  10.758  23.510  0.00  0.00    +0.000 OA
ATOM     22  O   UNL     1       0.089   9.432  21.731  0.00  0.00    +0.000 OA
ATOM     23  C   UNL     1       0.220   9.428  20.335  0.00  0.00    +0.000 A 
ATOM     24  C   UNL     1       1.281   8.685  19.844  0.00  0.00    +0.000 A 
ATOM     25  C   UNL     1       1.574   8.745  18.486  0.00  0.00    +0.000 A 
ATOM     26  C   UNL     1       2.896   8.232  18.001  0.00  0.00    +0.000 C 
ATOM     27  C   UNL     1       0.654   9.351  17.622  0.00  0.00    +0.000 A 
ATOM     28  C   UNL     1      -0.418  10.104  18.129  0.00  0.00    +0.000 A 
ATOM     29  C   UNL     1      -0.574  10.243  19.513  0.00  0.00    +0.000 A 
ENDBRANCH  17  18
ENDBRANCH   5  17
TORSDOF 4
ENDMDL
MODEL 7
REMARK VINA RESULT:      -6.9      1.628      3.429
REMARK  Name = 
REMARK  6 active torsions:
REMARK  status: ('A' for Active; 'I' for Inactive)
REMARK    1  A    between atoms: C_1  and  C_2
REMARK    2  A    between atoms: C_2  and  C_3
REMARK    3  A    between atoms: C_3  and  C_4
REMARK    4  A    between atoms: N_13  and  C_14
REMARK    5  A    between atoms: C_14  and  C_15
REMARK    6  A    between atoms: C_22  and  C_23
REMARK                            x       y       z     vdW  Elec       q    Type
REMARK                         _______ _______ _______ _____ _____    ______ ____
ROOT
ATOM      1  C   UNL     1       0.306  10.327  19.023  0.00  0.00    +0.000 C 
ATOM      2  N   UNL     1       0.948   9.927  17.793  0.00  0.00    +0.000 N 
ATOM      3  C   UNL     1       1.813   8.891  17.938  0.00  0.00    +0.000 C 
ATOM      4  O   UNL     1       2.427   8.349  17.028  0.00  0.00    +0.000 OA
ATOM      5  N   UNL     1       1.829   8.516  19.259  0.00  0.00    +0.000 N 
ATOM      6  C   UNL     1       0.894   9.236  19.953  0.00  0.00    +0.000 C 
ATOM      7  O   UNL     1       0.538   9.030  21.106  0.00  0.00    +0.000 OA
ATOM      8  H   UNL     1       0.797  10.348  16.887  0.00  0.00    +0.000 HD
ENDROOT
BRANCH   1   9
ATOM      9  C   UNL     1       0.764  11.704  19.509  0.00  0.00    +0.000 A 
ATOM     10  C   UNL     1       1.716  12.420  18.767  0.00  0.00    +0.000 A 
ATOM     11  C   UNL     1       2.104  13.712  19.140  0.00  0.00    +0.000 A 
ATOM     12  C   UNL     1       1.539  14.313  20.260  0.00  0.00    +0.000 A 
ATOM     13  C   UNL     1       0.600  13.617  21.016  0.00  0.00    +0.000 A 
ATOM     14  C   UNL     1       0.220  12.324  20.648  0.00  0.00    +0.000 A 
ENDBRANCH   1   9
BRANCH   1  16
ATOM     15  C   UNL     1      -1.788  10.086  17.505  0.00  0.00    +0.000 C 
ATOM     16  C   UNL     1      -1.233  10.212  18.923  0.00  0.00    +0.000 C 
ENDBRANCH   1  16
BRANCH   5  17
ATOM     17  C   UNL     1       2.438   7.324  19.810  0.00  0.00    +0.000 C 
BRANCH  17  18
ATOM     18  C   UNL     1       2.618   6.250  18.775  0.00  0.00    +0.000 A 
ATOM     19  C   UNL     1       2.016   5.067  19.005  0.00  0.00    +0.000 A 
ATOM     20  C   UNL     1       1.834   4.093  17.929  0.00  0.00    +0.000 A 
ATOM     21  O   UNL     1       0.852   3.365  17.900  0.00  0.00    +0.000 OA
ATOM     22  O   UNL     1       2.847   4.036  17.006  0.00  0.00    +0.000 OA
ATOM     23  C   UNL     1       3.948   4.876  17.229  0.00  0.00    +0.000 A 
ATOM     24  C   UNL     1       5.172   4.360  16.836  0.00  0.00    +0.000 A 
ATOM     25  C   UNL     1       6.331   5.060  17.153  0.00  0.00    +0.000 A 
ATOM     26  C   UNL     1       7.656   4.369  17.044  0.00  0.00    +0.000 C 
ATOM     27  C   UNL     1       6.218   6.371  17.636  0.00  0.00    +0.000 A 
ATOM     28  C   UNL     1       4.973   6.883  18.033  0.00  0.00    +0.000 A 
ATOM     29  C   UNL     1       3.830   6.082  17.936  0.00  0.00    +0.000 A 
ENDBRANCH  17  18
ENDBRANCH   5  17
TORSDOF 4
ENDMDL
MODEL 8
REMARK VINA RESULT:      -6.9      3.344      8.017
REMARK  Name = 
REMARK  6 active torsions:
REMARK  status: ('A' for Active; 'I' for Inactive)
REMARK    1  A    between atoms: C_1  and  C_2
REMARK    2  A    between atoms: C_2  and  C_3
REMARK    3  A    between atoms: C_3  and  C_4
REMARK    4  A    between atoms: N_13  and  C_14
REMARK    5  A    between atoms: C_14  and  C_15
REMARK    6  A    between atoms: C_22  and  C_23
REMARK                            x       y       z     vdW  Elec       q    Type
REMARK                         _______ _______ _______ _____ _____    ______ ____
ROOT
ATOM      1  C   UNL     1       6.354   5.003  16.141  0.00  0.00    +0.000 C 
ATOM      2  N   UNL     1       6.064   6.403  16.341  0.00  0.00    +0.000 N 
ATOM      3  C   UNL     1       4.767   6.656  16.650  0.00  0.00    +0.000 C 
ATOM      4  O   UNL     1       4.305   7.758  16.915  0.00  0.00    +0.000 OA
ATOM      5  N   UNL     1       4.084   5.465  16.679  0.00  0.00    +0.000 N 
ATOM      6  C   UNL     1       4.959   4.428  16.497  0.00  0.00    +0.000 C 
ATOM      7  O   UNL     1       4.704   3.238  16.634  0.00  0.00    +0.000 OA
ATOM      8  H   UNL     1       6.733   7.157  16.269  0.00  0.00    +0.000 HD
ENDROOT
BRANCH   1   9
ATOM      9  C   UNL     1       6.681   4.667  14.684  0.00  0.00    +0.000 A 
ATOM     10  C   UNL     1       5.939   3.681  14.017  0.00  0.00    +0.000 A 
ATOM     11  C   UNL     1       6.160   3.400  12.664  0.00  0.00    +0.000 A 
ATOM     12  C   UNL     1       7.123   4.108  11.953  0.00  0.00    +0.000 A 
ATOM     13  C   UNL     1       7.877   5.083  12.598  0.00  0.00    +0.000 A 
ATOM     14  C   UNL     1       7.663   5.358  13.951  0.00  0.00    +0.000 A 
ENDBRANCH   1   9
BRANCH   1  16
ATOM     15  C   UNL     1       7.537   5.279  18.437  0.00  0.00    +0.000 C 
ATOM     16  C   UNL     1       7.437   4.501  17.126  0.00  0.00    +0.000 C 
ENDBRANCH   1  16
BRANCH   5  17
ATOM     17  C   UNL     1       2.742   5.252  17.177  0.00  0.00    +0.000 C 
BRANCH  17  18
ATOM     18  C   UNL     1       2.666   5.377  18.673  0.00  0.00    +0.000 A 
ATOM     19  C   UNL     1       2.207   4.313  19.357  0.00  0.00    +0.000 A 
ATOM     20  C   UNL     1       2.417   4.197  20.800  0.00  0.00    +0.000 A 
ATOM     21  O   UNL     1       2.583   3.106  21.326  0.00  0.00    +0.000 OA
ATOM     22  O   UNL     1       2.371   5.376  21.500  0.00  0.00    +0.000 OA
ATOM     23  C   UNL     1       2.082   6.534  20.763  0.00  0.00    +0.000 A 
ATOM     24  C   UNL     1       1.339   7.491  21.435  0.00  0.00    +0.000 A 
ATOM     25  C   UNL     1       0.884   8.603  20.735  0.00  0.00    +0.000 A 
ATOM     26  C   UNL     1      -0.187   9.459  21.341  0.00  0.00    +0.000 C 
ATOM     27  C   UNL     1       1.387   8.846  19.450  0.00  0.00    +0.000 A 
ATOM     28  C   UNL     1       2.138   7.869  18.778  0.00  0.00    +0.000 A 
ATOM     29  C   UNL     1       2.396   6.642  19.399  0.00  0.00    +0.000 A 
ENDBRANCH  17  18
ENDBRANCH   5  17
TORSDOF 4
ENDMDL
MODEL 9
REMARK VINA RESULT:      -6.8      3.391      6.014
REMARK  Name = 
REMARK  6 active torsions:
REMARK  status: ('A' for Active; 'I' for Inactive)
REMARK    1  A    between atoms: C_1  and  C_2
REMARK    2  A    between atoms: C_2  and  C_3
REMARK    3  A    between atoms: C_3  and  C_4
REMARK    4  A    between atoms: N_13  and  C_14
REMARK    5  A    between atoms: C_14  and  C_15
REMARK    6  A    between atoms: C_22  and  C_23
REMARK                            x       y       z     vdW  Elec       q    Type
REMARK                         _______ _______ _______ _____ _____    ______ ____
ROOT
ATOM      1  C   UNL     1       1.973   5.571  19.411  0.00  0.00    +0.000 C 
ATOM      2  N   UNL     1       1.730   4.870  18.173  0.00  0.00    +0.000 N 
ATOM      3  C   UNL     1       2.834   4.275  17.654  0.00  0.00    +0.000 C 
ATOM      4  O   UNL     1       2.856   3.582  16.645  0.00  0.00    +0.000 OA
ATOM      5  N   UNL     1       3.898   4.526  18.484  0.00  0.00    +0.000 N 
ATOM      6  C   UNL     1       3.464   5.192  19.599  0.00  0.00    +0.000 C 
ATOM      7  O   UNL     1       4.125   5.416  20.606  0.00  0.00    +0.000 OA
ATOM      8  H   UNL     1       0.839   4.801  17.703  0.00  0.00    +0.000 HD
ENDROOT
BRANCH   1   9
ATOM      9  C   UNL     1       1.854   7.090  19.266  0.00  0.00    +0.000 A 
ATOM     10  C   UNL     1       2.172   7.695  18.040  0.00  0.00    +0.000 A 
ATOM     11  C   UNL     1       2.004   9.071  17.847  0.00  0.00    +0.000 A 
ATOM     12  C   UNL     1       1.507   9.865  18.876  0.00  0.00    +0.000 A 
ATOM     13  C   UNL     1       1.196   9.286  20.102  0.00  0.00    +0.000 A 
ATOM     14  C   UNL     1       1.371   7.914  20.298  0.00  0.00    +0.000 A 
ENDBRANCH   1   9
BRANCH   1  16
ATOM     15  C   UNL     1       1.129   3.493  20.721  0.00  0.00    +0.000 C 
ATOM     16  C   UNL     1       1.102   5.012  20.561  0.00  0.00    +0.000 C 
ENDBRANCH   1  16
BRANCH   5  17
ATOM     17  C   UNL     1       5.204   3.903  18.427  0.00  0.00    +0.000 C 
BRANCH  17  18
ATOM     18  C   UNL     1       6.162   4.676  17.564  0.00  0.00    +0.000 A 
ATOM     19  C   UNL     1       6.191   6.013  17.723  0.00  0.00    +0.000 A 
ATOM     20  C   UNL     1       7.304   6.808  17.204  0.00  0.00    +0.000 A 
ATOM     21  O   UNL     1       7.686   7.812  17.790  0.00  0.00    +0.000 OA
ATOM     22  O   UNL     1       7.839   6.372  16.019  0.00  0.00    +0.000 OA
ATOM     23  C   UNL     1       7.230   5.256  15.427  0.00  0.00    +0.000 A 
ATOM     24  C   UNL     1       7.214   5.259  14.042  0.00  0.00    +0.000 A 
ATOM     25  C   UNL     1       6.503   4.267  13.375  0.00  0.00    +0.000 A 
ATOM     26  C   UNL     1       6.192   4.444  11.920  0.00  0.00    +0.000 C 
ATOM     27  C   UNL     1       6.033   3.166  14.103  0.00  0.00    +0.000 A 
ATOM     28  C   UNL     1       6.053   3.174  15.507  0.00  0.00    +0.000 A 
ATOM     29  C   UNL     1       6.556   4.289  16.187  0.00  0.00    +0.000 A 
ENDBRANCH  17  18
ENDBRANCH   5  17
TORSDOF 4
ENDMDL
