MODEL 1
REMARK VINA RESULT:      -8.1      0.000      0.000
REMARK  Name = 
REMARK  6 active torsions:
REMARK  status: ('A' for Active; 'I' for Inactive)
REMARK    1  A    between atoms: C_1  and  C_2
REMARK    2  A    between atoms: C_5  and  C_6
REMARK    3  A    between atoms: C_7  and  N_8
REMARK    4  A    between atoms: C_9  and  C_11
REMARK    5  A    between atoms: C_20  and  C_21
REMARK    6  A    between atoms: N_25  and  C_26
REMARK                            x       y       z     vdW  Elec       q    Type
REMARK                         _______ _______ _______ _____ _____    ______ ____
ROOT
ATOM      1  C   UNL     1       0.837   9.114  20.020  0.00  0.00    +0.000 A 
ATOM      2  C   UNL     1       0.996   7.932  20.739  0.00  0.00    +0.000 A 
ATOM      3  C   UNL     1       1.925   7.126  20.040  0.00  0.00    +0.000 A 
ATOM      4  C   UNL     1       2.428   5.791  20.256  0.00  0.00    +0.000 A 
ATOM      5  O   UNL     1       2.077   5.123  21.231  0.00  0.00    +0.000 OA
ATOM      6  N   UNL     1       3.318   5.355  19.252  0.00  0.00    +0.000 N 
ATOM      7  C   UNL     1       3.836   4.067  19.352  0.00  0.00    +0.000 A 
ATOM      8  C   UNL     1       4.678   3.565  18.446  0.00  0.00    +0.000 A 
ATOM      9  C   UNL     1       5.081   4.361  17.321  0.00  0.00    +0.000 A 
ATOM     10  C   UNL     1       4.625   5.612  17.152  0.00  0.00    +0.000 A 
ATOM     11  C   UNL     1       5.017   6.466  15.986  0.00  0.00    +0.000 C 
ATOM     12  C   UNL     1       3.670   6.193  18.166  0.00  0.00    +0.000 A 
ATOM     13  N   UNL     1       3.219   7.408  17.995  0.00  0.00    +0.000 NA
ATOM     14  C   UNL     1       2.354   7.826  18.944  0.00  0.00    +0.000 A 
ATOM     15  N   UNL     1       1.733   9.047  18.955  0.00  0.00    +0.000 N 
ATOM     16  C   UNL     1       1.908  10.077  17.951  0.00  0.00    +0.000 C 
ENDROOT
BRANCH   1  18
ATOM     17  N   UNL     1       0.302  11.005  21.364  0.00  0.00    +0.000 N 
ATOM     18  C   UNL     1      -0.044  10.253  20.256  0.00  0.00    +0.000 C 
ATOM     19  O   UNL     1      -1.041  10.409  19.567  0.00  0.00    +0.000 OA
ATOM     20  H   UNL     1       1.041  10.599  21.921  0.00  0.00    +0.000 HD
BRANCH  17  27
ATOM     21  C   UNL     1      -3.618  12.297  24.023  0.00  0.00    +0.000 C 
ATOM     22  C   UNL     1      -2.358  12.701  23.316  0.00  0.00    +0.000 A 
ATOM     23  C   UNL     1      -1.987  14.039  23.259  0.00  0.00    +0.000 A 
ATOM     24  C   UNL     1      -0.827  14.407  22.585  0.00  0.00    +0.000 A 
ATOM     25  C   UNL     1       0.003  13.459  21.947  0.00  0.00    +0.000 A 
ATOM     26  C   UNL     1       1.238  14.021  21.306  0.00  0.00    +0.000 C 
ATOM     27  C   UNL     1      -0.371  12.101  21.971  0.00  0.00    +0.000 A 
ATOM     28  C   UNL     1      -1.543  11.747  22.682  0.00  0.00    +0.000 A 
ENDBRANCH  17  27
ENDBRANCH   1  18
TORSDOF 2
ENDMDL
MODEL 2
REMARK VINA RESULT:      -8.0      1.870      8.719
REMARK  Name = 
REMARK  6 active torsions:
REMARK  status: ('A' for Active; 'I' for Inactive)
REMARK    1  A    between atoms: C_1  and  C_2
REMARK    2  A    between atoms: C_5  and  C_6
REMARK    3  A    between atoms: C_7  and  N_8
REMARK    4  A    between atoms: C_9  and  C_11
REMARK    5  A    between atoms: C_20  and  C_21
REMARK    6  A    between atoms: N_25  and  C_26
REMARK                            x       y       z     vdW  Elec       q    Type
REMARK                         _______ _______ _______ _____ _____    ______ ____
ROOT
ATOM      1  C   UNL     1       2.276   7.225  19.562  0.00  0.00    +0.000 A 
ATOM      2  C   UNL     1       1.713   7.379  20.825  0.00  0.00    +0.000 A 
ATOM      3  C   UNL     1       1.092   8.650  20.867  0.00  0.00    +0.000 A 
ATOM      4  C   UNL     1       0.415   9.382  21.909  0.00  0.00    +0.000 A 
ATOM      5  O   UNL     1       0.252   8.898  23.031  0.00  0.00    +0.000 OA
ATOM      6  N   UNL     1      -0.005  10.669  21.513  0.00  0.00    +0.000 N 
ATOM      7  C   UNL     1      -0.641  11.469  22.458  0.00  0.00    +0.000 A 
ATOM      8  C   UNL     1      -1.065  12.703  22.177  0.00  0.00    +0.000 A 
ATOM      9  C   UNL     1      -0.873  13.247  20.863  0.00  0.00    +0.000 A 
ATOM     10  C   UNL     1      -0.268  12.541  19.896  0.00  0.00    +0.000 A 
ATOM     11  C   UNL     1      -0.042  13.081  18.518  0.00  0.00    +0.000 C 
ATOM     12  C   UNL     1       0.221  11.145  20.198  0.00  0.00    +0.000 A 
ATOM     13  N   UNL     1       0.820  10.461  19.259  0.00  0.00    +0.000 NA
ATOM     14  C   UNL     1       1.238   9.234  19.636  0.00  0.00    +0.000 A 
ATOM     15  N   UNL     1       1.914   8.355  18.831  0.00  0.00    +0.000 N 
ATOM     16  C   UNL     1       2.283   8.605  17.452  0.00  0.00    +0.000 C 
ENDROOT
BRANCH   1  18
ATOM     17  N   UNL     1       4.303   6.551  18.509  0.00  0.00    +0.000 N 
ATOM     18  C   UNL     1       3.083   6.140  19.013  0.00  0.00    +0.000 C 
ATOM     19  O   UNL     1       2.620   5.011  18.937  0.00  0.00    +0.000 OA
ATOM     20  H   UNL     1       4.419   7.555  18.483  0.00  0.00    +0.000 HD
BRANCH  17  27
ATOM     21  C   UNL     1       5.373   4.396  14.229  0.00  0.00    +0.000 C 
ATOM     22  C   UNL     1       5.789   4.751  15.626  0.00  0.00    +0.000 A 
ATOM     23  C   UNL     1       7.013   4.317  16.122  0.00  0.00    +0.000 A 
ATOM     24  C   UNL     1       7.383   4.633  17.424  0.00  0.00    +0.000 A 
ATOM     25  C   UNL     1       6.551   5.390  18.278  0.00  0.00    +0.000 A 
ATOM     26  C   UNL     1       7.123   5.679  19.635  0.00  0.00    +0.000 C 
ATOM     27  C   UNL     1       5.295   5.816  17.802  0.00  0.00    +0.000 A 
ATOM     28  C   UNL     1       4.949   5.502  16.466  0.00  0.00    +0.000 A 
ENDBRANCH  17  27
ENDBRANCH   1  18
TORSDOF 2
ENDMDL
MODEL 3
REMARK VINA RESULT:      -8.0      0.728      1.883
REMARK  Name = 
REMARK  6 active torsions:
REMARK  status: ('A' for Active; 'I' for Inactive)
REMARK    1  A    between atoms: C_1  and  C_2
REMARK    2  A    between atoms: C_5  and  C_6
REMARK    3  A    between atoms: C_7  and  N_8
REMARK    4  A    between atoms: C_9  and  C_11
REMARK    5  A    between atoms: C_20  and  C_21
REMARK    6  A    between atoms: N_25  and  C_26
REMARK                            x       y       z     vdW  Elec       q    Type
REMARK                         _______ _______ _______ _____ _____    ______ ____
ROOT
ATOM      1  C   UNL     1       1.065   8.955  19.937  0.00  0.00    +0.000 A 
ATOM      2  C   UNL     1       1.239   7.773  20.651  0.00  0.00    +0.000 A 
ATOM      3  C   UNL     1       2.129   6.954  19.917  0.00  0.00    +0.000 A 
ATOM      4  C   UNL     1       2.624   5.614  20.115  0.00  0.00    +0.000 A 
ATOM      5  O   UNL     1       2.306   4.951  21.105  0.00  0.00    +0.000 OA
ATOM      6  N   UNL     1       3.468   5.166  19.077  0.00  0.00    +0.000 N 
ATOM      7  C   UNL     1       3.973   3.872  19.159  0.00  0.00    +0.000 A 
ATOM      8  C   UNL     1       4.772   3.358  18.220  0.00  0.00    +0.000 A 
ATOM      9  C   UNL     1       5.138   4.147  17.078  0.00  0.00    +0.000 A 
ATOM     10  C   UNL     1       4.691   5.403  16.924  0.00  0.00    +0.000 A 
ATOM     11  C   UNL     1       5.045   6.250  15.742  0.00  0.00    +0.000 C 
ATOM     12  C   UNL     1       3.785   5.997  17.976  0.00  0.00    +0.000 A 
ATOM     13  N   UNL     1       3.342   7.217  17.820  0.00  0.00    +0.000 NA
ATOM     14  C   UNL     1       2.522   7.647  18.803  0.00  0.00    +0.000 A 
ATOM     15  N   UNL     1       1.916   8.876  18.837  0.00  0.00    +0.000 N 
ATOM     16  C   UNL     1       2.063   9.902  17.825  0.00  0.00    +0.000 C 
ENDROOT
BRANCH   1  18
ATOM     17  N   UNL     1       0.772  11.032  21.063  0.00  0.00    +0.000 N 
ATOM     18  C   UNL     1       0.208  10.105  20.207  0.00  0.00    +0.000 C 
ATOM     19  O   UNL     1      -0.933  10.133  19.772  0.00  0.00    +0.000 OA
ATOM     20  H   UNL     1       1.646  10.733  21.475  0.00  0.00    +0.000 HD
BRANCH  17  27
ATOM     21  C   UNL     1       0.988  15.937  21.147  0.00  0.00    +0.000 C 
ATOM     22  C   UNL     1       0.353  14.672  21.645  0.00  0.00    +0.000 A 
ATOM     23  C   UNL     1      -0.639  14.724  22.616  0.00  0.00    +0.000 A 
ATOM     24  C   UNL     1      -1.209  13.546  23.087  0.00  0.00    +0.000 A 
ATOM     25  C   UNL     1      -0.814  12.278  22.608  0.00  0.00    +0.000 A 
ATOM     26  C   UNL     1      -1.563  11.114  23.189  0.00  0.00    +0.000 C 
ATOM     27  C   UNL     1       0.209  12.203  21.642  0.00  0.00    +0.000 A 
ATOM     28  C   UNL     1       0.759  13.416  21.162  0.00  0.00    +0.000 A 
ENDBRANCH  17  27
ENDBRANCH   1  18
TORSDOF 2
ENDMDL
MODEL 4
REMARK VINA RESULT:      -7.9      1.856      9.150
REMARK  Name = 
REMARK  6 active torsions:
REMARK  status: ('A' for Active; 'I' for Inactive)
REMARK    1  A    between atoms: C_1  and  C_2
REMARK    2  A    between atoms: C_5  and  C_6
REMARK    3  A    between atoms: C_7  and  N_8
REMARK    4  A    between atoms: C_9  and  C_11
REMARK    5  A    between atoms: C_20  and  C_21
REMARK    6  A    between atoms: N_25  and  C_26
REMARK                            x       y       z     vdW  Elec       q    Type
REMARK                         _______ _______ _______ _____ _____    ______ ____
ROOT
ATOM      1  C   UNL     1       2.461   7.791  18.536  0.00  0.00    +0.000 A 
ATOM      2  C   UNL     1       2.274   9.046  17.963  0.00  0.00    +0.000 A 
ATOM      3  C   UNL     1       1.501   9.817  18.863  0.00  0.00    +0.000 A 
ATOM      4  C   UNL     1       0.943  11.146  18.793  0.00  0.00    +0.000 A 
ATOM      5  O   UNL     1       1.132  11.871  17.814  0.00  0.00    +0.000 OA
ATOM      6  N   UNL     1       0.175  11.494  19.924  0.00  0.00    +0.000 N 
ATOM      7  C   UNL     1      -0.434  12.746  19.939  0.00  0.00    +0.000 A 
ATOM      8  C   UNL     1      -1.187  13.159  20.962  0.00  0.00    +0.000 A 
ATOM      9  C   UNL     1      -1.389  12.304  22.096  0.00  0.00    +0.000 A 
ATOM     10  C   UNL     1      -0.838  11.082  22.158  0.00  0.00    +0.000 A 
ATOM     11  C   UNL     1      -1.036  10.161  23.321  0.00  0.00    +0.000 C 
ATOM     12  C   UNL     1       0.013  10.599  21.008  0.00  0.00    +0.000 A 
ATOM     13  N   UNL     1       0.541   9.404  21.065  0.00  0.00    +0.000 NA
ATOM     14  C   UNL     1       1.265   9.058  19.979  0.00  0.00    +0.000 A 
ATOM     15  N   UNL     1       1.885   7.849  19.802  0.00  0.00    +0.000 N 
ATOM     16  C   UNL     1       1.858   6.756  20.754  0.00  0.00    +0.000 C 
ENDROOT
BRANCH   1  18
ATOM     17  N   UNL     1       4.477   6.769  17.784  0.00  0.00    +0.000 N 
ATOM     18  C   UNL     1       3.123   6.601  18.009  0.00  0.00    +0.000 C 
ATOM     19  O   UNL     1       2.465   5.615  17.713  0.00  0.00    +0.000 OA
ATOM     20  H   UNL     1       4.798   7.721  17.903  0.00  0.00    +0.000 HD
BRANCH  17  27
ATOM     21  C   UNL     1       5.520   4.237  13.709  0.00  0.00    +0.000 C 
ATOM     22  C   UNL     1       5.903   4.640  15.103  0.00  0.00    +0.000 A 
ATOM     23  C   UNL     1       7.050   4.118  15.690  0.00  0.00    +0.000 A 
ATOM     24  C   UNL     1       7.388   4.481  16.989  0.00  0.00    +0.000 A 
ATOM     25  C   UNL     1       6.599   5.374  17.748  0.00  0.00    +0.000 A 
ATOM     26  C   UNL     1       7.133   5.694  19.114  0.00  0.00    +0.000 C 
ATOM     27  C   UNL     1       5.419   5.892  17.179  0.00  0.00    +0.000 A 
ATOM     28  C   UNL     1       5.107   5.527  15.847  0.00  0.00    +0.000 A 
ENDBRANCH  17  27
ENDBRANCH   1  18
TORSDOF 2
ENDMDL
MODEL 5
REMARK VINA RESULT:      -7.9      1.679      8.711
REMARK  Name = 
REMARK  6 active torsions:
REMARK  status: ('A' for Active; 'I' for Inactive)
REMARK    1  A    between atoms: C_1  and  C_2
REMARK    2  A    between atoms: C_5  and  C_6
REMARK    3  A    between atoms: C_7  and  N_8
REMARK    4  A    between atoms: C_9  and  C_11
REMARK    5  A    between atoms: C_20  and  C_21
REMARK    6  A    between atoms: N_25  and  C_26
REMARK                            x       y       z     vdW  Elec       q    Type
REMARK                         _______ _______ _______ _____ _____    ______ ____
ROOT
ATOM      1  C   UNL     1       1.517   8.029  20.364  0.00  0.00    +0.000 A 
ATOM      2  C   UNL     1       0.978   8.434  21.582  0.00  0.00    +0.000 A 
ATOM      3  C   UNL     1       0.485   9.750  21.416  0.00  0.00    +0.000 A 
ATOM      4  C   UNL     1      -0.111  10.700  22.324  0.00  0.00    +0.000 A 
ATOM      5  O   UNL     1      -0.315  10.417  23.507  0.00  0.00    +0.000 OA
ATOM      6  N   UNL     1      -0.405  11.943  21.725  0.00  0.00    +0.000 N 
ATOM      7  C   UNL     1      -0.955  12.940  22.527  0.00  0.00    +0.000 A 
ATOM      8  C   UNL     1      -1.257  14.150  22.051  0.00  0.00    +0.000 A 
ATOM      9  C   UNL     1      -1.020  14.459  20.669  0.00  0.00    +0.000 A 
ATOM     10  C   UNL     1      -0.492  13.553  19.832  0.00  0.00    +0.000 A 
ATOM     11  C   UNL     1      -0.222  13.844  18.388  0.00  0.00    +0.000 C 
ATOM     12  C   UNL     1      -0.141  12.181  20.355  0.00  0.00    +0.000 A 
ATOM     13  N   UNL     1       0.383  11.303  19.541  0.00  0.00    +0.000 NA
ATOM     14  C   UNL     1       0.681  10.116  20.111  0.00  0.00    +0.000 A 
ATOM     15  N   UNL     1       1.263   9.059  19.461  0.00  0.00    +0.000 N 
ATOM     16  C   UNL     1       1.647   9.052  18.064  0.00  0.00    +0.000 C 
ENDROOT
BRANCH   1  18
ATOM     17  N   UNL     1       2.866   6.863  18.786  0.00  0.00    +0.000 N 
ATOM     18  C   UNL     1       2.210   6.797  20.002  0.00  0.00    +0.000 C 
ATOM     19  O   UNL     1       2.093   5.800  20.699  0.00  0.00    +0.000 OA
ATOM     20  H   UNL     1       2.680   7.709  18.264  0.00  0.00    +0.000 HD
BRANCH  17  27
ATOM     21  C   UNL     1       7.181   5.543  16.850  0.00  0.00    +0.000 C 
ATOM     22  C   UNL     1       5.737   5.224  17.103  0.00  0.00    +0.000 A 
ATOM     23  C   UNL     1       5.179   4.059  16.590  0.00  0.00    +0.000 A 
ATOM     24  C   UNL     1       3.835   3.780  16.812  0.00  0.00    +0.000 A 
ATOM     25  C   UNL     1       3.000   4.648  17.550  0.00  0.00    +0.000 A 
ATOM     26  C   UNL     1       1.588   4.173  17.733  0.00  0.00    +0.000 C 
ATOM     27  C   UNL     1       3.541   5.847  18.055  0.00  0.00    +0.000 A 
ATOM     28  C   UNL     1       4.917   6.099  17.836  0.00  0.00    +0.000 A 
ENDBRANCH  17  27
ENDBRANCH   1  18
TORSDOF 2
ENDMDL
MODEL 6
REMARK VINA RESULT:      -7.7      1.824      8.790
REMARK  Name = 
REMARK  6 active torsions:
REMARK  status: ('A' for Active; 'I' for Inactive)
REMARK    1  A    between atoms: C_1  and  C_2
REMARK    2  A    between atoms: C_5  and  C_6
REMARK    3  A    between atoms: C_7  and  N_8
REMARK    4  A    between atoms: C_9  and  C_11
REMARK    5  A    between atoms: C_20  and  C_21
REMARK    6  A    between atoms: N_25  and  C_26
REMARK                            x       y       z     vdW  Elec       q    Type
REMARK                         _______ _______ _______ _____ _____    ______ ____
ROOT
ATOM      1  C   UNL     1       1.695   8.051  19.867  0.00  0.00    +0.000 A 
ATOM      2  C   UNL     1       1.149   8.128  21.145  0.00  0.00    +0.000 A 
ATOM      3  C   UNL     1       0.532   9.396  21.273  0.00  0.00    +0.000 A 
ATOM      4  C   UNL     1      -0.128  10.063  22.367  0.00  0.00    +0.000 A 
ATOM      5  O   UNL     1      -0.278   9.511  23.459  0.00  0.00    +0.000 OA
ATOM      6  N   UNL     1      -0.550  11.373  22.056  0.00  0.00    +0.000 N 
ATOM      7  C   UNL     1      -1.171  12.114  23.057  0.00  0.00    +0.000 A 
ATOM      8  C   UNL     1      -1.595  13.365  22.859  0.00  0.00    +0.000 A 
ATOM      9  C   UNL     1      -1.419  13.988  21.578  0.00  0.00    +0.000 A 
ATOM     10  C   UNL     1      -0.829  13.341  20.561  0.00  0.00    +0.000 A 
ATOM     11  C   UNL     1      -0.620  13.964  19.216  0.00  0.00    +0.000 C 
ATOM     12  C   UNL     1      -0.340  11.928  20.771  0.00  0.00    +0.000 A 
ATOM     13  N   UNL     1       0.244  11.303  19.783  0.00  0.00    +0.000 NA
ATOM     14  C   UNL     1       0.664  10.054  20.078  0.00  0.00    +0.000 A 
ATOM     15  N   UNL     1       1.326   9.224  19.212  0.00  0.00    +0.000 N 
ATOM     16  C   UNL     1       1.678   9.558  17.846  0.00  0.00    +0.000 C 
ENDROOT
BRANCH   1  18
ATOM     17  N   UNL     1       1.922   5.742  19.331  0.00  0.00    +0.000 N 
ATOM     18  C   UNL     1       2.491   6.999  19.242  0.00  0.00    +0.000 C 
ATOM     19  O   UNL     1       3.599   7.254  18.794  0.00  0.00    +0.000 OA
ATOM     20  H   UNL     1       1.098   5.705  19.914  0.00  0.00    +0.000 HD
BRANCH  17  27
ATOM     21  C   UNL     1       5.015   3.455  16.279  0.00  0.00    +0.000 C 
ATOM     22  C   UNL     1       4.017   3.369  17.397  0.00  0.00    +0.000 A 
ATOM     23  C   UNL     1       3.651   2.132  17.913  0.00  0.00    +0.000 A 
ATOM     24  C   UNL     1       2.712   2.060  18.936  0.00  0.00    +0.000 A 
ATOM     25  C   UNL     1       2.104   3.213  19.480  0.00  0.00    +0.000 A 
ATOM     26  C   UNL     1       1.147   2.958  20.607  0.00  0.00    +0.000 C 
ATOM     27  C   UNL     1       2.443   4.474  18.951  0.00  0.00    +0.000 A 
ATOM     28  C   UNL     1       3.418   4.525  17.926  0.00  0.00    +0.000 A 
ENDBRANCH  17  27
ENDBRANCH   1  18
TORSDOF 2
ENDMDL
MODEL 7
REMARK VINA RESULT:      -7.7      1.852      8.721
REMARK  Name = 
REMARK  6 active torsions:
REMARK  status: ('A' for Active; 'I' for Inactive)
REMARK    1  A    between atoms: C_1  and  C_2
REMARK    2  A    between atoms: C_5  and  C_6
REMARK    3  A    between atoms: C_7  and  N_8
REMARK    4  A    between atoms: C_9  and  C_11
REMARK    5  A    between atoms: C_20  and  C_21
REMARK    6  A    between atoms: N_25  and  C_26
REMARK                            x       y       z     vdW  Elec       q    Type
REMARK                         _______ _______ _______ _____ _____    ______ ____
ROOT
ATOM      1  C   UNL     1       1.390   8.649  20.039  0.00  0.00    +0.000 A 
ATOM      2  C   UNL     1       0.799   8.731  21.297  0.00  0.00    +0.000 A 
ATOM      3  C   UNL     1       0.260  10.032  21.434  0.00  0.00    +0.000 A 
ATOM      4  C   UNL     1      -0.400  10.715  22.520  0.00  0.00    +0.000 A 
ATOM      5  O   UNL     1      -0.628  10.148  23.590  0.00  0.00    +0.000 OA
ATOM      6  N   UNL     1      -0.724  12.056  22.227  0.00  0.00    +0.000 N 
ATOM      7  C   UNL     1      -1.336  12.812  23.223  0.00  0.00    +0.000 A 
ATOM      8  C   UNL     1      -1.671  14.092  23.041  0.00  0.00    +0.000 A 
ATOM      9  C   UNL     1      -1.404  14.733  21.785  0.00  0.00    +0.000 A 
ATOM     10  C   UNL     1      -0.816  14.073  20.775  0.00  0.00    +0.000 A 
ATOM     11  C   UNL     1      -0.515  14.714  19.456  0.00  0.00    +0.000 C 
ATOM     12  C   UNL     1      -0.428  12.627  20.966  0.00  0.00    +0.000 A 
ATOM     13  N   UNL     1       0.154  11.989  19.985  0.00  0.00    +0.000 NA
ATOM     14  C   UNL     1       0.481  10.709  20.263  0.00  0.00    +0.000 A 
ATOM     15  N   UNL     1       1.123   9.858  19.402  0.00  0.00    +0.000 N 
ATOM     16  C   UNL     1       1.550  10.202  18.060  0.00  0.00    +0.000 C 
ENDROOT
BRANCH   1  18
ATOM     17  N   UNL     1       2.222   6.423  20.196  0.00  0.00    +0.000 N 
ATOM     18  C   UNL     1       2.141   7.563  19.417  0.00  0.00    +0.000 C 
ATOM     19  O   UNL     1       2.713   7.745  18.353  0.00  0.00    +0.000 OA
ATOM     20  H   UNL     1       1.853   6.537  21.130  0.00  0.00    +0.000 HD
BRANCH  17  27
ATOM     21  C   UNL     1       6.411   4.563  18.437  0.00  0.00    +0.000 C 
ATOM     22  C   UNL     1       5.081   4.333  19.092  0.00  0.00    +0.000 A 
ATOM     23  C   UNL     1       4.657   3.042  19.378  0.00  0.00    +0.000 A 
ATOM     24  C   UNL     1       3.414   2.836  19.967  0.00  0.00    +0.000 A 
ATOM     25  C   UNL     1       2.552   3.906  20.292  0.00  0.00    +0.000 A 
ATOM     26  C   UNL     1       1.269   3.511  20.964  0.00  0.00    +0.000 C 
ATOM     27  C   UNL     1       2.953   5.221  19.985  0.00  0.00    +0.000 A 
ATOM     28  C   UNL     1       4.232   5.408  19.407  0.00  0.00    +0.000 A 
ENDBRANCH  17  27
ENDBRANCH   1  18
TORSDOF 2
ENDMDL
MODEL 8
REMARK VINA RESULT:      -7.7      2.791      9.010
REMARK  Name = 
REMARK  6 active torsions:
REMARK  status: ('A' for Active; 'I' for Inactive)
REMARK    1  A    between atoms: C_1  and  C_2
REMARK    2  A    between atoms: C_5  and  C_6
REMARK    3  A    between atoms: C_7  and  N_8
REMARK    4  A    between atoms: C_9  and  C_11
REMARK    5  A    between atoms: C_20  and  C_21
REMARK    6  A    between atoms: N_25  and  C_26
REMARK                            x       y       z     vdW  Elec       q    Type
REMARK                         _______ _______ _______ _____ _____    ______ ____
ROOT
ATOM      1  C   UNL     1       0.175  10.026  18.242  0.00  0.00    +0.000 A 
ATOM      2  C   UNL     1      -1.000   9.998  17.497  0.00  0.00    +0.000 A 
ATOM      3  C   UNL     1      -1.957  10.789  18.175  0.00  0.00    +0.000 A 
ATOM      4  C   UNL     1      -3.349  11.078  17.928  0.00  0.00    +0.000 A 
ATOM      5  O   UNL     1      -3.933  10.627  16.941  0.00  0.00    +0.000 OA
ATOM      6  N   UNL     1      -3.940  11.890  18.920  0.00  0.00    +0.000 N 
ATOM      7  C   UNL     1      -5.290  12.200  18.790  0.00  0.00    +0.000 A 
ATOM      8  C   UNL     1      -5.937  12.953  19.682  0.00  0.00    +0.000 A 
ATOM      9  C   UNL     1      -5.239  13.475  20.822  0.00  0.00    +0.000 A 
ATOM     10  C   UNL     1      -3.936  13.221  21.020  0.00  0.00    +0.000 A 
ATOM     11  C   UNL     1      -3.179  13.741  22.202  0.00  0.00    +0.000 C 
ATOM     12  C   UNL     1      -3.192  12.368  20.022  0.00  0.00    +0.000 A 
ATOM     13  N   UNL     1      -1.925  12.113  20.221  0.00  0.00    +0.000 NA
ATOM     14  C   UNL     1      -1.357  11.323  19.284  0.00  0.00    +0.000 A 
ATOM     15  N   UNL     1      -0.053  10.900  19.301  0.00  0.00    +0.000 N 
ATOM     16  C   UNL     1       0.915  11.234  20.326  0.00  0.00    +0.000 C 
ENDROOT
BRANCH   1  18
ATOM     17  N   UNL     1       1.471   8.052  18.553  0.00  0.00    +0.000 N 
ATOM     18  C   UNL     1       1.443   9.333  18.032  0.00  0.00    +0.000 C 
ATOM     19  O   UNL     1       2.388   9.924  17.532  0.00  0.00    +0.000 OA
ATOM     20  H   UNL     1       0.658   7.816  19.106  0.00  0.00    +0.000 HD
BRANCH  17  27
ATOM     21  C   UNL     1       5.716   6.655  16.520  0.00  0.00    +0.000 C 
ATOM     22  C   UNL     1       4.683   6.465  17.592  0.00  0.00    +0.000 A 
ATOM     23  C   UNL     1       4.811   5.429  18.509  0.00  0.00    +0.000 A 
ATOM     24  C   UNL     1       3.838   5.248  19.487  0.00  0.00    +0.000 A 
ATOM     25  C   UNL     1       2.708   6.088  19.586  0.00  0.00    +0.000 A 
ATOM     26  C   UNL     1       1.782   5.781  20.727  0.00  0.00    +0.000 C 
ATOM     27  C   UNL     1       2.547   7.127  18.648  0.00  0.00    +0.000 A 
ATOM     28  C   UNL     1       3.561   7.307  17.676  0.00  0.00    +0.000 A 
ENDBRANCH  17  27
ENDBRANCH   1  18
TORSDOF 2
ENDMDL
MODEL 9
REMARK VINA RESULT:      -7.6      2.177      8.829
REMARK  Name = 
REMARK  6 active torsions:
REMARK  status: ('A' for Active; 'I' for Inactive)
REMARK    1  A    between atoms: C_1  and  C_2
REMARK    2  A    between atoms: C_5  and  C_6
REMARK    3  A    between atoms: C_7  and  N_8
REMARK    4  A    between atoms: C_9  and  C_11
REMARK    5  A    between atoms: C_20  and  C_21
REMARK    6  A    between atoms: N_25  and  C_26
REMARK                            x       y       z     vdW  Elec       q    Type
REMARK                         _______ _______ _______ _____ _____    ______ ____
ROOT
ATOM      1  C   UNL     1       1.028   9.176  19.323  0.00  0.00    +0.000 A 
ATOM      2  C   UNL     1       1.070   9.233  20.713  0.00  0.00    +0.000 A 
ATOM      3  C   UNL     1       0.022  10.083  21.140  0.00  0.00    +0.000 A 
ATOM      4  C   UNL     1      -0.386  10.570  22.435  0.00  0.00    +0.000 A 
ATOM      5  O   UNL     1       0.198  10.224  23.464  0.00  0.00    +0.000 OA
ATOM      6  N   UNL     1      -1.476  11.464  22.384  0.00  0.00    +0.000 N 
ATOM      7  C   UNL     1      -1.925  12.015  23.580  0.00  0.00    +0.000 A 
ATOM      8  C   UNL     1      -2.944  12.877  23.629  0.00  0.00    +0.000 A 
ATOM      9  C   UNL     1      -3.617  13.263  22.421  0.00  0.00    +0.000 A 
ATOM     10  C   UNL     1      -3.243  12.777  21.227  0.00  0.00    +0.000 A 
ATOM     11  C   UNL     1      -3.916  13.165  19.948  0.00  0.00    +0.000 C 
ATOM     12  C   UNL     1      -2.091  11.805  21.155  0.00  0.00    +0.000 A 
ATOM     13  N   UNL     1      -1.721  11.340  19.990  0.00  0.00    +0.000 NA
ATOM     14  C   UNL     1      -0.668  10.495  20.031  0.00  0.00    +0.000 A 
ATOM     15  N   UNL     1      -0.090   9.910  18.935  0.00  0.00    +0.000 N 
ATOM     16  C   UNL     1      -0.519  10.108  17.565  0.00  0.00    +0.000 C 
ENDROOT
BRANCH   1  18
ATOM     17  N   UNL     1       2.219   7.201  18.731  0.00  0.00    +0.000 N 
ATOM     18  C   UNL     1       1.913   8.503  18.378  0.00  0.00    +0.000 C 
ATOM     19  O   UNL     1       2.393   9.122  17.440  0.00  0.00    +0.000 OA
ATOM     20  H   UNL     1       1.885   6.935  19.647  0.00  0.00    +0.000 HD
BRANCH  17  27
ATOM     21  C   UNL     1       6.828   6.603  17.149  0.00  0.00    +0.000 C 
ATOM     22  C   UNL     1       5.459   6.026  17.357  0.00  0.00    +0.000 A 
ATOM     23  C   UNL     1       5.171   4.736  16.930  0.00  0.00    +0.000 A 
ATOM     24  C   UNL     1       3.893   4.217  17.109  0.00  0.00    +0.000 A 
ATOM     25  C   UNL     1       2.859   4.961  17.719  0.00  0.00    +0.000 A 
ATOM     26  C   UNL     1       1.556   4.233  17.875  0.00  0.00    +0.000 C 
ATOM     27  C   UNL     1       3.125   6.281  18.134  0.00  0.00    +0.000 A 
ATOM     28  C   UNL     1       4.438   6.780  17.963  0.00  0.00    +0.000 A 
ENDBRANCH  17  27
ENDBRANCH   1  18
TORSDOF 2
ENDMDL
