MODEL 1
REMARK VINA RESULT:      -8.7      0.000      0.000
REMARK  Name = 
REMARK  7 active torsions:
REMARK  status: ('A' for Active; 'I' for Inactive)
REMARK    1  A    between atoms: C_1  and  C_2
REMARK    2  A    between atoms: C_4  and  C_5
REMARK    3  A    between atoms: C_8  and  C_9
REMARK    4  A    between atoms: C_9  and  N_10
REMARK    5  A    between atoms: N_10  and  C_11
REMARK    6  A    between atoms: C_16  and  C_17
REMARK    7  A    between atoms: C_17  and  N_18
REMARK                            x       y       z     vdW  Elec       q    Type
REMARK                         _______ _______ _______ _____ _____    ______ ____
ROOT
ATOM      1  N   UNL     1       2.585   6.571  20.383  0.00  0.00    +0.000 N 
ATOM      2  H   UNL     1       2.658   6.549  21.395  0.00  0.00    +0.000 HD
ENDROOT
BRANCH   1   3
ATOM      3  C   UNL     1       2.204   5.326  19.835  0.00  0.00    +0.000 A 
ATOM      4  C   UNL     1       1.286   4.483  20.498  0.00  0.00    +0.000 A 
ATOM      5  C   UNL     1       0.795   3.307  19.920  0.00  0.00    +0.000 A 
ATOM      6  C   UNL     1       1.164   2.962  18.634  0.00  0.00    +0.000 A 
ATOM      7  C   UNL     1       2.053   3.778  17.941  0.00  0.00    +0.000 A 
ATOM      8  C   UNL     1       2.601   4.943  18.531  0.00  0.00    +0.000 A 
BRANCH   8   9
ATOM      9  C   UNL     1       3.658   5.657  17.720  0.00  0.00    +0.000 C 
BRANCH   9  10
ATOM     10  N   UNL     1       4.907   4.946  17.581  0.00  0.00    +0.000 N 
ATOM     11  C   UNL     1       5.370   4.373  16.336  0.00  0.00    +0.000 C 
ATOM     12  C   UNL     1       6.882   4.369  16.525  0.00  0.00    +0.000 C 
ATOM     13  N   UNL     1       7.039   4.372  17.956  0.00  0.00    +0.000 N 
ATOM     14  C   UNL     1       5.899   4.902  18.553  0.00  0.00    +0.000 C 
ATOM     15  O   UNL     1       5.838   5.300  19.700  0.00  0.00    +0.000 OA
ATOM     16  H   UNL     1       7.920   4.472  18.444  0.00  0.00    +0.000 HD
ENDBRANCH   9  10
ENDBRANCH   8   9
ENDBRANCH   1   3
BRANCH   1  17
ATOM     17  C   UNL     1       1.893   7.785  19.925  0.00  0.00    +0.000 C 
BRANCH  17  21
ATOM     18  C   UNL     1       0.016  10.075  21.912  0.00  0.00    +0.000 A 
ATOM     19  N   UNL     1       0.936   9.704  22.819  0.00  0.00    +0.000 NA
ATOM     20  O   UNL     1       1.659   8.704  22.168  0.00  0.00    +0.000 OA
ATOM     21  C   UNL     1       1.103   8.565  20.928  0.00  0.00    +0.000 A 
ATOM     22  N   UNL     1       0.056   9.337  20.745  0.00  0.00    +0.000 NA
BRANCH  18  26
ATOM     23  C   UNL     1      -1.370  14.621  20.346  0.00  0.00    +0.000 C 
ATOM     24  C   UNL     1      -1.491  13.481  21.309  0.00  0.00    +0.000 A 
ATOM     25  C   UNL     1      -0.749  12.304  21.138  0.00  0.00    +0.000 A 
ATOM     26  C   UNL     1      -0.854  11.240  22.051  0.00  0.00    +0.000 A 
ATOM     27  C   UNL     1      -1.739  11.361  23.135  0.00  0.00    +0.000 A 
ATOM     28  C   UNL     1      -2.481  12.532  23.313  0.00  0.00    +0.000 A 
ATOM     29  C   UNL     1      -2.349  13.579  22.407  0.00  0.00    +0.000 A 
ATOM     30  F   UNL     1      -3.053  14.702  22.604  0.00  0.00    +0.000 F 
ENDBRANCH  18  26
ENDBRANCH  17  21
ENDBRANCH   1  17
TORSDOF 6
ENDMDL
MODEL 2
REMARK VINA RESULT:      -8.7      5.253      8.262
REMARK  Name = 
REMARK  7 active torsions:
REMARK  status: ('A' for Active; 'I' for Inactive)
REMARK    1  A    between atoms: C_1  and  C_2
REMARK    2  A    between atoms: C_4  and  C_5
REMARK    3  A    between atoms: C_8  and  C_9
REMARK    4  A    between atoms: C_9  and  N_10
REMARK    5  A    between atoms: N_10  and  C_11
REMARK    6  A    between atoms: C_16  and  C_17
REMARK    7  A    between atoms: C_17  and  N_18
REMARK                            x       y       z     vdW  Elec       q    Type
REMARK                         _______ _______ _______ _____ _____    ______ ____
ROOT
ATOM      1  N   UNL     1       5.694   5.569  19.257  0.00  0.00    +0.000 N 
ATOM      2  H   UNL     1       5.408   6.505  19.526  0.00  0.00    +0.000 HD
ENDROOT
BRANCH   1   3
ATOM      3  C   UNL     1       4.655   4.835  18.642  0.00  0.00    +0.000 A 
ATOM      4  C   UNL     1       4.638   3.425  18.670  0.00  0.00    +0.000 A 
ATOM      5  C   UNL     1       3.559   2.677  18.183  0.00  0.00    +0.000 A 
ATOM      6  C   UNL     1       2.435   3.319  17.700  0.00  0.00    +0.000 A 
ATOM      7  C   UNL     1       2.407   4.710  17.674  0.00  0.00    +0.000 A 
ATOM      8  C   UNL     1       3.511   5.481  18.113  0.00  0.00    +0.000 A 
BRANCH   8   9
ATOM      9  C   UNL     1       3.400   6.973  17.899  0.00  0.00    +0.000 C 
BRANCH   9  10
ATOM     10  N   UNL     1       2.389   7.632  18.691  0.00  0.00    +0.000 N 
ATOM     11  C   UNL     1       1.985   7.189  20.007  0.00  0.00    +0.000 C 
ATOM     12  C   UNL     1       1.478   8.479  20.641  0.00  0.00    +0.000 C 
ATOM     13  N   UNL     1       1.123   9.290  19.507  0.00  0.00    +0.000 N 
ATOM     14  C   UNL     1       1.834   8.869  18.386  0.00  0.00    +0.000 C 
ATOM     15  O   UNL     1       1.973   9.519  17.369  0.00  0.00    +0.000 OA
ATOM     16  H   UNL     1       0.841  10.260  19.551  0.00  0.00    +0.000 HD
ENDBRANCH   9  10
ENDBRANCH   8   9
ENDBRANCH   1   3
BRANCH   1  17
ATOM     17  C   UNL     1       7.022   5.578  18.624  0.00  0.00    +0.000 C 
BRANCH  17  21
ATOM     18  C   UNL     1       8.355   8.856  18.183  0.00  0.00    +0.000 A 
ATOM     19  N   UNL     1       7.396   8.883  17.242  0.00  0.00    +0.000 NA
ATOM     20  O   UNL     1       6.885   7.586  17.251  0.00  0.00    +0.000 OA
ATOM     21  C   UNL     1       7.588   6.897  18.198  0.00  0.00    +0.000 A 
ATOM     22  N   UNL     1       8.541   7.611  18.753  0.00  0.00    +0.000 NA
BRANCH  18  26
ATOM     23  C   UNL     1      11.167  12.900  17.297  0.00  0.00    +0.000 C 
ATOM     24  C   UNL     1      10.462  11.985  18.252  0.00  0.00    +0.000 A 
ATOM     25  C   UNL     1       9.696  10.904  17.790  0.00  0.00    +0.000 A 
ATOM     26  C   UNL     1       9.047  10.039  18.688  0.00  0.00    +0.000 A 
ATOM     27  C   UNL     1       9.156  10.286  20.066  0.00  0.00    +0.000 A 
ATOM     28  C   UNL     1       9.919  11.360  20.534  0.00  0.00    +0.000 A 
ATOM     29  C   UNL     1      10.566  12.194  19.628  0.00  0.00    +0.000 A 
ATOM     30  F   UNL     1      11.309  13.207  20.094  0.00  0.00    +0.000 F 
ENDBRANCH  18  26
ENDBRANCH  17  21
ENDBRANCH   1  17
TORSDOF 6
ENDMDL
MODEL 3
REMARK VINA RESULT:      -8.6      2.052      2.676
REMARK  Name = 
REMARK  7 active torsions:
REMARK  status: ('A' for Active; 'I' for Inactive)
REMARK    1  A    between atoms: C_1  and  C_2
REMARK    2  A    between atoms: C_4  and  C_5
REMARK    3  A    between atoms: C_8  and  C_9
REMARK    4  A    between atoms: C_9  and  N_10
REMARK    5  A    between atoms: N_10  and  C_11
REMARK    6  A    between atoms: C_16  and  C_17
REMARK    7  A    between atoms: C_17  and  N_18
REMARK                            x       y       z     vdW  Elec       q    Type
REMARK                         _______ _______ _______ _____ _____    ______ ____
ROOT
ATOM      1  N   UNL     1       2.260   5.638  17.973  0.00  0.00    +0.000 N 
ATOM      2  H   UNL     1       2.251   5.189  17.063  0.00  0.00    +0.000 HD
ENDROOT
BRANCH   1   3
ATOM      3  C   UNL     1       2.522   4.733  19.026  0.00  0.00    +0.000 A 
ATOM      4  C   UNL     1       1.908   4.880  20.288  0.00  0.00    +0.000 A 
ATOM      5  C   UNL     1       2.048   3.929  21.306  0.00  0.00    +0.000 A 
ATOM      6  C   UNL     1       2.766   2.771  21.076  0.00  0.00    +0.000 A 
ATOM      7  C   UNL     1       3.371   2.582  19.837  0.00  0.00    +0.000 A 
ATOM      8  C   UNL     1       3.282   3.558  18.815  0.00  0.00    +0.000 A 
BRANCH   8   9
ATOM      9  C   UNL     1       4.101   3.287  17.573  0.00  0.00    +0.000 C 
BRANCH   9  10
ATOM     10  N   UNL     1       5.293   4.091  17.438  0.00  0.00    +0.000 N 
ATOM     11  C   UNL     1       5.997   4.678  18.557  0.00  0.00    +0.000 C 
ATOM     12  C   UNL     1       7.416   4.803  18.017  0.00  0.00    +0.000 C 
ATOM     13  N   UNL     1       7.227   4.837  16.591  0.00  0.00    +0.000 N 
ATOM     14  C   UNL     1       6.019   4.229  16.261  0.00  0.00    +0.000 C 
ATOM     15  O   UNL     1       5.715   3.847  15.148  0.00  0.00    +0.000 OA
ATOM     16  H   UNL     1       7.971   4.814  15.905  0.00  0.00    +0.000 HD
ENDBRANCH   9  10
ENDBRANCH   8   9
ENDBRANCH   1   3
BRANCH   1  17
ATOM     17  C   UNL     1       2.999   6.909  17.934  0.00  0.00    +0.000 C 
BRANCH  17  21
ATOM     18  C   UNL     1       1.038   9.465  19.463  0.00  0.00    +0.000 A 
ATOM     19  N   UNL     1       0.918   9.838  18.178  0.00  0.00    +0.000 NA
ATOM     20  O   UNL     1       1.759   8.959  17.496  0.00  0.00    +0.000 OA
ATOM     21  C   UNL     1       2.310   8.138  18.438  0.00  0.00    +0.000 A 
ATOM     22  N   UNL     1       1.950   8.447  19.664  0.00  0.00    +0.000 NA
BRANCH  18  26
ATOM     23  C   UNL     1      -2.062  12.965  21.246  0.00  0.00    +0.000 C 
ATOM     24  C   UNL     1      -1.282  11.699  21.428  0.00  0.00    +0.000 A 
ATOM     25  C   UNL     1      -0.550  11.140  20.370  0.00  0.00    +0.000 A 
ATOM     26  C   UNL     1       0.192   9.959  20.547  0.00  0.00    +0.000 A 
ATOM     27  C   UNL     1       0.172   9.326  21.800  0.00  0.00    +0.000 A 
ATOM     28  C   UNL     1      -0.554   9.878  22.859  0.00  0.00    +0.000 A 
ATOM     29  C   UNL     1      -1.268  11.056  22.667  0.00  0.00    +0.000 A 
ATOM     30  F   UNL     1      -1.943  11.583  23.699  0.00  0.00    +0.000 F 
ENDBRANCH  18  26
ENDBRANCH  17  21
ENDBRANCH   1  17
TORSDOF 6
ENDMDL
MODEL 4
REMARK VINA RESULT:      -8.6      1.357      1.939
REMARK  Name = 
REMARK  7 active torsions:
REMARK  status: ('A' for Active; 'I' for Inactive)
REMARK    1  A    between atoms: C_1  and  C_2
REMARK    2  A    between atoms: C_4  and  C_5
REMARK    3  A    between atoms: C_8  and  C_9
REMARK    4  A    between atoms: C_9  and  N_10
REMARK    5  A    between atoms: N_10  and  C_11
REMARK    6  A    between atoms: C_16  and  C_17
REMARK    7  A    between atoms: C_17  and  N_18
REMARK                            x       y       z     vdW  Elec       q    Type
REMARK                         _______ _______ _______ _____ _____    ______ ____
ROOT
ATOM      1  N   UNL     1       2.340   7.252  20.541  0.00  0.00    +0.000 N 
ATOM      2  H   UNL     1       2.424   7.170  21.549  0.00  0.00    +0.000 HD
ENDROOT
BRANCH   1   3
ATOM      3  C   UNL     1       2.142   6.006  19.905  0.00  0.00    +0.000 A 
ATOM      4  C   UNL     1       1.377   4.987  20.512  0.00  0.00    +0.000 A 
ATOM      5  C   UNL     1       1.058   3.795  19.852  0.00  0.00    +0.000 A 
ATOM      6  C   UNL     1       1.448   3.605  18.540  0.00  0.00    +0.000 A 
ATOM      7  C   UNL     1       2.187   4.595  17.901  0.00  0.00    +0.000 A 
ATOM      8  C   UNL     1       2.564   5.785  18.571  0.00  0.00    +0.000 A 
BRANCH   8   9
ATOM      9  C   UNL     1       3.482   6.710  17.805  0.00  0.00    +0.000 C 
BRANCH   9  10
ATOM     10  N   UNL     1       4.835   6.235  17.646  0.00  0.00    +0.000 N 
ATOM     11  C   UNL     1       5.562   5.519  18.672  0.00  0.00    +0.000 C 
ATOM     12  C   UNL     1       6.556   4.703  17.855  0.00  0.00    +0.000 C 
ATOM     13  N   UNL     1       6.669   5.447  16.628  0.00  0.00    +0.000 N 
ATOM     14  C   UNL     1       5.527   6.221  16.440  0.00  0.00    +0.000 C 
ATOM     15  O   UNL     1       5.195   6.724  15.385  0.00  0.00    +0.000 OA
ATOM     16  H   UNL     1       7.174   5.141  15.807  0.00  0.00    +0.000 HD
ENDBRANCH   9  10
ENDBRANCH   8   9
ENDBRANCH   1   3
BRANCH   1  17
ATOM     17  C   UNL     1       1.475   8.381  20.168  0.00  0.00    +0.000 C 
BRANCH  17  21
ATOM     18  C   UNL     1      -0.320  10.465  22.438  0.00  0.00    +0.000 A 
ATOM     19  N   UNL     1       0.462   9.811  23.314  0.00  0.00    +0.000 NA
ATOM     20  O   UNL     1       1.129   8.872  22.528  0.00  0.00    +0.000 OA
ATOM     21  C   UNL     1       0.683   9.047  21.249  0.00  0.00    +0.000 A 
ATOM     22  N   UNL     1      -0.250   9.967  21.151  0.00  0.00    +0.000 NA
BRANCH  18  26
ATOM     23  C   UNL     1      -4.419  12.636  24.315  0.00  0.00    +0.000 C 
ATOM     24  C   UNL     1      -3.094  12.731  23.622  0.00  0.00    +0.000 A 
ATOM     25  C   UNL     1      -2.303  11.592  23.410  0.00  0.00    +0.000 A 
ATOM     26  C   UNL     1      -1.066  11.682  22.748  0.00  0.00    +0.000 A 
ATOM     27  C   UNL     1      -0.616  12.940  22.318  0.00  0.00    +0.000 A 
ATOM     28  C   UNL     1      -1.400  14.079  22.524  0.00  0.00    +0.000 A 
ATOM     29  C   UNL     1      -2.628  13.966  23.167  0.00  0.00    +0.000 A 
ATOM     30  F   UNL     1      -3.376  15.065  23.339  0.00  0.00    +0.000 F 
ENDBRANCH  18  26
ENDBRANCH  17  21
ENDBRANCH   1  17
TORSDOF 6
ENDMDL
MODEL 5
REMARK VINA RESULT:      -8.6      2.215      2.800
REMARK  Name = 
REMARK  7 active torsions:
REMARK  status: ('A' for Active; 'I' for Inactive)
REMARK    1  A    between atoms: C_1  and  C_2
REMARK    2  A    between atoms: C_4  and  C_5
REMARK    3  A    between atoms: C_8  and  C_9
REMARK    4  A    between atoms: C_9  and  N_10
REMARK    5  A    between atoms: N_10  and  C_11
REMARK    6  A    between atoms: C_16  and  C_17
REMARK    7  A    between atoms: C_17  and  N_18
REMARK                            x       y       z     vdW  Elec       q    Type
REMARK                         _______ _______ _______ _____ _____    ______ ____
ROOT
ATOM      1  N   UNL     1       2.691   5.888  18.096  0.00  0.00    +0.000 N 
ATOM      2  H   UNL     1       3.429   6.131  17.444  0.00  0.00    +0.000 HD
ENDROOT
BRANCH   1   3
ATOM      3  C   UNL     1       2.629   4.502  18.361  0.00  0.00    +0.000 A 
ATOM      4  C   UNL     1       1.394   3.824  18.435  0.00  0.00    +0.000 A 
ATOM      5  C   UNL     1       1.309   2.433  18.568  0.00  0.00    +0.000 A 
ATOM      6  C   UNL     1       2.459   1.667  18.577  0.00  0.00    +0.000 A 
ATOM      7  C   UNL     1       3.696   2.298  18.486  0.00  0.00    +0.000 A 
ATOM      8  C   UNL     1       3.802   3.708  18.405  0.00  0.00    +0.000 A 
BRANCH   8   9
ATOM      9  C   UNL     1       5.205   4.267  18.453  0.00  0.00    +0.000 C 
BRANCH   9  10
ATOM     10  N   UNL     1       5.886   4.324  17.181  0.00  0.00    +0.000 N 
ATOM     11  C   UNL     1       5.205   4.447  15.911  0.00  0.00    +0.000 C 
ATOM     12  C   UNL     1       6.263   5.115  15.041  0.00  0.00    +0.000 C 
ATOM     13  N   UNL     1       7.498   4.765  15.690  0.00  0.00    +0.000 N 
ATOM     14  C   UNL     1       7.260   4.473  17.031  0.00  0.00    +0.000 C 
ATOM     15  O   UNL     1       8.114   4.428  17.894  0.00  0.00    +0.000 OA
ATOM     16  H   UNL     1       8.410   5.124  15.439  0.00  0.00    +0.000 HD
ENDBRANCH   9  10
ENDBRANCH   8   9
ENDBRANCH   1   3
BRANCH   1  17
ATOM     17  C   UNL     1       2.649   6.826  19.228  0.00  0.00    +0.000 C 
BRANCH  17  21
ATOM     18  C   UNL     1       0.838   9.861  18.757  0.00  0.00    +0.000 A 
ATOM     19  N   UNL     1       1.579   9.874  17.637  0.00  0.00    +0.000 NA
ATOM     20  O   UNL     1       2.422   8.773  17.783  0.00  0.00    +0.000 OA
ATOM     21  C   UNL     1       2.110   8.200  18.983  0.00  0.00    +0.000 A 
ATOM     22  N   UNL     1       1.191   8.864  19.646  0.00  0.00    +0.000 NA
BRANCH  18  26
ATOM     23  C   UNL     1      -1.849  12.768  21.819  0.00  0.00    +0.000 C 
ATOM     24  C   UNL     1      -1.665  12.084  20.499  0.00  0.00    +0.000 A 
ATOM     25  C   UNL     1      -0.499  11.358  20.215  0.00  0.00    +0.000 A 
ATOM     26  C   UNL     1      -0.334  10.705  18.980  0.00  0.00    +0.000 A 
ATOM     27  C   UNL     1      -1.350  10.809  18.017  0.00  0.00    +0.000 A 
ATOM     28  C   UNL     1      -2.515  11.530  18.293  0.00  0.00    +0.000 A 
ATOM     29  C   UNL     1      -2.664  12.154  19.527  0.00  0.00    +0.000 A 
ATOM     30  F   UNL     1      -3.797  12.824  19.783  0.00  0.00    +0.000 F 
ENDBRANCH  18  26
ENDBRANCH  17  21
ENDBRANCH   1  17
TORSDOF 6
ENDMDL
MODEL 6
REMARK VINA RESULT:      -8.5      0.964      1.625
REMARK  Name = 
REMARK  7 active torsions:
REMARK  status: ('A' for Active; 'I' for Inactive)
REMARK    1  A    between atoms: C_1  and  C_2
REMARK    2  A    between atoms: C_4  and  C_5
REMARK    3  A    between atoms: C_8  and  C_9
REMARK    4  A    between atoms: C_9  and  N_10
REMARK    5  A    between atoms: N_10  and  C_11
REMARK    6  A    between atoms: C_16  and  C_17
REMARK    7  A    between atoms: C_17  and  N_18
REMARK                            x       y       z     vdW  Elec       q    Type
REMARK                         _______ _______ _______ _____ _____    ______ ____
ROOT
ATOM      1  N   UNL     1       2.358   6.927  20.233  0.00  0.00    +0.000 N 
ATOM      2  H   UNL     1       3.316   7.121  20.506  0.00  0.00    +0.000 HD
ENDROOT
BRANCH   1   3
ATOM      3  C   UNL     1       2.172   5.596  19.795  0.00  0.00    +0.000 A 
ATOM      4  C   UNL     1       1.249   4.738  20.428  0.00  0.00    +0.000 A 
ATOM      5  C   UNL     1       0.953   3.461  19.936  0.00  0.00    +0.000 A 
ATOM      6  C   UNL     1       1.531   3.021  18.762  0.00  0.00    +0.000 A 
ATOM      7  C   UNL     1       2.433   3.847  18.098  0.00  0.00    +0.000 A 
ATOM      8  C   UNL     1       2.784   5.120  18.609  0.00  0.00    +0.000 A 
BRANCH   8   9
ATOM      9  C   UNL     1       3.878   5.851  17.864  0.00  0.00    +0.000 C 
BRANCH   9  10
ATOM     10  N   UNL     1       5.073   5.080  17.621  0.00  0.00    +0.000 N 
ATOM     11  C   UNL     1       5.485   4.628  16.310  0.00  0.00    +0.000 C 
ATOM     12  C   UNL     1       6.995   4.501  16.471  0.00  0.00    +0.000 C 
ATOM     13  N   UNL     1       7.165   4.324  17.889  0.00  0.00    +0.000 N 
ATOM     14  C   UNL     1       6.069   4.855  18.564  0.00  0.00    +0.000 C 
ATOM     15  O   UNL     1       6.046   5.117  19.751  0.00  0.00    +0.000 OA
ATOM     16  H   UNL     1       8.055   4.306  18.370  0.00  0.00    +0.000 HD
ENDBRANCH   9  10
ENDBRANCH   8   9
ENDBRANCH   1   3
BRANCH   1  17
ATOM     17  C   UNL     1       1.404   7.491  21.199  0.00  0.00    +0.000 C 
BRANCH  17  21
ATOM     18  C   UNL     1       0.195  10.843  21.345  0.00  0.00    +0.000 A 
ATOM     19  N   UNL     1       0.186  10.667  20.013  0.00  0.00    +0.000 NA
ATOM     20  O   UNL     1       0.764   9.409  19.841  0.00  0.00    +0.000 OA
ATOM     21  C   UNL     1       1.069   8.946  21.089  0.00  0.00    +0.000 A 
ATOM     22  N   UNL     1       0.799   9.812  22.039  0.00  0.00    +0.000 NA
BRANCH  18  26
ATOM     23  C   UNL     1      -3.686  12.434  24.074  0.00  0.00    +0.000 C 
ATOM     24  C   UNL     1      -2.416  12.709  23.328  0.00  0.00    +0.000 A 
ATOM     25  C   UNL     1      -1.675  11.669  22.748  0.00  0.00    +0.000 A 
ATOM     26  C   UNL     1      -0.491  11.931  22.037  0.00  0.00    +0.000 A 
ATOM     27  C   UNL     1      -0.041  13.257  21.933  0.00  0.00    +0.000 A 
ATOM     28  C   UNL     1      -0.775  14.299  22.508  0.00  0.00    +0.000 A 
ATOM     29  C   UNL     1      -1.953  14.019  23.193  0.00  0.00    +0.000 A 
ATOM     30  F   UNL     1      -2.654  15.032  23.720  0.00  0.00    +0.000 F 
ENDBRANCH  18  26
ENDBRANCH  17  21
ENDBRANCH   1  17
TORSDOF 6
ENDMDL
MODEL 7
REMARK VINA RESULT:      -8.4      5.394      8.031
REMARK  Name = 
REMARK  7 active torsions:
REMARK  status: ('A' for Active; 'I' for Inactive)
REMARK    1  A    between atoms: C_1  and  C_2
REMARK    2  A    between atoms: C_4  and  C_5
REMARK    3  A    between atoms: C_8  and  C_9
REMARK    4  A    between atoms: C_9  and  N_10
REMARK    5  A    between atoms: N_10  and  C_11
REMARK    6  A    between atoms: C_16  and  C_17
REMARK    7  A    between atoms: C_17  and  N_18
REMARK                            x       y       z     vdW  Elec       q    Type
REMARK                         _______ _______ _______ _____ _____    ______ ____
ROOT
ATOM      1  N   UNL     1       5.180   5.403  16.642  0.00  0.00    +0.000 N 
ATOM      2  H   UNL     1       5.203   4.408  16.842  0.00  0.00    +0.000 HD
ENDROOT
BRANCH   1   3
ATOM      3  C   UNL     1       4.327   6.117  17.512  0.00  0.00    +0.000 A 
ATOM      4  C   UNL     1       3.766   7.356  17.137  0.00  0.00    +0.000 A 
ATOM      5  C   UNL     1       2.819   8.021  17.924  0.00  0.00    +0.000 A 
ATOM      6  C   UNL     1       2.360   7.440  19.091  0.00  0.00    +0.000 A 
ATOM      7  C   UNL     1       2.875   6.209  19.486  0.00  0.00    +0.000 A 
ATOM      8  C   UNL     1       3.873   5.549  18.728  0.00  0.00    +0.000 A 
BRANCH   8   9
ATOM      9  C   UNL     1       4.442   4.291  19.343  0.00  0.00    +0.000 C 
BRANCH   9  10
ATOM     10  N   UNL     1       3.485   3.237  19.579  0.00  0.00    +0.000 N 
ATOM     11  C   UNL     1       2.869   2.984  20.863  0.00  0.00    +0.000 C 
ATOM     12  C   UNL     1       1.556   2.319  20.466  0.00  0.00    +0.000 C 
ATOM     13  N   UNL     1       1.838   1.777  19.163  0.00  0.00    +0.000 N 
ATOM     14  C   UNL     1       2.888   2.478  18.578  0.00  0.00    +0.000 C 
ATOM     15  O   UNL     1       3.164   2.456  17.395  0.00  0.00    +0.000 OA
ATOM     16  H   UNL     1       1.155   1.349  18.551  0.00  0.00    +0.000 HD
ENDBRANCH   9  10
ENDBRANCH   8   9
ENDBRANCH   1   3
BRANCH   1  17
ATOM     17  C   UNL     1       6.531   5.927  16.390  0.00  0.00    +0.000 C 
BRANCH  17  21
ATOM     18  C   UNL     1       8.084   8.569  18.212  0.00  0.00    +0.000 A 
ATOM     19  N   UNL     1       8.523   7.522  18.931  0.00  0.00    +0.000 NA
ATOM     20  O   UNL     1       7.865   6.431  18.364  0.00  0.00    +0.000 OA
ATOM     21  C   UNL     1       7.088   6.926  17.355  0.00  0.00    +0.000 A 
ATOM     22  N   UNL     1       7.139   8.235  17.262  0.00  0.00    +0.000 NA
BRANCH  18  26
ATOM     23  C   UNL     1      11.085  11.849  20.511  0.00  0.00    +0.000 C 
ATOM     24  C   UNL     1      10.073  11.525  19.454  0.00  0.00    +0.000 A 
ATOM     25  C   UNL     1       9.602  10.216  19.278  0.00  0.00    +0.000 A 
ATOM     26  C   UNL     1       8.642   9.917  18.295  0.00  0.00    +0.000 A 
ATOM     27  C   UNL     1       8.173  10.951  17.468  0.00  0.00    +0.000 A 
ATOM     28  C   UNL     1       8.637  12.258  17.639  0.00  0.00    +0.000 A 
ATOM     29  C   UNL     1       9.575  12.534  18.628  0.00  0.00    +0.000 A 
ATOM     30  F   UNL     1       9.993  13.797  18.792  0.00  0.00    +0.000 F 
ENDBRANCH  18  26
ENDBRANCH  17  21
ENDBRANCH   1  17
TORSDOF 6
ENDMDL
MODEL 8
REMARK VINA RESULT:      -8.3      2.607      3.058
REMARK  Name = 
REMARK  7 active torsions:
REMARK  status: ('A' for Active; 'I' for Inactive)
REMARK    1  A    between atoms: C_1  and  C_2
REMARK    2  A    between atoms: C_4  and  C_5
REMARK    3  A    between atoms: C_8  and  C_9
REMARK    4  A    between atoms: C_9  and  N_10
REMARK    5  A    between atoms: N_10  and  C_11
REMARK    6  A    between atoms: C_16  and  C_17
REMARK    7  A    between atoms: C_17  and  N_18
REMARK                            x       y       z     vdW  Elec       q    Type
REMARK                         _______ _______ _______ _____ _____    ______ ____
ROOT
ATOM      1  N   UNL     1       2.967   6.507  20.011  0.00  0.00    +0.000 N 
ATOM      2  H   UNL     1       3.909   6.727  20.319  0.00  0.00    +0.000 HD
ENDROOT
BRANCH   1   3
ATOM      3  C   UNL     1       2.712   5.118  19.982  0.00  0.00    +0.000 A 
ATOM      4  C   UNL     1       1.430   4.602  20.265  0.00  0.00    +0.000 A 
ATOM      5  C   UNL     1       1.117   3.245  20.119  0.00  0.00    +0.000 A 
ATOM      6  C   UNL     1       2.065   2.366  19.631  0.00  0.00    +0.000 A 
ATOM      7  C   UNL     1       3.336   2.841  19.322  0.00  0.00    +0.000 A 
ATOM      8  C   UNL     1       3.684   4.200  19.514  0.00  0.00    +0.000 A 
BRANCH   8   9
ATOM      9  C   UNL     1       5.135   4.550  19.271  0.00  0.00    +0.000 C 
BRANCH   9  10
ATOM     10  N   UNL     1       5.497   4.728  17.885  0.00  0.00    +0.000 N 
ATOM     11  C   UNL     1       4.577   5.183  16.866  0.00  0.00    +0.000 C 
ATOM     12  C   UNL     1       5.513   5.824  15.848  0.00  0.00    +0.000 C 
ATOM     13  N   UNL     1       6.772   5.173  16.098  0.00  0.00    +0.000 N 
ATOM     14  C   UNL     1       6.800   4.686  17.402  0.00  0.00    +0.000 C 
ATOM     15  O   UNL     1       7.806   4.353  17.997  0.00  0.00    +0.000 OA
ATOM     16  H   UNL     1       7.652   5.425  15.668  0.00  0.00    +0.000 HD
ENDBRANCH   9  10
ENDBRANCH   8   9
ENDBRANCH   1   3
BRANCH   1  17
ATOM     17  C   UNL     1       1.978   7.393  20.643  0.00  0.00    +0.000 C 
BRANCH  17  21
ATOM     18  C   UNL     1       0.127   9.799  18.772  0.00  0.00    +0.000 A 
ATOM     19  N   UNL     1       1.129   9.575  17.905  0.00  0.00    +0.000 NA
ATOM     20  O   UNL     1       1.987   8.724  18.602  0.00  0.00    +0.000 OA
ATOM     21  C   UNL     1       1.419   8.517  19.828  0.00  0.00    +0.000 A 
ATOM     22  N   UNL     1       0.312   9.203  20.004  0.00  0.00    +0.000 NA
BRANCH  18  26
ATOM     23  C   UNL     1      -3.584  12.896  20.068  0.00  0.00    +0.000 C 
ATOM     24  C   UNL     1      -2.957  11.950  19.090  0.00  0.00    +0.000 A 
ATOM     25  C   UNL     1      -1.704  11.372  19.342  0.00  0.00    +0.000 A 
ATOM     26  C   UNL     1      -1.122  10.474  18.429  0.00  0.00    +0.000 A 
ATOM     27  C   UNL     1      -1.807  10.179  17.239  0.00  0.00    +0.000 A 
ATOM     28  C   UNL     1      -3.057  10.750  16.982  0.00  0.00    +0.000 A 
ATOM     29  C   UNL     1      -3.621  11.623  17.907  0.00  0.00    +0.000 A 
ATOM     30  F   UNL     1      -4.828  12.146  17.654  0.00  0.00    +0.000 F 
ENDBRANCH  18  26
ENDBRANCH  17  21
ENDBRANCH   1  17
TORSDOF 6
ENDMDL
MODEL 9
REMARK VINA RESULT:      -8.3      1.554      2.122
REMARK  Name = 
REMARK  7 active torsions:
REMARK  status: ('A' for Active; 'I' for Inactive)
REMARK    1  A    between atoms: C_1  and  C_2
REMARK    2  A    between atoms: C_4  and  C_5
REMARK    3  A    between atoms: C_8  and  C_9
REMARK    4  A    between atoms: C_9  and  N_10
REMARK    5  A    between atoms: N_10  and  C_11
REMARK    6  A    between atoms: C_16  and  C_17
REMARK    7  A    between atoms: C_17  and  N_18
REMARK                            x       y       z     vdW  Elec       q    Type
REMARK                         _______ _______ _______ _____ _____    ______ ____
ROOT
ATOM      1  N   UNL     1       3.109   5.470  20.298  0.00  0.00    +0.000 N 
ATOM      2  H   UNL     1       3.767   5.370  21.064  0.00  0.00    +0.000 HD
ENDROOT
BRANCH   1   3
ATOM      3  C   UNL     1       3.017   4.308  19.500  0.00  0.00    +0.000 A 
ATOM      4  C   UNL     1       2.323   3.164  19.947  0.00  0.00    +0.000 A 
ATOM      5  C   UNL     1       2.107   2.049  19.129  0.00  0.00    +0.000 A 
ATOM      6  C   UNL     1       2.533   2.063  17.815  0.00  0.00    +0.000 A 
ATOM      7  C   UNL     1       3.205   3.181  17.331  0.00  0.00    +0.000 A 
ATOM      8  C   UNL     1       3.478   4.296  18.160  0.00  0.00    +0.000 A 
BRANCH   8   9
ATOM      9  C   UNL     1       4.336   5.379  17.547  0.00  0.00    +0.000 C 
BRANCH   9  10
ATOM     10  N   UNL     1       5.497   4.908  16.831  0.00  0.00    +0.000 N 
ATOM     11  C   UNL     1       5.599   4.891  15.388  0.00  0.00    +0.000 C 
ATOM     12  C   UNL     1       7.104   4.979  15.169  0.00  0.00    +0.000 C 
ATOM     13  N   UNL     1       7.650   4.467  16.398  0.00  0.00    +0.000 N 
ATOM     14  C   UNL     1       6.719   4.612  17.423  0.00  0.00    +0.000 C 
ATOM     15  O   UNL     1       6.977   4.546  18.609  0.00  0.00    +0.000 OA
ATOM     16  H   UNL     1       8.631   4.471  16.645  0.00  0.00    +0.000 HD
ENDBRANCH   9  10
ENDBRANCH   8   9
ENDBRANCH   1   3
BRANCH   1  17
ATOM     17  C   UNL     1       1.867   6.121  20.742  0.00  0.00    +0.000 C 
BRANCH  17  21
ATOM     18  C   UNL     1       0.822   9.460  20.058  0.00  0.00    +0.000 A 
ATOM     19  N   UNL     1       1.496   9.207  18.923  0.00  0.00    +0.000 NA
ATOM     20  O   UNL     1       2.055   7.948  19.143  0.00  0.00    +0.000 OA
ATOM     21  C   UNL     1       1.666   7.562  20.394  0.00  0.00    +0.000 A 
ATOM     22  N   UNL     1       0.962   8.479  21.020  0.00  0.00    +0.000 NA
BRANCH  18  26
ATOM     23  C   UNL     1      -1.343  12.813  23.077  0.00  0.00    +0.000 C 
ATOM     24  C   UNL     1      -1.190  12.181  21.728  0.00  0.00    +0.000 A 
ATOM     25  C   UNL     1      -0.233  11.181  21.499  0.00  0.00    +0.000 A 
ATOM     26  C   UNL     1      -0.101  10.579  20.235  0.00  0.00    +0.000 A 
ATOM     27  C   UNL     1      -0.930  11.012  19.188  0.00  0.00    +0.000 A 
ATOM     28  C   UNL     1      -1.886  12.007  19.408  0.00  0.00    +0.000 A 
ATOM     29  C   UNL     1      -2.011  12.577  20.670  0.00  0.00    +0.000 A 
ATOM     30  F   UNL     1      -2.947  13.516  20.869  0.00  0.00    +0.000 F 
ENDBRANCH  18  26
ENDBRANCH  17  21
ENDBRANCH   1  17
TORSDOF 6
ENDMDL
