MODEL 1
REMARK VINA RESULT:      -8.3      0.000      0.000
REMARK  Name = 
REMARK  8 active torsions:
REMARK  status: ('A' for Active; 'I' for Inactive)
REMARK    1  A    between atoms: C_2  and  C_3
REMARK    2  A    between atoms: C_3  and  C_4
REMARK    3  A    between atoms: C_8  and  O_9
REMARK    4  A    between atoms: O_9  and  C_10
REMARK    5  A    between atoms: C_10  and  C_11
REMARK    6  A    between atoms: N_18  and  C_19
REMARK    7  A    between atoms: C_19  and  C_20
REMARK    8  A    between atoms: C_23  and  C_24
REMARK                            x       y       z     vdW  Elec       q    Type
REMARK                         _______ _______ _______ _____ _____    ______ ____
ROOT
ATOM      1  C   UNL     1       6.846   7.061  16.732  0.00  0.00    +0.000 C 
ENDROOT
BRANCH   1   2
ATOM      2  C   UNL     1       5.457   6.610  17.114  0.00  0.00    +0.000 A 
ATOM      3  C   UNL     1       4.487   7.513  17.566  0.00  0.00    +0.000 A 
ATOM      4  C   UNL     1       3.210   7.065  17.916  0.00  0.00    +0.000 A 
ATOM      5  C   UNL     1       2.879   5.715  17.783  0.00  0.00    +0.000 A 
ATOM      6  C   UNL     1       3.824   4.814  17.300  0.00  0.00    +0.000 A 
ATOM      7  C   UNL     1       5.121   5.255  17.022  0.00  0.00    +0.000 A 
BRANCH   6   8
ATOM      8  O   UNL     1       3.392   3.526  17.108  0.00  0.00    +0.000 OA
BRANCH   8   9
ATOM      9  C   UNL     1       3.858   2.606  18.100  0.00  0.00    +0.000 C 
BRANCH   9  10
ATOM     10  C   UNL     1       3.026   2.703  19.343  0.00  0.00    +0.000 A 
ATOM     11  C   UNL     1       1.636   2.826  19.282  0.00  0.00    +0.000 A 
ATOM     12  C   UNL     1       0.893   2.815  20.457  0.00  0.00    +0.000 A 
ATOM     13  C   UNL     1       1.570   2.678  21.657  0.00  0.00    +0.000 A 
ATOM     14  N   UNL     1       2.911   2.549  21.756  0.00  0.00    +0.000 NA
ATOM     15  C   UNL     1       3.606   2.566  20.595  0.00  0.00    +0.000 A 
ENDBRANCH   9  10
ENDBRANCH   8   9
ENDBRANCH   6   8
ENDBRANCH   1   2
BRANCH   1  17
ATOM     16  O   UNL     1       8.013   6.693  18.806  0.00  0.00    +0.000 OA
ATOM     17  C   UNL     1       7.695   7.484  17.921  0.00  0.00    +0.000 C 
ATOM     18  N   UNL     1       8.067   8.811  17.913  0.00  0.00    +0.000 N 
ATOM     19  H   UNL     1       7.680   9.428  17.214  0.00  0.00    +0.000 HD
BRANCH  18  20
ATOM     20  C   UNL     1       8.906   9.395  18.943  0.00  0.00    +0.000 C 
BRANCH  20  21
ATOM     21  C   UNL     1       9.503  10.709  18.493  0.00  0.00    +0.000 A 
ATOM     22  C   UNL     1       8.699  11.737  17.983  0.00  0.00    +0.000 A 
ATOM     23  C   UNL     1       9.275  12.918  17.495  0.00  0.00    +0.000 A 
ATOM     24  C   UNL     1      10.663  13.123  17.511  0.00  0.00    +0.000 A 
ATOM     25  C   UNL     1      11.449  12.116  18.089  0.00  0.00    +0.000 A 
ATOM     26  C   UNL     1      10.884  10.927  18.569  0.00  0.00    +0.000 A 
BRANCH  24  27
ATOM     27  C   UNL     1      11.299  14.315  16.831  0.00  0.00    +0.000 C 
ATOM     28  C   UNL     1      11.948  15.418  17.637  0.00  0.00    +0.000 C 
ATOM     29  C   UNL     1      10.671  15.685  16.897  0.00  0.00    +0.000 C 
ENDBRANCH  24  27
ENDBRANCH  20  21
ENDBRANCH  18  20
ENDBRANCH   1  17
TORSDOF 8
ENDMDL
MODEL 2
REMARK VINA RESULT:      -7.9      5.493      9.240
REMARK  Name = 
REMARK  8 active torsions:
REMARK  status: ('A' for Active; 'I' for Inactive)
REMARK    1  A    between atoms: C_2  and  C_3
REMARK    2  A    between atoms: C_3  and  C_4
REMARK    3  A    between atoms: C_8  and  O_9
REMARK    4  A    between atoms: O_9  and  C_10
REMARK    5  A    between atoms: C_10  and  C_11
REMARK    6  A    between atoms: N_18  and  C_19
REMARK    7  A    between atoms: C_19  and  C_20
REMARK    8  A    between atoms: C_23  and  C_24
REMARK                            x       y       z     vdW  Elec       q    Type
REMARK                         _______ _______ _______ _____ _____    ______ ____
ROOT
ATOM      1  C   UNL     1       1.679   7.089  20.778  0.00  0.00    +0.000 C 
ENDROOT
BRANCH   1   2
ATOM      2  C   UNL     1       1.979   5.664  20.378  0.00  0.00    +0.000 A 
ATOM      3  C   UNL     1       0.980   4.684  20.335  0.00  0.00    +0.000 A 
ATOM      4  C   UNL     1       1.289   3.373  19.963  0.00  0.00    +0.000 A 
ATOM      5  C   UNL     1       2.594   3.037  19.596  0.00  0.00    +0.000 A 
ATOM      6  C   UNL     1       3.588   4.012  19.600  0.00  0.00    +0.000 A 
ATOM      7  C   UNL     1       3.288   5.303  20.043  0.00  0.00    +0.000 A 
BRANCH   6   8
ATOM      8  O   UNL     1       4.819   3.625  19.135  0.00  0.00    +0.000 OA
BRANCH   8   9
ATOM      9  C   UNL     1       5.680   4.717  18.798  0.00  0.00    +0.000 C 
BRANCH   9  10
ATOM     10  C   UNL     1       5.688   4.946  17.318  0.00  0.00    +0.000 A 
ATOM     11  C   UNL     1       5.755   3.882  16.416  0.00  0.00    +0.000 A 
ATOM     12  C   UNL     1       5.663   4.130  15.051  0.00  0.00    +0.000 A 
ATOM     13  C   UNL     1       5.505   5.441  14.634  0.00  0.00    +0.000 A 
ATOM     14  N   UNL     1       5.428   6.495  15.476  0.00  0.00    +0.000 NA
ATOM     15  C   UNL     1       5.523   6.221  16.797  0.00  0.00    +0.000 A 
ENDBRANCH   9  10
ENDBRANCH   8   9
ENDBRANCH   6   8
ENDBRANCH   1   2
BRANCH   1  17
ATOM     16  O   UNL     1       2.344   7.834  18.586  0.00  0.00    +0.000 OA
ATOM     17  C   UNL     1       1.707   8.065  19.610  0.00  0.00    +0.000 C 
ATOM     18  N   UNL     1       0.964   9.210  19.807  0.00  0.00    +0.000 N 
ATOM     19  H   UNL     1       0.556   9.383  20.714  0.00  0.00    +0.000 HD
BRANCH  18  20
ATOM     20  C   UNL     1       0.839  10.243  18.796  0.00  0.00    +0.000 C 
BRANCH  20  21
ATOM     21  C   UNL     1      -0.610  10.545  18.489  0.00  0.00    +0.000 A 
ATOM     22  C   UNL     1      -1.305  11.552  19.171  0.00  0.00    +0.000 A 
ATOM     23  C   UNL     1      -2.670  11.766  18.933  0.00  0.00    +0.000 A 
ATOM     24  C   UNL     1      -3.384  10.999  18.001  0.00  0.00    +0.000 A 
ATOM     25  C   UNL     1      -2.661  10.043  17.274  0.00  0.00    +0.000 A 
ATOM     26  C   UNL     1      -1.299   9.813  17.514  0.00  0.00    +0.000 A 
BRANCH  24  27
ATOM     27  C   UNL     1      -4.886  11.108  17.866  0.00  0.00    +0.000 C 
ATOM     28  C   UNL     1      -5.517  12.201  17.031  0.00  0.00    +0.000 C 
ATOM     29  C   UNL     1      -5.656  12.226  18.525  0.00  0.00    +0.000 C 
ENDBRANCH  24  27
ENDBRANCH  20  21
ENDBRANCH  18  20
ENDBRANCH   1  17
TORSDOF 8
ENDMDL
MODEL 3
REMARK VINA RESULT:      -7.9      5.629      8.178
REMARK  Name = 
REMARK  8 active torsions:
REMARK  status: ('A' for Active; 'I' for Inactive)
REMARK    1  A    between atoms: C_2  and  C_3
REMARK    2  A    between atoms: C_3  and  C_4
REMARK    3  A    between atoms: C_8  and  O_9
REMARK    4  A    between atoms: O_9  and  C_10
REMARK    5  A    between atoms: C_10  and  C_11
REMARK    6  A    between atoms: N_18  and  C_19
REMARK    7  A    between atoms: C_19  and  C_20
REMARK    8  A    between atoms: C_23  and  C_24
REMARK                            x       y       z     vdW  Elec       q    Type
REMARK                         _______ _______ _______ _____ _____    ______ ____
ROOT
ATOM      1  C   UNL     1       6.185   4.719  18.915  0.00  0.00    +0.000 C 
ENDROOT
BRANCH   1   2
ATOM      2  C   UNL     1       4.738   4.826  18.498  0.00  0.00    +0.000 A 
ATOM      3  C   UNL     1       4.105   3.814  17.766  0.00  0.00    +0.000 A 
ATOM      4  C   UNL     1       2.764   3.943  17.392  0.00  0.00    +0.000 A 
ATOM      5  C   UNL     1       2.034   5.069  17.777  0.00  0.00    +0.000 A 
ATOM      6  C   UNL     1       2.643   6.065  18.535  0.00  0.00    +0.000 A 
ATOM      7  C   UNL     1       4.003   5.965  18.844  0.00  0.00    +0.000 A 
BRANCH   6   8
ATOM      8  O   UNL     1       1.833   7.090  18.953  0.00  0.00    +0.000 OA
BRANCH   8   9
ATOM      9  C   UNL     1       2.023   7.455  20.323  0.00  0.00    +0.000 C 
BRANCH   9  10
ATOM     10  C   UNL     1       1.162   8.627  20.683  0.00  0.00    +0.000 A 
ATOM     11  C   UNL     1       0.651   8.787  21.973  0.00  0.00    +0.000 A 
ATOM     12  C   UNL     1      -0.063   9.937  22.292  0.00  0.00    +0.000 A 
ATOM     13  C   UNL     1      -0.240  10.891  21.304  0.00  0.00    +0.000 A 
ATOM     14  N   UNL     1       0.245  10.776  20.049  0.00  0.00    +0.000 NA
ATOM     15  C   UNL     1       0.933   9.646  19.769  0.00  0.00    +0.000 A 
ENDBRANCH   9  10
ENDBRANCH   8   9
ENDBRANCH   6   8
ENDBRANCH   1   2
BRANCH   1  17
ATOM     16  O   UNL     1       8.253   4.168  17.812  0.00  0.00    +0.000 OA
ATOM     17  C   UNL     1       7.155   4.713  17.743  0.00  0.00    +0.000 C 
ATOM     18  N   UNL     1       6.694   5.364  16.618  0.00  0.00    +0.000 N 
ATOM     19  H   UNL     1       5.829   5.883  16.669  0.00  0.00    +0.000 HD
BRANCH  18  20
ATOM     20  C   UNL     1       7.459   5.437  15.388  0.00  0.00    +0.000 C 
BRANCH  20  21
ATOM     21  C   UNL     1       6.761   4.715  14.258  0.00  0.00    +0.000 A 
ATOM     22  C   UNL     1       7.378   4.542  13.013  0.00  0.00    +0.000 A 
ATOM     23  C   UNL     1       6.688   3.942  11.950  0.00  0.00    +0.000 A 
ATOM     24  C   UNL     1       5.370   3.482  12.094  0.00  0.00    +0.000 A 
ATOM     25  C   UNL     1       4.790   3.597  13.365  0.00  0.00    +0.000 A 
ATOM     26  C   UNL     1       5.468   4.206  14.430  0.00  0.00    +0.000 A 
BRANCH  24  27
ATOM     27  C   UNL     1       4.565   2.995  10.911  0.00  0.00    +0.000 C 
ATOM     28  C   UNL     1       3.585   3.907  10.206  0.00  0.00    +0.000 C 
ATOM     29  C   UNL     1       3.079   2.751  11.018  0.00  0.00    +0.000 C 
ENDBRANCH  24  27
ENDBRANCH  20  21
ENDBRANCH  18  20
ENDBRANCH   1  17
TORSDOF 8
ENDMDL
MODEL 4
REMARK VINA RESULT:      -7.9      4.622      9.020
REMARK  Name = 
REMARK  8 active torsions:
REMARK  status: ('A' for Active; 'I' for Inactive)
REMARK    1  A    between atoms: C_2  and  C_3
REMARK    2  A    between atoms: C_3  and  C_4
REMARK    3  A    between atoms: C_8  and  O_9
REMARK    4  A    between atoms: O_9  and  C_10
REMARK    5  A    between atoms: C_10  and  C_11
REMARK    6  A    between atoms: N_18  and  C_19
REMARK    7  A    between atoms: C_19  and  C_20
REMARK    8  A    between atoms: C_23  and  C_24
REMARK                            x       y       z     vdW  Elec       q    Type
REMARK                         _______ _______ _______ _____ _____    ______ ____
ROOT
ATOM      1  C   UNL     1       1.723   6.258  20.471  0.00  0.00    +0.000 C 
ENDROOT
BRANCH   1   2
ATOM      2  C   UNL     1       2.402   5.205  19.630  0.00  0.00    +0.000 A 
ATOM      3  C   UNL     1       1.696   4.440  18.694  0.00  0.00    +0.000 A 
ATOM      4  C   UNL     1       2.352   3.470  17.931  0.00  0.00    +0.000 A 
ATOM      5  C   UNL     1       3.728   3.279  18.071  0.00  0.00    +0.000 A 
ATOM      6  C   UNL     1       4.447   4.058  18.974  0.00  0.00    +0.000 A 
ATOM      7  C   UNL     1       3.773   4.976  19.786  0.00  0.00    +0.000 A 
BRANCH   6   8
ATOM      8  O   UNL     1       5.806   3.877  18.984  0.00  0.00    +0.000 OA
BRANCH   8   9
ATOM      9  C   UNL     1       6.451   4.269  17.769  0.00  0.00    +0.000 C 
BRANCH   9  10
ATOM     10  C   UNL     1       6.926   5.687  17.855  0.00  0.00    +0.000 A 
ATOM     11  C   UNL     1       7.859   6.086  18.815  0.00  0.00    +0.000 A 
ATOM     12  C   UNL     1       8.346   7.388  18.800  0.00  0.00    +0.000 A 
ATOM     13  C   UNL     1       7.882   8.249  17.820  0.00  0.00    +0.000 A 
ATOM     14  N   UNL     1       6.986   7.898  16.871  0.00  0.00    +0.000 NA
ATOM     15  C   UNL     1       6.530   6.626  16.913  0.00  0.00    +0.000 A 
ENDBRANCH   9  10
ENDBRANCH   8   9
ENDBRANCH   6   8
ENDBRANCH   1   2
BRANCH   1  17
ATOM     16  O   UNL     1       2.476   7.892  18.870  0.00  0.00    +0.000 OA
ATOM     17  C   UNL     1       1.847   7.663  19.900  0.00  0.00    +0.000 C 
ATOM     18  N   UNL     1       1.197   8.635  20.630  0.00  0.00    +0.000 N 
ATOM     19  H   UNL     1       0.792   8.393  21.523  0.00  0.00    +0.000 HD
BRANCH  18  20
ATOM     20  C   UNL     1       1.170  10.029  20.228  0.00  0.00    +0.000 C 
BRANCH  20  21
ATOM     21  C   UNL     1      -0.145  10.393  19.579  0.00  0.00    +0.000 A 
ATOM     22  C   UNL     1      -0.534   9.830  18.356  0.00  0.00    +0.000 A 
ATOM     23  C   UNL     1      -1.719  10.237  17.727  0.00  0.00    +0.000 A 
ATOM     24  C   UNL     1      -2.562  11.202  18.297  0.00  0.00    +0.000 A 
ATOM     25  C   UNL     1      -2.197  11.704  19.555  0.00  0.00    +0.000 A 
ATOM     26  C   UNL     1      -1.009  11.312  20.186  0.00  0.00    +0.000 A 
BRANCH  24  27
ATOM     27  C   UNL     1      -3.746  11.769  17.545  0.00  0.00    +0.000 C 
ATOM     28  C   UNL     1      -5.109  11.120  17.634  0.00  0.00    +0.000 C 
ATOM     29  C   UNL     1      -4.333  11.056  16.352  0.00  0.00    +0.000 C 
ENDBRANCH  24  27
ENDBRANCH  20  21
ENDBRANCH  18  20
ENDBRANCH   1  17
TORSDOF 8
ENDMDL
MODEL 5
REMARK VINA RESULT:      -7.8      4.458      8.750
REMARK  Name = 
REMARK  8 active torsions:
REMARK  status: ('A' for Active; 'I' for Inactive)
REMARK    1  A    between atoms: C_2  and  C_3
REMARK    2  A    between atoms: C_3  and  C_4
REMARK    3  A    between atoms: C_8  and  O_9
REMARK    4  A    between atoms: O_9  and  C_10
REMARK    5  A    between atoms: C_10  and  C_11
REMARK    6  A    between atoms: N_18  and  C_19
REMARK    7  A    between atoms: C_19  and  C_20
REMARK    8  A    between atoms: C_23  and  C_24
REMARK                            x       y       z     vdW  Elec       q    Type
REMARK                         _______ _______ _______ _____ _____    ______ ____
ROOT
ATOM      1  C   UNL     1       1.648   5.812  20.740  0.00  0.00    +0.000 C 
ENDROOT
BRANCH   1   2
ATOM      2  C   UNL     1       1.833   4.602  19.855  0.00  0.00    +0.000 A 
ATOM      3  C   UNL     1       0.803   3.679  19.643  0.00  0.00    +0.000 A 
ATOM      4  C   UNL     1       1.004   2.568  18.820  0.00  0.00    +0.000 A 
ATOM      5  C   UNL     1       2.229   2.387  18.174  0.00  0.00    +0.000 A 
ATOM      6  C   UNL     1       3.249   3.318  18.349  0.00  0.00    +0.000 A 
ATOM      7  C   UNL     1       3.066   4.388  19.230  0.00  0.00    +0.000 A 
BRANCH   6   8
ATOM      8  O   UNL     1       4.385   3.120  17.605  0.00  0.00    +0.000 OA
BRANCH   8   9
ATOM      9  C   UNL     1       4.604   4.122  16.608  0.00  0.00    +0.000 C 
BRANCH   9  10
ATOM     10  C   UNL     1       5.598   5.136  17.086  0.00  0.00    +0.000 A 
ATOM     11  C   UNL     1       6.621   4.792  17.973  0.00  0.00    +0.000 A 
ATOM     12  C   UNL     1       7.580   5.738  18.316  0.00  0.00    +0.000 A 
ATOM     13  C   UNL     1       7.483   7.001  17.756  0.00  0.00    +0.000 A 
ATOM     14  N   UNL     1       6.513   7.368  16.890  0.00  0.00    +0.000 NA
ATOM     15  C   UNL     1       5.594   6.426  16.577  0.00  0.00    +0.000 A 
ENDBRANCH   9  10
ENDBRANCH   8   9
ENDBRANCH   6   8
ENDBRANCH   1   2
BRANCH   1  17
ATOM     16  O   UNL     1       2.626   7.191  19.025  0.00  0.00    +0.000 OA
ATOM     17  C   UNL     1       1.923   7.129  20.030  0.00  0.00    +0.000 C 
ATOM     18  N   UNL     1       1.320   8.226  20.609  0.00  0.00    +0.000 N 
ATOM     19  H   UNL     1       0.847   8.118  21.495  0.00  0.00    +0.000 HD
BRANCH  18  20
ATOM     20  C   UNL     1       1.435   9.563  20.059  0.00  0.00    +0.000 C 
BRANCH  20  21
ATOM     21  C   UNL     1       0.164   9.985  19.358  0.00  0.00    +0.000 A 
ATOM     22  C   UNL     1      -0.114   9.576  18.047  0.00  0.00    +0.000 A 
ATOM     23  C   UNL     1      -1.258  10.040  17.382  0.00  0.00    +0.000 A 
ATOM     24  C   UNL     1      -2.168  10.911  18.000  0.00  0.00    +0.000 A 
ATOM     25  C   UNL     1      -1.914  11.255  19.335  0.00  0.00    +0.000 A 
ATOM     26  C   UNL     1      -0.768  10.805  20.005  0.00  0.00    +0.000 A 
BRANCH  24  27
ATOM     27  C   UNL     1      -3.304  11.549  17.233  0.00  0.00    +0.000 C 
ATOM     28  C   UNL     1      -4.732  11.089  17.429  0.00  0.00    +0.000 C 
ATOM     29  C   UNL     1      -4.027  10.807  16.136  0.00  0.00    +0.000 C 
ENDBRANCH  24  27
ENDBRANCH  20  21
ENDBRANCH  18  20
ENDBRANCH   1  17
TORSDOF 8
ENDMDL
MODEL 6
REMARK VINA RESULT:      -7.7      5.584      8.054
REMARK  Name = 
REMARK  8 active torsions:
REMARK  status: ('A' for Active; 'I' for Inactive)
REMARK    1  A    between atoms: C_2  and  C_3
REMARK    2  A    between atoms: C_3  and  C_4
REMARK    3  A    between atoms: C_8  and  O_9
REMARK    4  A    between atoms: O_9  and  C_10
REMARK    5  A    between atoms: C_10  and  C_11
REMARK    6  A    between atoms: N_18  and  C_19
REMARK    7  A    between atoms: C_19  and  C_20
REMARK    8  A    between atoms: C_23  and  C_24
REMARK                            x       y       z     vdW  Elec       q    Type
REMARK                         _______ _______ _______ _____ _____    ______ ____
ROOT
ATOM      1  C   UNL     1       4.914   3.639  19.806  0.00  0.00    +0.000 C 
ENDROOT
BRANCH   1   2
ATOM      2  C   UNL     1       3.424   3.802  19.988  0.00  0.00    +0.000 A 
ATOM      3  C   UNL     1       2.540   2.729  19.829  0.00  0.00    +0.000 A 
ATOM      4  C   UNL     1       1.165   2.911  20.002  0.00  0.00    +0.000 A 
ATOM      5  C   UNL     1       0.664   4.161  20.370  0.00  0.00    +0.000 A 
ATOM      6  C   UNL     1       1.537   5.227  20.566  0.00  0.00    +0.000 A 
ATOM      7  C   UNL     1       2.903   5.057  20.321  0.00  0.00    +0.000 A 
BRANCH   6   8
ATOM      8  O   UNL     1       0.978   6.395  21.019  0.00  0.00    +0.000 OA
BRANCH   8   9
ATOM      9  C   UNL     1       1.687   7.570  20.617  0.00  0.00    +0.000 C 
BRANCH   9  10
ATOM     10  C   UNL     1       0.989   8.803  21.107  0.00  0.00    +0.000 A 
ATOM     11  C   UNL     1       0.218   9.592  20.250  0.00  0.00    +0.000 A 
ATOM     12  C   UNL     1      -0.492  10.672  20.763  0.00  0.00    +0.000 A 
ATOM     13  C   UNL     1      -0.406  10.924  22.122  0.00  0.00    +0.000 A 
ATOM     14  N   UNL     1       0.322  10.180  22.983  0.00  0.00    +0.000 NA
ATOM     15  C   UNL     1       1.002   9.138  22.453  0.00  0.00    +0.000 A 
ENDBRANCH   9  10
ENDBRANCH   8   9
ENDBRANCH   6   8
ENDBRANCH   1   2
BRANCH   1  17
ATOM     16  O   UNL     1       4.938   5.607  18.419  0.00  0.00    +0.000 OA
ATOM     17  C   UNL     1       5.501   4.568  18.754  0.00  0.00    +0.000 C 
ATOM     18  N   UNL     1       6.702   4.144  18.224  0.00  0.00    +0.000 N 
ATOM     19  H   UNL     1       7.051   3.228  18.467  0.00  0.00    +0.000 HD
BRANCH  18  20
ATOM     20  C   UNL     1       7.434   4.911  17.235  0.00  0.00    +0.000 C 
BRANCH  20  21
ATOM     21  C   UNL     1       6.954   4.609  15.834  0.00  0.00    +0.000 A 
ATOM     22  C   UNL     1       5.889   3.729  15.603  0.00  0.00    +0.000 A 
ATOM     23  C   UNL     1       5.507   3.397  14.295  0.00  0.00    +0.000 A 
ATOM     24  C   UNL     1       6.159   3.938  13.177  0.00  0.00    +0.000 A 
ATOM     25  C   UNL     1       7.176   4.872  13.422  0.00  0.00    +0.000 A 
ATOM     26  C   UNL     1       7.572   5.201  14.726  0.00  0.00    +0.000 A 
BRANCH  24  27
ATOM     27  C   UNL     1       5.868   3.453  11.775  0.00  0.00    +0.000 C 
ATOM     28  C   UNL     1       4.452   3.168  11.326  0.00  0.00    +0.000 C 
ATOM     29  C   UNL     1       5.420   2.037  11.510  0.00  0.00    +0.000 C 
ENDBRANCH  24  27
ENDBRANCH  20  21
ENDBRANCH  18  20
ENDBRANCH   1  17
TORSDOF 8
ENDMDL
MODEL 7
REMARK VINA RESULT:      -7.6      2.593      3.296
REMARK  Name = 
REMARK  8 active torsions:
REMARK  status: ('A' for Active; 'I' for Inactive)
REMARK    1  A    between atoms: C_2  and  C_3
REMARK    2  A    between atoms: C_3  and  C_4
REMARK    3  A    between atoms: C_8  and  O_9
REMARK    4  A    between atoms: O_9  and  C_10
REMARK    5  A    between atoms: C_10  and  C_11
REMARK    6  A    between atoms: N_18  and  C_19
REMARK    7  A    between atoms: C_19  and  C_20
REMARK    8  A    between atoms: C_23  and  C_24
REMARK                            x       y       z     vdW  Elec       q    Type
REMARK                         _______ _______ _______ _____ _____    ______ ____
ROOT
ATOM      1  C   UNL     1       7.823   6.719  18.666  0.00  0.00    +0.000 C 
ENDROOT
BRANCH   1   2
ATOM      2  C   UNL     1       6.932   5.829  17.833  0.00  0.00    +0.000 A 
ATOM      3  C   UNL     1       7.456   4.893  16.935  0.00  0.00    +0.000 A 
ATOM      4  C   UNL     1       6.606   4.084  16.176  0.00  0.00    +0.000 A 
ATOM      5  C   UNL     1       5.222   4.180  16.334  0.00  0.00    +0.000 A 
ATOM      6  C   UNL     1       4.689   5.082  17.250  0.00  0.00    +0.000 A 
ATOM      7  C   UNL     1       5.542   5.939  17.953  0.00  0.00    +0.000 A 
BRANCH   6   8
ATOM      8  O   UNL     1       3.328   5.048  17.415  0.00  0.00    +0.000 OA
BRANCH   8   9
ATOM      9  C   UNL     1       2.789   3.726  17.503  0.00  0.00    +0.000 C 
BRANCH   9  10
ATOM     10  C   UNL     1       2.437   3.391  18.920  0.00  0.00    +0.000 A 
ATOM     11  C   UNL     1       3.350   2.762  19.769  0.00  0.00    +0.000 A 
ATOM     12  C   UNL     1       3.019   2.556  21.103  0.00  0.00    +0.000 A 
ATOM     13  C   UNL     1       1.781   2.991  21.545  0.00  0.00    +0.000 A 
ATOM     14  N   UNL     1       0.875   3.610  20.757  0.00  0.00    +0.000 NA
ATOM     15  C   UNL     1       1.225   3.794  19.463  0.00  0.00    +0.000 A 
ENDBRANCH   9  10
ENDBRANCH   8   9
ENDBRANCH   6   8
ENDBRANCH   1   2
BRANCH   1  17
ATOM     16  O   UNL     1       7.729   8.333  16.881  0.00  0.00    +0.000 OA
ATOM     17  C   UNL     1       8.116   8.063  18.015  0.00  0.00    +0.000 C 
ATOM     18  N   UNL     1       8.840   8.932  18.802  0.00  0.00    +0.000 N 
ATOM     19  H   UNL     1       9.218   8.605  19.679  0.00  0.00    +0.000 HD
BRANCH  18  20
ATOM     20  C   UNL     1       9.188  10.273  18.371  0.00  0.00    +0.000 C 
BRANCH  20  21
ATOM     21  C   UNL     1       9.248  11.232  19.538  0.00  0.00    +0.000 A 
ATOM     22  C   UNL     1       9.126  10.780  20.859  0.00  0.00    +0.000 A 
ATOM     23  C   UNL     1       9.103  11.689  21.926  0.00  0.00    +0.000 A 
ATOM     24  C   UNL     1       9.215  13.073  21.718  0.00  0.00    +0.000 A 
ATOM     25  C   UNL     1       9.407  13.505  20.398  0.00  0.00    +0.000 A 
ATOM     26  C   UNL     1       9.420  12.605  19.324  0.00  0.00    +0.000 A 
BRANCH  24  27
ATOM     27  C   UNL     1       9.016  14.064  22.842  0.00  0.00    +0.000 C 
ATOM     28  C   UNL     1       7.708  14.135  23.597  0.00  0.00    +0.000 C 
ATOM     29  C   UNL     1       8.107  15.258  22.685  0.00  0.00    +0.000 C 
ENDBRANCH  24  27
ENDBRANCH  20  21
ENDBRANCH  18  20
ENDBRANCH   1  17
TORSDOF 8
ENDMDL
MODEL 8
REMARK VINA RESULT:      -7.6      3.043     10.755
REMARK  Name = 
REMARK  8 active torsions:
REMARK  status: ('A' for Active; 'I' for Inactive)
REMARK    1  A    between atoms: C_2  and  C_3
REMARK    2  A    between atoms: C_3  and  C_4
REMARK    3  A    between atoms: C_8  and  O_9
REMARK    4  A    between atoms: O_9  and  C_10
REMARK    5  A    between atoms: C_10  and  C_11
REMARK    6  A    between atoms: N_18  and  C_19
REMARK    7  A    between atoms: C_19  and  C_20
REMARK    8  A    between atoms: C_23  and  C_24
REMARK                            x       y       z     vdW  Elec       q    Type
REMARK                         _______ _______ _______ _____ _____    ______ ____
ROOT
ATOM      1  C   UNL     1       8.056   9.931  17.803  0.00  0.00    +0.000 C 
ENDROOT
BRANCH   1   2
ATOM      2  C   UNL     1       9.198  10.633  18.497  0.00  0.00    +0.000 A 
ATOM      3  C   UNL     1      10.370  10.984  17.817  0.00  0.00    +0.000 A 
ATOM      4  C   UNL     1      11.412  11.632  18.486  0.00  0.00    +0.000 A 
ATOM      5  C   UNL     1      11.278  11.966  19.835  0.00  0.00    +0.000 A 
ATOM      6  C   UNL     1      10.102  11.654  20.513  0.00  0.00    +0.000 A 
ATOM      7  C   UNL     1       9.094  10.942  19.857  0.00  0.00    +0.000 A 
BRANCH   6   8
ATOM      8  O   UNL     1      10.010  12.101  21.807  0.00  0.00    +0.000 OA
BRANCH   8   9
ATOM      9  C   UNL     1       8.876  12.937  22.051  0.00  0.00    +0.000 C 
BRANCH   9  10
ATOM     10  C   UNL     1       9.125  14.327  21.549  0.00  0.00    +0.000 A 
ATOM     11  C   UNL     1       8.308  14.907  20.576  0.00  0.00    +0.000 A 
ATOM     12  C   UNL     1       8.513  16.232  20.208  0.00  0.00    +0.000 A 
ATOM     13  C   UNL     1       9.533  16.934  20.829  0.00  0.00    +0.000 A 
ATOM     14  N   UNL     1      10.338  16.409  21.778  0.00  0.00    +0.000 NA
ATOM     15  C   UNL     1      10.115  15.118  22.114  0.00  0.00    +0.000 A 
ENDBRANCH   9  10
ENDBRANCH   8   9
ENDBRANCH   6   8
ENDBRANCH   1   2
BRANCH   1  17
ATOM     16  O   UNL     1       8.701   7.873  18.876  0.00  0.00    +0.000 OA
ATOM     17  C   UNL     1       8.090   8.418  17.959  0.00  0.00    +0.000 C 
ATOM     18  N   UNL     1       7.385   7.729  16.995  0.00  0.00    +0.000 N 
ATOM     19  H   UNL     1       7.000   8.234  16.211  0.00  0.00    +0.000 HD
BRANCH  18  20
ATOM     20  C   UNL     1       7.271   6.282  16.994  0.00  0.00    +0.000 C 
BRANCH  20  21
ATOM     21  C   UNL     1       5.884   5.836  17.399  0.00  0.00    +0.000 A 
ATOM     22  C   UNL     1       5.646   4.539  17.870  0.00  0.00    +0.000 A 
ATOM     23  C   UNL     1       4.342   4.115  18.166  0.00  0.00    +0.000 A 
ATOM     24  C   UNL     1       3.238   4.968  18.018  0.00  0.00    +0.000 A 
ATOM     25  C   UNL     1       3.500   6.285  17.614  0.00  0.00    +0.000 A 
ATOM     26  C   UNL     1       4.798   6.715  17.305  0.00  0.00    +0.000 A 
BRANCH  24  27
ATOM     27  C   UNL     1       1.819   4.467  18.167  0.00  0.00    +0.000 C 
ATOM     28  C   UNL     1       1.331   3.889  19.477  0.00  0.00    +0.000 C 
ATOM     29  C   UNL     1       1.515   2.994  18.288  0.00  0.00    +0.000 C 
ENDBRANCH  24  27
ENDBRANCH  20  21
ENDBRANCH  18  20
ENDBRANCH   1  17
TORSDOF 8
ENDMDL
MODEL 9
REMARK VINA RESULT:      -7.6      4.935      8.354
REMARK  Name = 
REMARK  8 active torsions:
REMARK  status: ('A' for Active; 'I' for Inactive)
REMARK    1  A    between atoms: C_2  and  C_3
REMARK    2  A    between atoms: C_3  and  C_4
REMARK    3  A    between atoms: C_8  and  O_9
REMARK    4  A    between atoms: O_9  and  C_10
REMARK    5  A    between atoms: C_10  and  C_11
REMARK    6  A    between atoms: N_18  and  C_19
REMARK    7  A    between atoms: C_19  and  C_20
REMARK    8  A    between atoms: C_23  and  C_24
REMARK                            x       y       z     vdW  Elec       q    Type
REMARK                         _______ _______ _______ _____ _____    ______ ____
ROOT
ATOM      1  C   UNL     1       3.033   7.396  17.204  0.00  0.00    +0.000 C 
ENDROOT
BRANCH   1   2
ATOM      2  C   UNL     1       4.269   6.631  17.609  0.00  0.00    +0.000 A 
ATOM      3  C   UNL     1       5.550   7.043  17.225  0.00  0.00    +0.000 A 
ATOM      4  C   UNL     1       6.677   6.312  17.614  0.00  0.00    +0.000 A 
ATOM      5  C   UNL     1       6.535   5.181  18.421  0.00  0.00    +0.000 A 
ATOM      6  C   UNL     1       5.268   4.783  18.839  0.00  0.00    +0.000 A 
ATOM      7  C   UNL     1       4.141   5.475  18.387  0.00  0.00    +0.000 A 
BRANCH   6   8
ATOM      8  O   UNL     1       5.221   3.721  19.707  0.00  0.00    +0.000 OA
BRANCH   8   9
ATOM      9  C   UNL     1       4.607   2.552  19.158  0.00  0.00    +0.000 C 
BRANCH   9  10
ATOM     10  C   UNL     1       3.126   2.578  19.381  0.00  0.00    +0.000 A 
ATOM     11  C   UNL     1       2.582   2.931  20.619  0.00  0.00    +0.000 A 
ATOM     12  C   UNL     1       1.203   3.037  20.758  0.00  0.00    +0.000 A 
ATOM     13  C   UNL     1       0.412   2.787  19.649  0.00  0.00    +0.000 A 
ATOM     14  N   UNL     1       0.901   2.451  18.435  0.00  0.00    +0.000 NA
ATOM     15  C   UNL     1       2.247   2.355  18.332  0.00  0.00    +0.000 A 
ENDBRANCH   9  10
ENDBRANCH   8   9
ENDBRANCH   6   8
ENDBRANCH   1   2
BRANCH   1  17
ATOM     16  O   UNL     1       2.393   7.731  19.502  0.00  0.00    +0.000 OA
ATOM     17  C   UNL     1       2.390   8.162  18.351  0.00  0.00    +0.000 C 
ATOM     18  N   UNL     1       1.817   9.362  17.987  0.00  0.00    +0.000 N 
ATOM     19  H   UNL     1       1.756   9.602  17.008  0.00  0.00    +0.000 HD
BRANCH  18  20
ATOM     20  C   UNL     1       1.187  10.251  18.944  0.00  0.00    +0.000 C 
BRANCH  20  21
ATOM     21  C   UNL     1      -0.261  10.506  18.593  0.00  0.00    +0.000 A 
ATOM     22  C   UNL     1      -1.012  11.481  19.262  0.00  0.00    +0.000 A 
ATOM     23  C   UNL     1      -2.375  11.651  18.981  0.00  0.00    +0.000 A 
ATOM     24  C   UNL     1      -3.031  10.872  18.016  0.00  0.00    +0.000 A 
ATOM     25  C   UNL     1      -2.251   9.950  17.304  0.00  0.00    +0.000 A 
ATOM     26  C   UNL     1      -0.891   9.764  17.586  0.00  0.00    +0.000 A 
BRANCH  24  27
ATOM     27  C   UNL     1      -4.531  10.931  17.832  0.00  0.00    +0.000 C 
ATOM     28  C   UNL     1      -5.165  11.964  16.928  0.00  0.00    +0.000 C 
ATOM     29  C   UNL     1      -5.350  12.057  18.413  0.00  0.00    +0.000 C 
ENDBRANCH  24  27
ENDBRANCH  20  21
ENDBRANCH  18  20
ENDBRANCH   1  17
TORSDOF 8
ENDMDL
