MODEL 1
REMARK VINA RESULT:      -8.1      0.000      0.000
REMARK  Name = 
REMARK  5 active torsions:
REMARK  status: ('A' for Active; 'I' for Inactive)
REMARK    1  A    between atoms: C_1  and  N_2
REMARK    2  A    between atoms: C_6  and  C_7
REMARK    3  A    between atoms: C_7  and  C_8
REMARK    4  A    between atoms: C_12  and  N_13
REMARK    5  A    between atoms: C_21  and  C_22
REMARK                            x       y       z     vdW  Elec       q    Type
REMARK                         _______ _______ _______ _____ _____    ______ ____
ROOT
ATOM      1  N   UNL     1      -1.451  12.175  18.701  0.00  0.00    +0.000 N 
ATOM      2  C   UNL     1      -0.082  11.681  18.389  0.00  0.00    +0.000 C 
ATOM      3  C   UNL     1       0.263  10.878  19.608  0.00  0.00    +0.000 A 
ATOM      4  C   UNL     1      -0.475  11.414  20.672  0.00  0.00    +0.000 A 
ATOM      5  C   UNL     1      -0.509  10.831  21.930  0.00  0.00    +0.000 A 
ATOM      6  C   UNL     1       0.212   9.661  22.092  0.00  0.00    +0.000 A 
ATOM      7  F   UNL     1       0.156   9.012  23.260  0.00  0.00    +0.000 F 
ATOM      8  C   UNL     1       0.939   9.086  21.030  0.00  0.00    +0.000 A 
ATOM      9  C   UNL     1       0.978   9.694  19.762  0.00  0.00    +0.000 A 
ATOM     10  C   UNL     1      -1.466  12.362  20.106  0.00  0.00    +0.000 C 
ATOM     11  O   UNL     1      -2.267  12.998  20.797  0.00  0.00    +0.000 OA
ENDROOT
BRANCH   1  16
ATOM     12  C   UNL     1      -4.757  11.424  17.448  0.00  0.00    +0.000 A 
ATOM     13  C   UNL     1      -4.321  11.074  16.160  0.00  0.00    +0.000 A 
ATOM     14  C   UNL     1      -3.039  10.565  15.965  0.00  0.00    +0.000 A 
ATOM     15  C   UNL     1      -2.143  10.528  17.024  0.00  0.00    +0.000 A 
ATOM     16  C   UNL     1      -2.451  11.239  18.190  0.00  0.00    +0.000 A 
ATOM     17  C   UNL     1      -3.802  11.495  18.475  0.00  0.00    +0.000 A 
BRANCH  12  18
ATOM     18  C   UNL     1      -6.230  11.646  17.697  0.00  0.00    +0.000 C 
BRANCH  18  24
ATOM     19  C   UNL     1      -7.624  13.151  20.116  0.00  0.00    +0.000 C 
ATOM     20  N   UNL     1      -7.381  11.744  19.979  0.00  0.00    +0.000 N 
ATOM     21  C   UNL     1      -7.758  10.796  20.885  0.00  0.00    +0.000 A 
ATOM     22  N   UNL     1      -7.407   9.610  20.455  0.00  0.00    +0.000 NA
ATOM     23  N   UNL     1      -6.786   9.774  19.245  0.00  0.00    +0.000 NA
ATOM     24  C   UNL     1      -6.765  11.062  18.956  0.00  0.00    +0.000 A 
ENDBRANCH  18  24
ENDBRANCH  12  18
ENDBRANCH   1  16
BRANCH   9  25
ATOM     25  C   UNL     1       1.671   8.979  18.635  0.00  0.00    +0.000 C 
ATOM     26  F   UNL     1       0.867   8.616  17.601  0.00  0.00    +0.000 F 
ATOM     27  F   UNL     1       2.651   9.726  18.072  0.00  0.00    +0.000 F 
ATOM     28  F   UNL     1       2.287   7.823  19.031  0.00  0.00    +0.000 F 
ENDBRANCH   9  25
TORSDOF 4
ENDMDL
MODEL 2
REMARK VINA RESULT:      -7.9      5.489      8.653
REMARK  Name = 
REMARK  5 active torsions:
REMARK  status: ('A' for Active; 'I' for Inactive)
REMARK    1  A    between atoms: C_1  and  N_2
REMARK    2  A    between atoms: C_6  and  C_7
REMARK    3  A    between atoms: C_7  and  C_8
REMARK    4  A    between atoms: C_12  and  N_13
REMARK    5  A    between atoms: C_21  and  C_22
REMARK                            x       y       z     vdW  Elec       q    Type
REMARK                         _______ _______ _______ _____ _____    ______ ____
ROOT
ATOM      1  N   UNL     1       4.002   4.546  19.108  0.00  0.00    +0.000 N 
ATOM      2  C   UNL     1       5.336   5.191  19.233  0.00  0.00    +0.000 C 
ATOM      3  C   UNL     1       5.912   5.024  17.858  0.00  0.00    +0.000 A 
ATOM      4  C   UNL     1       5.309   3.889  17.300  0.00  0.00    +0.000 A 
ATOM      5  C   UNL     1       5.504   3.511  15.979  0.00  0.00    +0.000 A 
ATOM      6  C   UNL     1       6.314   4.328  15.211  0.00  0.00    +0.000 A 
ATOM      7  F   UNL     1       6.476   4.057  13.912  0.00  0.00    +0.000 F 
ATOM      8  C   UNL     1       6.908   5.491  15.741  0.00  0.00    +0.000 A 
ATOM      9  C   UNL     1       6.717   5.857  17.086  0.00  0.00    +0.000 A 
ATOM     10  C   UNL     1       4.186   3.490  18.182  0.00  0.00    +0.000 C 
ATOM     11  O   UNL     1       3.459   2.518  17.956  0.00  0.00    +0.000 OA
ENDROOT
BRANCH   1  16
ATOM     12  C   UNL     1       1.934   7.422  19.830  0.00  0.00    +0.000 A 
ATOM     13  C   UNL     1       2.571   8.263  18.903  0.00  0.00    +0.000 A 
ATOM     14  C   UNL     1       3.180   7.729  17.770  0.00  0.00    +0.000 A 
ATOM     15  C   UNL     1       3.275   6.353  17.621  0.00  0.00    +0.000 A 
ATOM     16  C   UNL     1       2.998   5.537  18.725  0.00  0.00    +0.000 A 
ATOM     17  C   UNL     1       2.149   6.037  19.725  0.00  0.00    +0.000 A 
BRANCH  12  18
ATOM     18  C   UNL     1       1.000   8.019  20.855  0.00  0.00    +0.000 C 
BRANCH  18  24
ATOM     19  C   UNL     1      -0.676   9.919  18.946  0.00  0.00    +0.000 C 
ATOM     20  N   UNL     1       0.175  10.298  20.037  0.00  0.00    +0.000 N 
ATOM     21  C   UNL     1       0.373  11.579  20.462  0.00  0.00    +0.000 A 
ATOM     22  N   UNL     1       1.186  11.584  21.488  0.00  0.00    +0.000 NA
ATOM     23  N   UNL     1       1.534  10.284  21.748  0.00  0.00    +0.000 NA
ATOM     24  C   UNL     1       0.927   9.505  20.871  0.00  0.00    +0.000 A 
ENDBRANCH  18  24
ENDBRANCH  12  18
ENDBRANCH   1  16
BRANCH   9  25
ATOM     25  C   UNL     1       7.276   7.167  17.568  0.00  0.00    +0.000 C 
ATOM     26  F   UNL     1       6.353   8.135  17.810  0.00  0.00    +0.000 F 
ATOM     27  F   UNL     1       7.965   7.040  18.728  0.00  0.00    +0.000 F 
ATOM     28  F   UNL     1       8.160   7.729  16.688  0.00  0.00    +0.000 F 
ENDBRANCH   9  25
TORSDOF 4
ENDMDL
MODEL 3
REMARK VINA RESULT:      -7.9      5.097      7.792
REMARK  Name = 
REMARK  5 active torsions:
REMARK  status: ('A' for Active; 'I' for Inactive)
REMARK    1  A    between atoms: C_1  and  N_2
REMARK    2  A    between atoms: C_6  and  C_7
REMARK    3  A    between atoms: C_7  and  C_8
REMARK    4  A    between atoms: C_12  and  N_13
REMARK    5  A    between atoms: C_21  and  C_22
REMARK                            x       y       z     vdW  Elec       q    Type
REMARK                         _______ _______ _______ _____ _____    ______ ____
ROOT
ATOM      1  N   UNL     1       3.181   5.532  17.377  0.00  0.00    +0.000 N 
ATOM      2  C   UNL     1       2.049   4.639  17.745  0.00  0.00    +0.000 C 
ATOM      3  C   UNL     1       2.693   3.666  18.689  0.00  0.00    +0.000 A 
ATOM      4  C   UNL     1       4.050   3.604  18.347  0.00  0.00    +0.000 A 
ATOM      5  C   UNL     1       4.981   2.903  19.100  0.00  0.00    +0.000 A 
ATOM      6  C   UNL     1       4.513   2.273  20.239  0.00  0.00    +0.000 A 
ATOM      7  F   UNL     1       5.377   1.647  21.045  0.00  0.00    +0.000 F 
ATOM      8  C   UNL     1       3.158   2.345  20.620  0.00  0.00    +0.000 A 
ATOM      9  C   UNL     1       2.219   3.045  19.842  0.00  0.00    +0.000 A 
ATOM     10  C   UNL     1       4.328   4.700  17.387  0.00  0.00    +0.000 C 
ATOM     11  O   UNL     1       5.443   4.907  16.898  0.00  0.00    +0.000 OA
ENDROOT
BRANCH   1  16
ATOM     12  C   UNL     1       1.958   8.723  18.553  0.00  0.00    +0.000 A 
ATOM     13  C   UNL     1       1.524   8.236  19.796  0.00  0.00    +0.000 A 
ATOM     14  C   UNL     1       2.142   7.128  20.372  0.00  0.00    +0.000 A 
ATOM     15  C   UNL     1       3.101   6.423  19.658  0.00  0.00    +0.000 A 
ATOM     16  C   UNL     1       3.236   6.674  18.287  0.00  0.00    +0.000 A 
ATOM     17  C   UNL     1       2.836   7.928  17.798  0.00  0.00    +0.000 A 
BRANCH  12  18
ATOM     18  C   UNL     1       1.524  10.098  18.103  0.00  0.00    +0.000 C 
BRANCH  18  24
ATOM     19  C   UNL     1       0.655  12.088  20.416  0.00  0.00    +0.000 C 
ATOM     20  N   UNL     1      -0.192  11.382  19.499  0.00  0.00    +0.000 N 
ATOM     21  C   UNL     1      -1.552  11.489  19.454  0.00  0.00    +0.000 A 
ATOM     22  N   UNL     1      -2.023  10.733  18.495  0.00  0.00    +0.000 NA
ATOM     23  N   UNL     1      -0.959  10.114  17.893  0.00  0.00    +0.000 NA
ATOM     24  C   UNL     1       0.148  10.501  18.500  0.00  0.00    +0.000 A 
ENDBRANCH  18  24
ENDBRANCH  12  18
ENDBRANCH   1  16
BRANCH   9  25
ATOM     25  C   UNL     1       0.813   3.188  20.354  0.00  0.00    +0.000 C 
ATOM     26  F   UNL     1       0.370   4.468  20.477  0.00  0.00    +0.000 F 
ATOM     27  F   UNL     1      -0.095   2.578  19.554  0.00  0.00    +0.000 F 
ATOM     28  F   UNL     1       0.633   2.629  21.589  0.00  0.00    +0.000 F 
ENDBRANCH   9  25
TORSDOF 4
ENDMDL
MODEL 4
REMARK VINA RESULT:      -7.9      5.770      8.922
REMARK  Name = 
REMARK  5 active torsions:
REMARK  status: ('A' for Active; 'I' for Inactive)
REMARK    1  A    between atoms: C_1  and  N_2
REMARK    2  A    between atoms: C_6  and  C_7
REMARK    3  A    between atoms: C_7  and  C_8
REMARK    4  A    between atoms: C_12  and  N_13
REMARK    5  A    between atoms: C_21  and  C_22
REMARK                            x       y       z     vdW  Elec       q    Type
REMARK                         _______ _______ _______ _____ _____    ______ ____
ROOT
ATOM      1  N   UNL     1       4.090   3.097  19.187  0.00  0.00    +0.000 N 
ATOM      2  C   UNL     1       5.558   3.340  19.192  0.00  0.00    +0.000 C 
ATOM      3  C   UNL     1       5.733   4.313  18.063  0.00  0.00    +0.000 A 
ATOM      4  C   UNL     1       4.678   4.094  17.169  0.00  0.00    +0.000 A 
ATOM      5  C   UNL     1       4.444   4.910  16.071  0.00  0.00    +0.000 A 
ATOM      6  C   UNL     1       5.298   5.986  15.904  0.00  0.00    +0.000 A 
ATOM      7  F   UNL     1       5.075   6.851  14.908  0.00  0.00    +0.000 F 
ATOM      8  C   UNL     1       6.348   6.245  16.806  0.00  0.00    +0.000 A 
ATOM      9  C   UNL     1       6.586   5.402  17.907  0.00  0.00    +0.000 A 
ATOM     10  C   UNL     1       3.703   3.190  17.827  0.00  0.00    +0.000 C 
ATOM     11  O   UNL     1       2.660   2.809  17.287  0.00  0.00    +0.000 OA
ENDROOT
BRANCH   1  16
ATOM     12  C   UNL     1       2.249   6.145  19.807  0.00  0.00    +0.000 A 
ATOM     13  C   UNL     1       1.078   5.496  20.229  0.00  0.00    +0.000 A 
ATOM     14  C   UNL     1       1.146   4.233  20.812  0.00  0.00    +0.000 A 
ATOM     15  C   UNL     1       2.357   3.556  20.857  0.00  0.00    +0.000 A 
ATOM     16  C   UNL     1       3.422   4.037  20.086  0.00  0.00    +0.000 A 
ATOM     17  C   UNL     1       3.437   5.399  19.748  0.00  0.00    +0.000 A 
BRANCH  12  18
ATOM     18  C   UNL     1       2.206   7.623  19.497  0.00  0.00    +0.000 C 
BRANCH  18  24
ATOM     19  C   UNL     1       0.190   9.984  18.849  0.00  0.00    +0.000 C 
ATOM     20  N   UNL     1       0.552   9.466  20.136  0.00  0.00    +0.000 N 
ATOM     21  C   UNL     1       0.039   9.900  21.323  0.00  0.00    +0.000 A 
ATOM     22  N   UNL     1       0.558   9.211  22.308  0.00  0.00    +0.000 NA
ATOM     23  N   UNL     1       1.431   8.306  21.765  0.00  0.00    +0.000 NA
ATOM     24  C   UNL     1       1.433   8.460  20.454  0.00  0.00    +0.000 A 
ENDBRANCH  18  24
ENDBRANCH  12  18
ENDBRANCH   1  16
BRANCH   9  25
ATOM     25  C   UNL     1       7.644   5.789  18.902  0.00  0.00    +0.000 C 
ATOM     26  F   UNL     1       8.231   6.995  18.682  0.00  0.00    +0.000 F 
ATOM     27  F   UNL     1       7.166   5.857  20.168  0.00  0.00    +0.000 F 
ATOM     28  F   UNL     1       8.679   4.895  18.960  0.00  0.00    +0.000 F 
ENDBRANCH   9  25
TORSDOF 4
ENDMDL
MODEL 5
REMARK VINA RESULT:      -7.8      5.151      7.941
REMARK  Name = 
REMARK  5 active torsions:
REMARK  status: ('A' for Active; 'I' for Inactive)
REMARK    1  A    between atoms: C_1  and  N_2
REMARK    2  A    between atoms: C_6  and  C_7
REMARK    3  A    between atoms: C_7  and  C_8
REMARK    4  A    between atoms: C_12  and  N_13
REMARK    5  A    between atoms: C_21  and  C_22
REMARK                            x       y       z     vdW  Elec       q    Type
REMARK                         _______ _______ _______ _____ _____    ______ ____
ROOT
ATOM      1  N   UNL     1       3.276   5.463  17.373  0.00  0.00    +0.000 N 
ATOM      2  C   UNL     1       2.131   4.580  17.725  0.00  0.00    +0.000 C 
ATOM      3  C   UNL     1       2.745   3.617  18.698  0.00  0.00    +0.000 A 
ATOM      4  C   UNL     1       4.110   3.545  18.392  0.00  0.00    +0.000 A 
ATOM      5  C   UNL     1       5.018   2.850  19.178  0.00  0.00    +0.000 A 
ATOM      6  C   UNL     1       4.517   2.238  20.313  0.00  0.00    +0.000 A 
ATOM      7  F   UNL     1       5.356   1.619  21.150  0.00  0.00    +0.000 F 
ATOM      8  C   UNL     1       3.153   2.321  20.658  0.00  0.00    +0.000 A 
ATOM      9  C   UNL     1       2.238   3.015  19.846  0.00  0.00    +0.000 A 
ATOM     10  C   UNL     1       4.418   4.626  17.425  0.00  0.00    +0.000 C 
ATOM     11  O   UNL     1       5.546   4.821  16.962  0.00  0.00    +0.000 OA
ENDROOT
BRANCH   1  16
ATOM     12  C   UNL     1       2.082   8.705  18.435  0.00  0.00    +0.000 A 
ATOM     13  C   UNL     1       1.566   8.249  19.659  0.00  0.00    +0.000 A 
ATOM     14  C   UNL     1       2.121   7.134  20.284  0.00  0.00    +0.000 A 
ATOM     15  C   UNL     1       3.097   6.392  19.634  0.00  0.00    +0.000 A 
ATOM     16  C   UNL     1       3.314   6.618  18.269  0.00  0.00    +0.000 A 
ATOM     17  C   UNL     1       2.977   7.874  17.741  0.00  0.00    +0.000 A 
BRANCH  12  18
ATOM     18  C   UNL     1       1.712  10.084  17.942  0.00  0.00    +0.000 C 
BRANCH  18  24
ATOM     19  C   UNL     1      -1.451  10.153  17.715  0.00  0.00    +0.000 C 
ATOM     20  N   UNL     1      -0.624  10.826  18.674  0.00  0.00    +0.000 N 
ATOM     21  C   UNL     1      -1.089  11.599  19.698  0.00  0.00    +0.000 A 
ATOM     22  N   UNL     1      -0.082  12.051  20.403  0.00  0.00    +0.000 NA
ATOM     23  N   UNL     1       1.069  11.570  19.837  0.00  0.00    +0.000 NA
ATOM     24  C   UNL     1       0.746  10.833  18.791  0.00  0.00    +0.000 A 
ENDBRANCH  18  24
ENDBRANCH  12  18
ENDBRANCH   1  16
BRANCH   9  25
ATOM     25  C   UNL     1       0.820   3.172  20.320  0.00  0.00    +0.000 C 
ATOM     26  F   UNL     1       0.377   4.455  20.402  0.00  0.00    +0.000 F 
ATOM     27  F   UNL     1      -0.069   2.545  19.512  0.00  0.00    +0.000 F 
ATOM     28  F   UNL     1       0.608   2.642  21.563  0.00  0.00    +0.000 F 
ENDBRANCH   9  25
TORSDOF 4
ENDMDL
MODEL 6
REMARK VINA RESULT:      -7.8      5.763      9.029
REMARK  Name = 
REMARK  5 active torsions:
REMARK  status: ('A' for Active; 'I' for Inactive)
REMARK    1  A    between atoms: C_1  and  N_2
REMARK    2  A    between atoms: C_6  and  C_7
REMARK    3  A    between atoms: C_7  and  C_8
REMARK    4  A    between atoms: C_12  and  N_13
REMARK    5  A    between atoms: C_21  and  C_22
REMARK                            x       y       z     vdW  Elec       q    Type
REMARK                         _______ _______ _______ _____ _____    ______ ____
ROOT
ATOM      1  N   UNL     1       4.350   3.564  19.235  0.00  0.00    +0.000 N 
ATOM      2  C   UNL     1       5.609   4.355  19.172  0.00  0.00    +0.000 C 
ATOM      3  C   UNL     1       5.835   4.496  17.696  0.00  0.00    +0.000 A 
ATOM      4  C   UNL     1       5.218   3.398  17.083  0.00  0.00    +0.000 A 
ATOM      5  C   UNL     1       5.108   3.272  15.705  0.00  0.00    +0.000 A 
ATOM      6  C   UNL     1       5.622   4.307  14.944  0.00  0.00    +0.000 A 
ATOM      7  F   UNL     1       5.477   4.278  13.615  0.00  0.00    +0.000 F 
ATOM      8  C   UNL     1       6.220   5.436  15.537  0.00  0.00    +0.000 A 
ATOM      9  C   UNL     1       6.340   5.547  16.934  0.00  0.00    +0.000 A 
ATOM     10  C   UNL     1       4.393   2.710  18.105  0.00  0.00    +0.000 C 
ATOM     11  O   UNL     1       3.724   1.699  17.870  0.00  0.00    +0.000 OA
ENDROOT
BRANCH   1  16
ATOM     12  C   UNL     1       2.676   6.653  18.386  0.00  0.00    +0.000 A 
ATOM     13  C   UNL     1       1.687   6.042  17.600  0.00  0.00    +0.000 A 
ATOM     14  C   UNL     1       1.294   4.730  17.857  0.00  0.00    +0.000 A 
ATOM     15  C   UNL     1       1.974   3.979  18.805  0.00  0.00    +0.000 A 
ATOM     16  C   UNL     1       3.196   4.459  19.292  0.00  0.00    +0.000 A 
ATOM     17  C   UNL     1       3.431   5.843  19.251  0.00  0.00    +0.000 A 
BRANCH  12  18
ATOM     18  C   UNL     1       2.851   8.152  18.326  0.00  0.00    +0.000 C 
BRANCH  18  24
ATOM     19  C   UNL     1       1.412   8.452  21.137  0.00  0.00    +0.000 C 
ATOM     20  N   UNL     1       1.055   9.076  19.896  0.00  0.00    +0.000 N 
ATOM     21  C   UNL     1       0.026   9.957  19.734  0.00  0.00    +0.000 A 
ATOM     22  N   UNL     1      -0.021  10.358  18.489  0.00  0.00    +0.000 NA
ATOM     23  N   UNL     1       0.994   9.733  17.813  0.00  0.00    +0.000 NA
ATOM     24  C   UNL     1       1.643   8.955  18.659  0.00  0.00    +0.000 A 
ENDBRANCH  18  24
ENDBRANCH  12  18
ENDBRANCH   1  16
BRANCH   9  25
ATOM     25  C   UNL     1       6.880   6.822  17.519  0.00  0.00    +0.000 C 
ATOM     26  F   UNL     1       7.415   6.707  18.763  0.00  0.00    +0.000 F 
ATOM     27  F   UNL     1       7.865   7.363  16.761  0.00  0.00    +0.000 F 
ATOM     28  F   UNL     1       5.934   7.805  17.628  0.00  0.00    +0.000 F 
ENDBRANCH   9  25
TORSDOF 4
ENDMDL
MODEL 7
REMARK VINA RESULT:      -7.8      1.713      2.509
REMARK  Name = 
REMARK  5 active torsions:
REMARK  status: ('A' for Active; 'I' for Inactive)
REMARK    1  A    between atoms: C_1  and  N_2
REMARK    2  A    between atoms: C_6  and  C_7
REMARK    3  A    between atoms: C_7  and  C_8
REMARK    4  A    between atoms: C_12  and  N_13
REMARK    5  A    between atoms: C_21  and  C_22
REMARK                            x       y       z     vdW  Elec       q    Type
REMARK                         _______ _______ _______ _____ _____    ______ ____
ROOT
ATOM      1  N   UNL     1      -0.407  11.365  18.446  0.00  0.00    +0.000 N 
ATOM      2  C   UNL     1       0.365  10.586  19.452  0.00  0.00    +0.000 C 
ATOM      3  C   UNL     1      -0.075  11.198  20.749  0.00  0.00    +0.000 A 
ATOM      4  C   UNL     1      -0.462  12.515  20.467  0.00  0.00    +0.000 A 
ATOM      5  C   UNL     1      -1.056  13.340  21.412  0.00  0.00    +0.000 A 
ATOM      6  C   UNL     1      -1.278  12.793  22.663  0.00  0.00    +0.000 A 
ATOM      7  F   UNL     1      -1.916  13.514  23.591  0.00  0.00    +0.000 F 
ATOM      8  C   UNL     1      -0.925  11.462  22.962  0.00  0.00    +0.000 A 
ATOM      9  C   UNL     1      -0.309  10.639  22.002  0.00  0.00    +0.000 A 
ATOM     10  C   UNL     1      -0.522  12.666  18.993  0.00  0.00    +0.000 C 
ATOM     11  O   UNL     1      -0.834  13.721  18.432  0.00  0.00    +0.000 OA
ENDROOT
BRANCH   1  16
ATOM     12  C   UNL     1      -3.909  11.438  17.554  0.00  0.00    +0.000 A 
ATOM     13  C   UNL     1      -3.731  10.803  16.314  0.00  0.00    +0.000 A 
ATOM     14  C   UNL     1      -2.669   9.923  16.121  0.00  0.00    +0.000 A 
ATOM     15  C   UNL     1      -1.707   9.774  17.110  0.00  0.00    +0.000 A 
ATOM     16  C   UNL     1      -1.677  10.698  18.162  0.00  0.00    +0.000 A 
ATOM     17  C   UNL     1      -2.864  11.371  18.490  0.00  0.00    +0.000 A 
BRANCH  12  18
ATOM     18  C   UNL     1      -5.226  12.110  17.860  0.00  0.00    +0.000 C 
BRANCH  18  24
ATOM     19  C   UNL     1      -6.298  13.371  20.566  0.00  0.00    +0.000 C 
ATOM     20  N   UNL     1      -6.514  12.043  20.069  0.00  0.00    +0.000 N 
ATOM     21  C   UNL     1      -7.273  11.093  20.688  0.00  0.00    +0.000 A 
ATOM     22  N   UNL     1      -7.285   9.999  19.968  0.00  0.00    +0.000 NA
ATOM     23  N   UNL     1      -6.521  10.227  18.853  0.00  0.00    +0.000 NA
ATOM     24  C   UNL     1      -6.051  11.459  18.913  0.00  0.00    +0.000 A 
ENDBRANCH  18  24
ENDBRANCH  12  18
ENDBRANCH   1  16
BRANCH   9  25
ATOM     25  C   UNL     1      -0.060   9.194  22.336  0.00  0.00    +0.000 C 
ATOM     26  F   UNL     1      -0.837   8.304  21.663  0.00  0.00    +0.000 F 
ATOM     27  F   UNL     1       1.214   8.814  22.077  0.00  0.00    +0.000 F 
ATOM     28  F   UNL     1      -0.256   8.908  23.659  0.00  0.00    +0.000 F 
ENDBRANCH   9  25
TORSDOF 4
ENDMDL
MODEL 8
REMARK VINA RESULT:      -7.7      5.431      8.548
REMARK  Name = 
REMARK  5 active torsions:
REMARK  status: ('A' for Active; 'I' for Inactive)
REMARK    1  A    between atoms: C_1  and  N_2
REMARK    2  A    between atoms: C_6  and  C_7
REMARK    3  A    between atoms: C_7  and  C_8
REMARK    4  A    between atoms: C_12  and  N_13
REMARK    5  A    between atoms: C_21  and  C_22
REMARK                            x       y       z     vdW  Elec       q    Type
REMARK                         _______ _______ _______ _____ _____    ______ ____
ROOT
ATOM      1  N   UNL     1       3.896   4.317  19.124  0.00  0.00    +0.000 N 
ATOM      2  C   UNL     1       5.241   4.943  19.233  0.00  0.00    +0.000 C 
ATOM      3  C   UNL     1       5.760   4.852  17.828  0.00  0.00    +0.000 A 
ATOM      4  C   UNL     1       5.124   3.757  17.229  0.00  0.00    +0.000 A 
ATOM      5  C   UNL     1       5.261   3.454  15.882  0.00  0.00    +0.000 A 
ATOM      6  C   UNL     1       6.049   4.308  15.131  0.00  0.00    +0.000 A 
ATOM      7  F   UNL     1       6.157   4.112  13.813  0.00  0.00    +0.000 F 
ATOM      8  C   UNL     1       6.676   5.433  15.704  0.00  0.00    +0.000 A 
ATOM      9  C   UNL     1       6.542   5.722  17.074  0.00  0.00    +0.000 A 
ATOM     10  C   UNL     1       4.032   3.316  18.131  0.00  0.00    +0.000 C 
ATOM     11  O   UNL     1       3.286   2.365  17.879  0.00  0.00    +0.000 OA
ENDROOT
BRANCH   1  16
ATOM     12  C   UNL     1       2.117   7.351  19.960  0.00  0.00    +0.000 A 
ATOM     13  C   UNL     1       2.624   8.090  18.879  0.00  0.00    +0.000 A 
ATOM     14  C   UNL     1       3.005   7.446  17.704  0.00  0.00    +0.000 A 
ATOM     15  C   UNL     1       3.009   6.060  17.646  0.00  0.00    +0.000 A 
ATOM     16  C   UNL     1       2.888   5.338  18.840  0.00  0.00    +0.000 A 
ATOM     17  C   UNL     1       2.247   5.953  19.927  0.00  0.00    +0.000 A 
BRANCH  12  18
ATOM     18  C   UNL     1       1.401   8.070  21.079  0.00  0.00    +0.000 C 
BRANCH  18  24
ATOM     19  C   UNL     1      -0.406   9.929  22.907  0.00  0.00    +0.000 C 
ATOM     20  N   UNL     1      -0.199  10.023  21.491  0.00  0.00    +0.000 N 
ATOM     21  C   UNL     1      -0.738  10.984  20.687  0.00  0.00    +0.000 A 
ATOM     22  N   UNL     1      -0.340  10.802  19.453  0.00  0.00    +0.000 NA
ATOM     23  N   UNL     1       0.476   9.702  19.438  0.00  0.00    +0.000 NA
ATOM     24  C   UNL     1       0.560   9.226  20.666  0.00  0.00    +0.000 A 
ENDBRANCH  18  24
ENDBRANCH  12  18
ENDBRANCH   1  16
BRANCH   9  25
ATOM     25  C   UNL     1       7.134   6.996  17.608  0.00  0.00    +0.000 C 
ATOM     26  F   UNL     1       7.779   6.878  18.800  0.00  0.00    +0.000 F 
ATOM     27  F   UNL     1       8.048   7.537  16.767  0.00  0.00    +0.000 F 
ATOM     28  F   UNL     1       6.203   7.980  17.803  0.00  0.00    +0.000 F 
ENDBRANCH   9  25
TORSDOF 4
ENDMDL
MODEL 9
REMARK VINA RESULT:      -7.7      1.783      2.366
REMARK  Name = 
REMARK  5 active torsions:
REMARK  status: ('A' for Active; 'I' for Inactive)
REMARK    1  A    between atoms: C_1  and  N_2
REMARK    2  A    between atoms: C_6  and  C_7
REMARK    3  A    between atoms: C_7  and  C_8
REMARK    4  A    between atoms: C_12  and  N_13
REMARK    5  A    between atoms: C_21  and  C_22
REMARK                            x       y       z     vdW  Elec       q    Type
REMARK                         _______ _______ _______ _____ _____    ______ ____
ROOT
ATOM      1  N   UNL     1      -1.632  12.414  19.026  0.00  0.00    +0.000 N 
ATOM      2  C   UNL     1      -0.278  11.954  18.617  0.00  0.00    +0.000 C 
ATOM      3  C   UNL     1       0.139  11.091  19.771  0.00  0.00    +0.000 A 
ATOM      4  C   UNL     1      -0.547  11.561  20.899  0.00  0.00    +0.000 A 
ATOM      5  C   UNL     1      -0.509  10.911  22.124  0.00  0.00    +0.000 A 
ATOM      6  C   UNL     1       0.230   9.743  22.185  0.00  0.00    +0.000 A 
ATOM      7  F   UNL     1       0.241   9.033  23.318  0.00  0.00    +0.000 F 
ATOM      8  C   UNL     1       0.905   9.234  21.058  0.00  0.00    +0.000 A 
ATOM      9  C   UNL     1       0.872   9.909  19.824  0.00  0.00    +0.000 A 
ATOM     10  C   UNL     1      -1.575  12.525  20.437  0.00  0.00    +0.000 C 
ATOM     11  O   UNL     1      -2.345  13.114  21.202  0.00  0.00    +0.000 OA
ENDROOT
BRANCH   1  16
ATOM     12  C   UNL     1      -4.829  11.748  17.475  0.00  0.00    +0.000 A 
ATOM     13  C   UNL     1      -4.284  11.191  16.308  0.00  0.00    +0.000 A 
ATOM     14  C   UNL     1      -3.040  10.565  16.342  0.00  0.00    +0.000 A 
ATOM     15  C   UNL     1      -2.277  10.607  17.500  0.00  0.00    +0.000 A 
ATOM     16  C   UNL     1      -2.649  11.494  18.517  0.00  0.00    +0.000 A 
ATOM     17  C   UNL     1      -3.994  11.889  18.596  0.00  0.00    +0.000 A 
BRANCH  12  18
ATOM     18  C   UNL     1      -6.294  12.113  17.508  0.00  0.00    +0.000 C 
BRANCH  18  24
ATOM     19  C   UNL     1      -6.638  14.431  19.646  0.00  0.00    +0.000 C 
ATOM     20  N   UNL     1      -6.730  14.531  18.218  0.00  0.00    +0.000 N 
ATOM     21  C   UNL     1      -6.953  15.689  17.531  0.00  0.00    +0.000 A 
ATOM     22  N   UNL     1      -6.961  15.445  16.245  0.00  0.00    +0.000 NA
ATOM     23  N   UNL     1      -6.741  14.103  16.076  0.00  0.00    +0.000 NA
ATOM     24  C   UNL     1      -6.606  13.548  17.266  0.00  0.00    +0.000 A 
ENDBRANCH  18  24
ENDBRANCH  12  18
ENDBRANCH   1  16
BRANCH   9  25
ATOM     25  C   UNL     1       1.511   9.263  18.626  0.00  0.00    +0.000 C 
ATOM     26  F   UNL     1       2.173   8.103  18.880  0.00  0.00    +0.000 F 
ATOM     27  F   UNL     1       0.610   8.950  17.663  0.00  0.00    +0.000 F 
ATOM     28  F   UNL     1       2.428  10.069  18.008  0.00  0.00    +0.000 F 
ENDBRANCH   9  25
TORSDOF 4
ENDMDL
