MODEL 1
REMARK VINA RESULT:      -9.7      0.000      0.000
REMARK  Name = 
REMARK  5 active torsions:
REMARK  status: ('A' for Active; 'I' for Inactive)
REMARK    1  A    between atoms: C_1  and  N_2
REMARK    2  A    between atoms: C_6  and  C_7
REMARK    3  A    between atoms: C_7  and  C_8
REMARK    4  A    between atoms: C_8  and  C_9
REMARK    5  A    between atoms: C_13  and  N_14
REMARK                            x       y       z     vdW  Elec       q    Type
REMARK                         _______ _______ _______ _____ _____    ______ ____
ROOT
ATOM      1  N   UNL     1       5.766   5.522  16.073  0.00  0.00    +0.000 N 
ATOM      2  C   UNL     1       4.853   6.674  15.825  0.00  0.00    +0.000 C 
ATOM      3  C   UNL     1       4.016   7.064  17.072  0.00  0.00    +0.000 C 
ATOM      4  C   UNL     1       3.546   5.856  17.848  0.00  0.00    +0.000 A 
ATOM      5  C   UNL     1       4.207   4.625  17.642  0.00  0.00    +0.000 A 
ATOM      6  C   UNL     1       4.267   3.653  18.643  0.00  0.00    +0.000 A 
ATOM      7  C   UNL     1       3.511   3.861  19.758  0.00  0.00    +0.000 A 
ATOM      8  C   UNL     1       2.493   4.806  19.701  0.00  0.00    +0.000 A 
ATOM      9  C   UNL     1       2.593   5.900  18.856  0.00  0.00    +0.000 A 
ATOM     10  F   UNL     1       1.801   6.967  19.017  0.00  0.00    +0.000 F 
ATOM     11  C   UNL     1       1.310   4.218  20.425  0.00  0.00    +0.000 C 
ATOM     12  C   UNL     1       1.834   2.770  20.695  0.00  0.00    +0.000 C 
ATOM     13  C   UNL     1       3.323   2.953  20.921  0.00  0.00    +0.000 C 
ATOM     14  C   UNL     1       5.063   4.393  16.463  0.00  0.00    +0.000 C 
ATOM     15  O   UNL     1       5.190   3.275  15.981  0.00  0.00    +0.000 OA
ENDROOT
BRANCH   1  20
ATOM     16  C   UNL     1       7.958   7.732  17.979  0.00  0.00    +0.000 A 
ATOM     17  C   UNL     1       8.190   6.932  19.106  0.00  0.00    +0.000 A 
ATOM     18  C   UNL     1       7.943   5.565  19.056  0.00  0.00    +0.000 A 
ATOM     19  C   UNL     1       7.373   5.018  17.913  0.00  0.00    +0.000 A 
ATOM     20  C   UNL     1       6.898   5.863  16.900  0.00  0.00    +0.000 A 
ATOM     21  C   UNL     1       7.357   7.167  16.856  0.00  0.00    +0.000 A 
BRANCH  16  22
ATOM     22  C   UNL     1       8.299   9.195  17.968  0.00  0.00    +0.000 C 
BRANCH  22  23
ATOM     23  C   UNL     1       9.115   9.683  19.175  0.00  0.00    +0.000 C 
BRANCH  23  29
ATOM     24  C   UNL     1       9.497  11.986  21.290  0.00  0.00    +0.000 C 
ATOM     25  N   UNL     1       9.984  11.961  19.941  0.00  0.00    +0.000 N 
ATOM     26  C   UNL     1      10.728  12.940  19.358  0.00  0.00    +0.000 A 
ATOM     27  N   UNL     1      10.997  12.604  18.120  0.00  0.00    +0.000 NA
ATOM     28  N   UNL     1      10.421  11.383  17.884  0.00  0.00    +0.000 NA
ATOM     29  C   UNL     1       9.813  10.990  18.991  0.00  0.00    +0.000 A 
ENDBRANCH  23  29
ENDBRANCH  22  23
ENDBRANCH  16  22
ENDBRANCH   1  20
TORSDOF 4
ENDMDL
MODEL 2
REMARK VINA RESULT:      -9.4      0.635      1.159
REMARK  Name = 
REMARK  5 active torsions:
REMARK  status: ('A' for Active; 'I' for Inactive)
REMARK    1  A    between atoms: C_1  and  N_2
REMARK    2  A    between atoms: C_6  and  C_7
REMARK    3  A    between atoms: C_7  and  C_8
REMARK    4  A    between atoms: C_8  and  C_9
REMARK    5  A    between atoms: C_13  and  N_14
REMARK                            x       y       z     vdW  Elec       q    Type
REMARK                         _______ _______ _______ _____ _____    ______ ____
ROOT
ATOM      1  N   UNL     1       5.564   5.839  16.130  0.00  0.00    +0.000 N 
ATOM      2  C   UNL     1       4.658   7.022  16.069  0.00  0.00    +0.000 C 
ATOM      3  C   UNL     1       3.912   7.284  17.405  0.00  0.00    +0.000 C 
ATOM      4  C   UNL     1       3.473   6.005  18.078  0.00  0.00    +0.000 A 
ATOM      5  C   UNL     1       4.096   4.795  17.697  0.00  0.00    +0.000 A 
ATOM      6  C   UNL     1       4.204   3.720  18.582  0.00  0.00    +0.000 A 
ATOM      7  C   UNL     1       3.529   3.815  19.761  0.00  0.00    +0.000 A 
ATOM      8  C   UNL     1       2.526   4.773  19.875  0.00  0.00    +0.000 A 
ATOM      9  C   UNL     1       2.590   5.951  19.147  0.00  0.00    +0.000 A 
ATOM     10  F   UNL     1       1.830   7.002  19.474  0.00  0.00    +0.000 F 
ATOM     11  C   UNL     1       1.383   4.123  20.611  0.00  0.00    +0.000 C 
ATOM     12  C   UNL     1       1.897   2.649  20.688  0.00  0.00    +0.000 C 
ATOM     13  C   UNL     1       3.401   2.790  20.830  0.00  0.00    +0.000 C 
ATOM     14  C   UNL     1       4.868   4.683  16.444  0.00  0.00    +0.000 C 
ATOM     15  O   UNL     1       4.942   3.622  15.839  0.00  0.00    +0.000 OA
ENDROOT
BRANCH   1  20
ATOM     16  C   UNL     1       7.946   7.819  18.061  0.00  0.00    +0.000 A 
ATOM     17  C   UNL     1       8.213   6.926  19.108  0.00  0.00    +0.000 A 
ATOM     18  C   UNL     1       7.911   5.576  18.969  0.00  0.00    +0.000 A 
ATOM     19  C   UNL     1       7.255   5.140  17.826  0.00  0.00    +0.000 A 
ATOM     20  C   UNL     1       6.755   6.076  16.910  0.00  0.00    +0.000 A 
ATOM     21  C   UNL     1       7.259   7.363  16.938  0.00  0.00    +0.000 A 
BRANCH  16  22
ATOM     22  C   UNL     1       8.341   9.266  18.140  0.00  0.00    +0.000 C 
BRANCH  22  23
ATOM     23  C   UNL     1       9.347   9.607  19.251  0.00  0.00    +0.000 C 
BRANCH  23  29
ATOM     24  C   UNL     1      10.772  11.871  17.588  0.00  0.00    +0.000 C 
ATOM     25  N   UNL     1      10.070  12.022  18.829  0.00  0.00    +0.000 N 
ATOM     26  C   UNL     1       9.880  13.200  19.485  0.00  0.00    +0.000 A 
ATOM     27  N   UNL     1       9.206  12.980  20.588  0.00  0.00    +0.000 NA
ATOM     28  N   UNL     1       8.946  11.636  20.658  0.00  0.00    +0.000 NA
ATOM     29  C   UNL     1       9.463  11.057  19.588  0.00  0.00    +0.000 A 
ENDBRANCH  23  29
ENDBRANCH  22  23
ENDBRANCH  16  22
ENDBRANCH   1  20
TORSDOF 4
ENDMDL
MODEL 3
REMARK VINA RESULT:      -9.4      1.181      1.391
REMARK  Name = 
REMARK  5 active torsions:
REMARK  status: ('A' for Active; 'I' for Inactive)
REMARK    1  A    between atoms: C_1  and  N_2
REMARK    2  A    between atoms: C_6  and  C_7
REMARK    3  A    between atoms: C_7  and  C_8
REMARK    4  A    between atoms: C_8  and  C_9
REMARK    5  A    between atoms: C_13  and  N_14
REMARK                            x       y       z     vdW  Elec       q    Type
REMARK                         _______ _______ _______ _____ _____    ______ ____
ROOT
ATOM      1  N   UNL     1       5.761   6.024  15.874  0.00  0.00    +0.000 N 
ATOM      2  C   UNL     1       4.920   7.233  16.106  0.00  0.00    +0.000 C 
ATOM      3  C   UNL     1       4.079   7.144  17.409  0.00  0.00    +0.000 C 
ATOM      4  C   UNL     1       3.527   5.759  17.643  0.00  0.00    +0.000 A 
ATOM      5  C   UNL     1       4.122   4.673  16.962  0.00  0.00    +0.000 A 
ATOM      6  C   UNL     1       4.107   3.382  17.494  0.00  0.00    +0.000 A 
ATOM      7  C   UNL     1       3.342   3.175  18.603  0.00  0.00    +0.000 A 
ATOM      8  C   UNL     1       2.379   4.124  18.929  0.00  0.00    +0.000 A 
ATOM      9  C   UNL     1       2.557   5.456  18.588  0.00  0.00    +0.000 A 
ATOM     10  F   UNL     1       1.823   6.416  19.162  0.00  0.00    +0.000 F 
ATOM     11  C   UNL     1       1.150   3.369  19.364  0.00  0.00    +0.000 C 
ATOM     12  C   UNL     1       1.587   1.904  19.035  0.00  0.00    +0.000 C 
ATOM     13  C   UNL     1       3.079   1.893  19.310  0.00  0.00    +0.000 C 
ATOM     14  C   UNL     1       4.989   4.877  15.785  0.00  0.00    +0.000 C 
ATOM     15  O   UNL     1       5.063   4.037  14.899  0.00  0.00    +0.000 OA
ENDROOT
BRANCH   1  20
ATOM     16  C   UNL     1       8.107   7.213  18.404  0.00  0.00    +0.000 A 
ATOM     17  C   UNL     1       8.213   6.063  19.198  0.00  0.00    +0.000 A 
ATOM     18  C   UNL     1       7.824   4.828  18.694  0.00  0.00    +0.000 A 
ATOM     19  C   UNL     1       7.240   4.760  17.435  0.00  0.00    +0.000 A 
ATOM     20  C   UNL     1       6.894   5.941  16.765  0.00  0.00    +0.000 A 
ATOM     21  C   UNL     1       7.490   7.125  17.159  0.00  0.00    +0.000 A 
BRANCH  16  22
ATOM     22  C   UNL     1       8.602   8.549  18.883  0.00  0.00    +0.000 C 
BRANCH  22  23
ATOM     23  C   UNL     1       8.325   9.725  17.933  0.00  0.00    +0.000 C 
BRANCH  23  29
ATOM     24  C   UNL     1       7.619  12.688  17.130  0.00  0.00    +0.000 C 
ATOM     25  N   UNL     1       8.775  12.239  17.851  0.00  0.00    +0.000 N 
ATOM     26  C   UNL     1       9.758  13.046  18.336  0.00  0.00    +0.000 A 
ATOM     27  N   UNL     1      10.666  12.314  18.935  0.00  0.00    +0.000 NA
ATOM     28  N   UNL     1      10.273  11.004  18.842  0.00  0.00    +0.000 NA
ATOM     29  C   UNL     1       9.123  10.960  18.192  0.00  0.00    +0.000 A 
ENDBRANCH  23  29
ENDBRANCH  22  23
ENDBRANCH  16  22
ENDBRANCH   1  20
TORSDOF 4
ENDMDL
MODEL 4
REMARK VINA RESULT:      -8.8      1.043      1.114
REMARK  Name = 
REMARK  5 active torsions:
REMARK  status: ('A' for Active; 'I' for Inactive)
REMARK    1  A    between atoms: C_1  and  N_2
REMARK    2  A    between atoms: C_6  and  C_7
REMARK    3  A    between atoms: C_7  and  C_8
REMARK    4  A    between atoms: C_8  and  C_9
REMARK    5  A    between atoms: C_13  and  N_14
REMARK                            x       y       z     vdW  Elec       q    Type
REMARK                         _______ _______ _______ _____ _____    ______ ____
ROOT
ATOM      1  N   UNL     1       5.728   6.143  15.898  0.00  0.00    +0.000 N 
ATOM      2  C   UNL     1       4.892   7.325  16.254  0.00  0.00    +0.000 C 
ATOM      3  C   UNL     1       4.066   7.115  17.551  0.00  0.00    +0.000 C 
ATOM      4  C   UNL     1       3.512   5.714  17.658  0.00  0.00    +0.000 A 
ATOM      5  C   UNL     1       4.097   4.697  16.871  0.00  0.00    +0.000 A 
ATOM      6  C   UNL     1       4.084   3.361  17.278  0.00  0.00    +0.000 A 
ATOM      7  C   UNL     1       3.330   3.051  18.370  0.00  0.00    +0.000 A 
ATOM      8  C   UNL     1       2.374   3.967  18.796  0.00  0.00    +0.000 A 
ATOM      9  C   UNL     1       2.552   5.324  18.581  0.00  0.00    +0.000 A 
ATOM     10  F   UNL     1       1.826   6.227  19.252  0.00  0.00    +0.000 F 
ATOM     11  C   UNL     1       1.148   3.176  19.170  0.00  0.00    +0.000 C 
ATOM     12  C   UNL     1       1.577   1.748  18.699  0.00  0.00    +0.000 C 
ATOM     13  C   UNL     1       3.072   1.708  18.955  0.00  0.00    +0.000 C 
ATOM     14  C   UNL     1       4.951   5.011  15.709  0.00  0.00    +0.000 C 
ATOM     15  O   UNL     1       5.014   4.259  14.747  0.00  0.00    +0.000 OA
ENDROOT
BRANCH   1  20
ATOM     16  C   UNL     1       8.118   7.091  18.488  0.00  0.00    +0.000 A 
ATOM     17  C   UNL     1       8.219   5.878  19.183  0.00  0.00    +0.000 A 
ATOM     18  C   UNL     1       7.809   4.693  18.582  0.00  0.00    +0.000 A 
ATOM     19  C   UNL     1       7.209   4.737  17.330  0.00  0.00    +0.000 A 
ATOM     20  C   UNL     1       6.870   5.974  16.764  0.00  0.00    +0.000 A 
ATOM     21  C   UNL     1       7.485   7.114  17.248  0.00  0.00    +0.000 A 
BRANCH  16  22
ATOM     22  C   UNL     1       8.635   8.377  19.069  0.00  0.00    +0.000 C 
BRANCH  22  23
ATOM     23  C   UNL     1       8.428   9.620  18.190  0.00  0.00    +0.000 C 
BRANCH  23  29
ATOM     24  C   UNL     1       9.145  11.153  20.846  0.00  0.00    +0.000 C 
ATOM     25  N   UNL     1       9.736  11.341  19.553  0.00  0.00    +0.000 N 
ATOM     26  C   UNL     1      10.741  12.214  19.269  0.00  0.00    +0.000 A 
ATOM     27  N   UNL     1      11.036  12.138  17.994  0.00  0.00    +0.000 NA
ATOM     28  N   UNL     1      10.212  11.200  17.429  0.00  0.00    +0.000 NA
ATOM     29  C   UNL     1       9.429  10.711  18.376  0.00  0.00    +0.000 A 
ENDBRANCH  23  29
ENDBRANCH  22  23
ENDBRANCH  16  22
ENDBRANCH   1  20
TORSDOF 4
ENDMDL
MODEL 5
REMARK VINA RESULT:      -8.2      5.028      7.296
REMARK  Name = 
REMARK  5 active torsions:
REMARK  status: ('A' for Active; 'I' for Inactive)
REMARK    1  A    between atoms: C_1  and  N_2
REMARK    2  A    between atoms: C_6  and  C_7
REMARK    3  A    between atoms: C_7  and  C_8
REMARK    4  A    between atoms: C_8  and  C_9
REMARK    5  A    between atoms: C_13  and  N_14
REMARK                            x       y       z     vdW  Elec       q    Type
REMARK                         _______ _______ _______ _____ _____    ______ ____
ROOT
ATOM      1  N   UNL     1       3.134   4.181  19.329  0.00  0.00    +0.000 N 
ATOM      2  C   UNL     1       4.350   4.364  20.172  0.00  0.00    +0.000 C 
ATOM      3  C   UNL     1       5.493   5.110  19.433  0.00  0.00    +0.000 C 
ATOM      4  C   UNL     1       5.609   4.693  17.986  0.00  0.00    +0.000 A 
ATOM      5  C   UNL     1       4.505   4.053  17.379  0.00  0.00    +0.000 A 
ATOM      6  C   UNL     1       4.273   4.147  16.006  0.00  0.00    +0.000 A 
ATOM      7  C   UNL     1       5.248   4.723  15.248  0.00  0.00    +0.000 A 
ATOM      8  C   UNL     1       6.518   4.864  15.798  0.00  0.00    +0.000 A 
ATOM      9  C   UNL     1       6.681   5.016  17.166  0.00  0.00    +0.000 A 
ATOM     10  F   UNL     1       7.833   5.469  17.674  0.00  0.00    +0.000 F 
ATOM     11  C   UNL     1       7.504   4.511  14.716  0.00  0.00    +0.000 C 
ATOM     12  C   UNL     1       6.533   4.003  13.601  0.00  0.00    +0.000 C 
ATOM     13  C   UNL     1       5.296   4.865  13.768  0.00  0.00    +0.000 C 
ATOM     14  C   UNL     1       3.417   3.459  18.181  0.00  0.00    +0.000 C 
ATOM     15  O   UNL     1       2.787   2.492  17.776  0.00  0.00    +0.000 OA
ENDROOT
BRANCH   1  20
ATOM     16  C   UNL     1       1.810   7.464  20.218  0.00  0.00    +0.000 A 
ATOM     17  C   UNL     1       2.023   8.148  19.013  0.00  0.00    +0.000 A 
ATOM     18  C   UNL     1       2.239   7.439  17.837  0.00  0.00    +0.000 A 
ATOM     19  C   UNL     1       2.340   6.054  17.886  0.00  0.00    +0.000 A 
ATOM     20  C   UNL     1       2.394   5.404  19.126  0.00  0.00    +0.000 A 
ATOM     21  C   UNL     1       1.947   6.078  20.247  0.00  0.00    +0.000 A 
BRANCH  16  22
ATOM     22  C   UNL     1       1.483   8.194  21.490  0.00  0.00    +0.000 C 
BRANCH  22  23
ATOM     23  C   UNL     1       0.001   8.557  21.671  0.00  0.00    +0.000 C 
BRANCH  23  29
ATOM     24  C   UNL     1      -0.541  10.880  19.614  0.00  0.00    +0.000 C 
ATOM     25  N   UNL     1      -0.533  10.976  21.045  0.00  0.00    +0.000 N 
ATOM     26  C   UNL     1      -0.792  12.108  21.757  0.00  0.00    +0.000 A 
ATOM     27  N   UNL     1      -0.694  11.849  23.038  0.00  0.00    +0.000 NA
ATOM     28  N   UNL     1      -0.366  10.524  23.172  0.00  0.00    +0.000 NA
ATOM     29  C   UNL     1      -0.276   9.994  21.964  0.00  0.00    +0.000 A 
ENDBRANCH  23  29
ENDBRANCH  22  23
ENDBRANCH  16  22
ENDBRANCH   1  20
TORSDOF 4
ENDMDL
MODEL 6
REMARK VINA RESULT:      -8.0      6.940      9.774
REMARK  Name = 
REMARK  5 active torsions:
REMARK  status: ('A' for Active; 'I' for Inactive)
REMARK    1  A    between atoms: C_1  and  N_2
REMARK    2  A    between atoms: C_6  and  C_7
REMARK    3  A    between atoms: C_7  and  C_8
REMARK    4  A    between atoms: C_8  and  C_9
REMARK    5  A    between atoms: C_13  and  N_14
REMARK                            x       y       z     vdW  Elec       q    Type
REMARK                         _______ _______ _______ _____ _____    ______ ____
ROOT
ATOM      1  N   UNL     1       0.308  11.919  20.141  0.00  0.00    +0.000 N 
ATOM      2  C   UNL     1      -0.146  12.553  21.412  0.00  0.00    +0.000 C 
ATOM      3  C   UNL     1      -1.653  12.318  21.701  0.00  0.00    +0.000 C 
ATOM      4  C   UNL     1      -2.497  12.397  20.451  0.00  0.00    +0.000 A 
ATOM      5  C   UNL     1      -1.859  12.256  19.198  0.00  0.00    +0.000 A 
ATOM      6  C   UNL     1      -2.537  11.752  18.086  0.00  0.00    +0.000 A 
ATOM      7  C   UNL     1      -3.883  11.573  18.208  0.00  0.00    +0.000 A 
ATOM      8  C   UNL     1      -4.542  12.202  19.259  0.00  0.00    +0.000 A 
ATOM      9  C   UNL     1      -3.883  12.465  20.449  0.00  0.00    +0.000 A 
ATOM     10  F   UNL     1      -4.565  12.763  21.561  0.00  0.00    +0.000 F 
ATOM     11  C   UNL     1      -5.837  12.737  18.704  0.00  0.00    +0.000 C 
ATOM     12  C   UNL     1      -5.640  12.435  17.183  0.00  0.00    +0.000 C 
ATOM     13  C   UNL     1      -4.849  11.140  17.163  0.00  0.00    +0.000 C 
ATOM     14  C   UNL     1      -0.398  12.404  19.051  0.00  0.00    +0.000 C 
ATOM     15  O   UNL     1       0.096  12.817  18.011  0.00  0.00    +0.000 OA
ENDROOT
BRANCH   1  20
ATOM     16  C   UNL     1       1.537   8.601  19.247  0.00  0.00    +0.000 A 
ATOM     17  C   UNL     1       1.690   8.045  20.525  0.00  0.00    +0.000 A 
ATOM     18  C   UNL     1       1.044   8.615  21.616  0.00  0.00    +0.000 A 
ATOM     19  C   UNL     1       0.329   9.792  21.444  0.00  0.00    +0.000 A 
ATOM     20  C   UNL     1       0.405  10.482  20.226  0.00  0.00    +0.000 A 
ATOM     21  C   UNL     1       0.841   9.799  19.106  0.00  0.00    +0.000 A 
BRANCH  16  22
ATOM     22  C   UNL     1       2.145   7.960  18.031  0.00  0.00    +0.000 C 
BRANCH  22  23
ATOM     23  C   UNL     1       3.188   6.870  18.323  0.00  0.00    +0.000 C 
BRANCH  23  29
ATOM     24  C   UNL     1       4.963   4.748  16.816  0.00  0.00    +0.000 C 
ATOM     25  N   UNL     1       3.613   4.580  17.271  0.00  0.00    +0.000 N 
ATOM     26  C   UNL     1       2.879   3.441  17.144  0.00  0.00    +0.000 A 
ATOM     27  N   UNL     1       1.688   3.631  17.658  0.00  0.00    +0.000 NA
ATOM     28  N   UNL     1       1.638   4.916  18.132  0.00  0.00    +0.000 NA
ATOM     29  C   UNL     1       2.807   5.489  17.904  0.00  0.00    +0.000 A 
ENDBRANCH  23  29
ENDBRANCH  22  23
ENDBRANCH  16  22
ENDBRANCH   1  20
TORSDOF 4
ENDMDL
MODEL 7
REMARK VINA RESULT:      -8.0      6.534      9.719
REMARK  Name = 
REMARK  5 active torsions:
REMARK  status: ('A' for Active; 'I' for Inactive)
REMARK    1  A    between atoms: C_1  and  N_2
REMARK    2  A    between atoms: C_6  and  C_7
REMARK    3  A    between atoms: C_7  and  C_8
REMARK    4  A    between atoms: C_8  and  C_9
REMARK    5  A    between atoms: C_13  and  N_14
REMARK                            x       y       z     vdW  Elec       q    Type
REMARK                         _______ _______ _______ _____ _____    ______ ____
ROOT
ATOM      1  N   UNL     1       0.201  11.925  20.335  0.00  0.00    +0.000 N 
ATOM      2  C   UNL     1      -0.798  12.836  20.965  0.00  0.00    +0.000 C 
ATOM      3  C   UNL     1      -2.264  12.465  20.610  0.00  0.00    +0.000 C 
ATOM      4  C   UNL     1      -2.413  12.026  19.173  0.00  0.00    +0.000 A 
ATOM      5  C   UNL     1      -1.258  11.613  18.471  0.00  0.00    +0.000 A 
ATOM      6  C   UNL     1      -1.332  10.695  17.422  0.00  0.00    +0.000 A 
ATOM      7  C   UNL     1      -2.575  10.351  16.982  0.00  0.00    +0.000 A 
ATOM      8  C   UNL     1      -3.650  11.157  17.341  0.00  0.00    +0.000 A 
ATOM      9  C   UNL     1      -3.632  11.870  18.529  0.00  0.00    +0.000 A 
ATOM     10  F   UNL     1      -4.759  12.381  19.040  0.00  0.00    +0.000 F 
ATOM     11  C   UNL     1      -4.524  11.287  16.120  0.00  0.00    +0.000 C 
ATOM     12  C   UNL     1      -3.631  10.572  15.055  0.00  0.00    +0.000 C 
ATOM     13  C   UNL     1      -2.932   9.475  15.835  0.00  0.00    +0.000 C 
ATOM     14  C   UNL     1       0.098  11.939  18.953  0.00  0.00    +0.000 C 
ATOM     15  O   UNL     1       1.029  12.089  18.173  0.00  0.00    +0.000 OA
ENDROOT
BRANCH   1  20
ATOM     16  C   UNL     1       1.369   8.500  20.804  0.00  0.00    +0.000 A 
ATOM     17  C   UNL     1       1.405   8.444  22.204  0.00  0.00    +0.000 A 
ATOM     18  C   UNL     1       0.702   9.376  22.959  0.00  0.00    +0.000 A 
ATOM     19  C   UNL     1       0.045  10.416  22.315  0.00  0.00    +0.000 A 
ATOM     20  C   UNL     1       0.237  10.616  20.941  0.00  0.00    +0.000 A 
ATOM     21  C   UNL     1       0.730   9.570  20.182  0.00  0.00    +0.000 A 
BRANCH  16  22
ATOM     22  C   UNL     1       2.042   7.457  19.956  0.00  0.00    +0.000 C 
BRANCH  22  23
ATOM     23  C   UNL     1       1.931   6.018  20.484  0.00  0.00    +0.000 C 
BRANCH  23  29
ATOM     24  C   UNL     1       1.445   2.934  20.901  0.00  0.00    +0.000 C 
ATOM     25  N   UNL     1       1.576   3.628  19.652  0.00  0.00    +0.000 N 
ATOM     26  C   UNL     1       1.481   3.052  18.422  0.00  0.00    +0.000 A 
ATOM     27  N   UNL     1       1.657   3.967  17.500  0.00  0.00    +0.000 NA
ATOM     28  N   UNL     1       1.870   5.164  18.133  0.00  0.00    +0.000 NA
ATOM     29  C   UNL     1       1.813   4.959  19.438  0.00  0.00    +0.000 A 
ENDBRANCH  23  29
ENDBRANCH  22  23
ENDBRANCH  16  22
ENDBRANCH   1  20
TORSDOF 4
ENDMDL
MODEL 8
REMARK VINA RESULT:      -7.9      6.983      9.391
REMARK  Name = 
REMARK  5 active torsions:
REMARK  status: ('A' for Active; 'I' for Inactive)
REMARK    1  A    between atoms: C_1  and  N_2
REMARK    2  A    between atoms: C_6  and  C_7
REMARK    3  A    between atoms: C_7  and  C_8
REMARK    4  A    between atoms: C_8  and  C_9
REMARK    5  A    between atoms: C_13  and  N_14
REMARK                            x       y       z     vdW  Elec       q    Type
REMARK                         _______ _______ _______ _____ _____    ______ ____
ROOT
ATOM      1  N   UNL     1       0.149  11.974  20.274  0.00  0.00    +0.000 N 
ATOM      2  C   UNL     1      -0.353  12.528  21.564  0.00  0.00    +0.000 C 
ATOM      3  C   UNL     1      -1.860  12.241  21.802  0.00  0.00    +0.000 C 
ATOM      4  C   UNL     1      -2.674  12.366  20.537  0.00  0.00    +0.000 A 
ATOM      5  C   UNL     1      -2.003  12.307  19.295  0.00  0.00    +0.000 A 
ATOM      6  C   UNL     1      -2.641  11.847  18.141  0.00  0.00    +0.000 A 
ATOM      7  C   UNL     1      -3.984  11.629  18.219  0.00  0.00    +0.000 A 
ATOM      8  C   UNL     1      -4.685  12.184  19.284  0.00  0.00    +0.000 A 
ATOM      9  C   UNL     1      -4.061  12.400  20.503  0.00  0.00    +0.000 A 
ATOM     10  F   UNL     1      -4.778  12.622  21.611  0.00  0.00    +0.000 F 
ATOM     11  C   UNL     1      -5.979  12.717  18.725  0.00  0.00    +0.000 C 
ATOM     12  C   UNL     1      -5.737  12.501  17.196  0.00  0.00    +0.000 C 
ATOM     13  C   UNL     1      -4.912  11.229  17.128  0.00  0.00    +0.000 C 
ATOM     14  C   UNL     1      -0.543  12.499  19.194  0.00  0.00    +0.000 C 
ATOM     15  O   UNL     1      -0.034  12.979  18.190  0.00  0.00    +0.000 OA
ENDROOT
BRANCH   1  20
ATOM     16  C   UNL     1       1.584   8.749  19.347  0.00  0.00    +0.000 A 
ATOM     17  C   UNL     1       1.596   8.118  20.599  0.00  0.00    +0.000 A 
ATOM     18  C   UNL     1       0.803   8.603  21.633  0.00  0.00    +0.000 A 
ATOM     19  C   UNL     1       0.076   9.771  21.443  0.00  0.00    +0.000 A 
ATOM     20  C   UNL     1       0.280  10.537  20.286  0.00  0.00    +0.000 A 
ATOM     21  C   UNL     1       0.872   9.936  19.191  0.00  0.00    +0.000 A 
BRANCH  16  22
ATOM     22  C   UNL     1       2.357   8.200  18.182  0.00  0.00    +0.000 C 
BRANCH  22  23
ATOM     23  C   UNL     1       2.446   6.667  18.122  0.00  0.00    +0.000 C 
BRANCH  23  29
ATOM     24  C   UNL     1       4.995   6.555  16.274  0.00  0.00    +0.000 C 
ATOM     25  N   UNL     1       4.882   6.079  17.623  0.00  0.00    +0.000 N 
ATOM     26  C   UNL     1       5.892   5.515  18.342  0.00  0.00    +0.000 A 
ATOM     27  N   UNL     1       5.448   5.187  19.531  0.00  0.00    +0.000 NA
ATOM     28  N   UNL     1       4.125   5.541  19.596  0.00  0.00    +0.000 NA
ATOM     29  C   UNL     1       3.785   6.089  18.441  0.00  0.00    +0.000 A 
ENDBRANCH  23  29
ENDBRANCH  22  23
ENDBRANCH  16  22
ENDBRANCH   1  20
TORSDOF 4
ENDMDL
MODEL 9
REMARK VINA RESULT:      -7.8      6.584      9.313
REMARK  Name = 
REMARK  5 active torsions:
REMARK  status: ('A' for Active; 'I' for Inactive)
REMARK    1  A    between atoms: C_1  and  N_2
REMARK    2  A    between atoms: C_6  and  C_7
REMARK    3  A    between atoms: C_7  and  C_8
REMARK    4  A    between atoms: C_8  and  C_9
REMARK    5  A    between atoms: C_13  and  N_14
REMARK                            x       y       z     vdW  Elec       q    Type
REMARK                         _______ _______ _______ _____ _____    ______ ____
ROOT
ATOM      1  N   UNL     1      -0.204  12.063  20.643  0.00  0.00    +0.000 N 
ATOM      2  C   UNL     1      -1.294  12.937  21.163  0.00  0.00    +0.000 C 
ATOM      3  C   UNL     1      -2.702  12.510  20.668  0.00  0.00    +0.000 C 
ATOM      4  C   UNL     1      -2.691  12.060  19.226  0.00  0.00    +0.000 A 
ATOM      5  C   UNL     1      -1.457  11.689  18.646  0.00  0.00    +0.000 A 
ATOM      6  C   UNL     1      -1.391  10.765  17.601  0.00  0.00    +0.000 A 
ATOM      7  C   UNL     1      -2.570  10.372  17.042  0.00  0.00    +0.000 A 
ATOM      8  C   UNL     1      -3.706  11.138  17.286  0.00  0.00    +0.000 A 
ATOM      9  C   UNL     1      -3.833  11.856  18.465  0.00  0.00    +0.000 A 
ATOM     10  F   UNL     1      -5.023  12.325  18.857  0.00  0.00    +0.000 F 
ATOM     11  C   UNL     1      -4.458  11.230  15.984  0.00  0.00    +0.000 C 
ATOM     12  C   UNL     1      -3.436  10.546  15.017  0.00  0.00    +0.000 C 
ATOM     13  C   UNL     1      -2.778   9.479  15.872  0.00  0.00    +0.000 C 
ATOM     14  C   UNL     1      -0.168  12.067  19.258  0.00  0.00    +0.000 C 
ATOM     15  O   UNL     1       0.829  12.250  18.573  0.00  0.00    +0.000 OA
ENDROOT
BRANCH   1  20
ATOM     16  C   UNL     1       1.051   8.693  21.265  0.00  0.00    +0.000 A 
ATOM     17  C   UNL     1       0.933   8.643  22.661  0.00  0.00    +0.000 A 
ATOM     18  C   UNL     1       0.110   9.545  23.325  0.00  0.00    +0.000 A 
ATOM     19  C   UNL     1      -0.515  10.554  22.605  0.00  0.00    +0.000 A 
ATOM     20  C   UNL     1      -0.179  10.758  21.259  0.00  0.00    +0.000 A 
ATOM     21  C   UNL     1       0.440   9.733  20.568  0.00  0.00    +0.000 A 
BRANCH  16  22
ATOM     22  C   UNL     1       1.859   7.679  20.506  0.00  0.00    +0.000 C 
BRANCH  22  23
ATOM     23  C   UNL     1       1.994   7.948  18.999  0.00  0.00    +0.000 C 
BRANCH  23  29
ATOM     24  C   UNL     1       1.927   4.802  18.863  0.00  0.00    +0.000 C 
ATOM     25  N   UNL     1       2.856   5.676  18.207  0.00  0.00    +0.000 N 
ATOM     26  C   UNL     1       3.861   5.275  17.382  0.00  0.00    +0.000 A 
ATOM     27  N   UNL     1       4.523   6.326  16.961  0.00  0.00    +0.000 NA
ATOM     28  N   UNL     1       3.944   7.436  17.518  0.00  0.00    +0.000 NA
ATOM     29  C   UNL     1       2.928   7.042  18.267  0.00  0.00    +0.000 A 
ENDBRANCH  23  29
ENDBRANCH  22  23
ENDBRANCH  16  22
ENDBRANCH   1  20
TORSDOF 4
ENDMDL
