MODEL 1
REMARK VINA RESULT:      -6.9      0.000      0.000
REMARK  Name = 
REMARK  7 active torsions:
REMARK  status: ('A' for Active; 'I' for Inactive)
REMARK    1  A    between atoms: C_1  and  C_2
REMARK    2  A    between atoms: C_3  and  N_4
REMARK    3  A    between atoms: C_3  and  C_18
REMARK    4  A    between atoms: C_11  and  C_12
REMARK    5  A    between atoms: C_18  and  C_19
REMARK    6  A    between atoms: C_19  and  C_20
REMARK    7  A    between atoms: N_24  and  C_25
REMARK                            x       y       z     vdW  Elec       q    Type
REMARK                         _______ _______ _______ _____ _____    ______ ____
ROOT
ATOM      1  C   UNL     1      -1.325  15.582  20.210  0.00  0.00    +0.000 C 
ATOM      2  C   UNL     1      -2.210  15.160  21.340  0.00  0.00    +0.000 C 
ATOM      3  C   UNL     1      -2.602  13.899  21.616  0.00  0.00    +0.000 C 
ENDROOT
BRANCH   3   4
ATOM      4  N   UNL     1      -2.050  12.811  20.974  0.00  0.00    +0.000 N 
ATOM      5  C   UNL     1      -2.589  12.255  19.738  0.00  0.00    +0.000 C 
ATOM      6  C   UNL     1      -1.497  11.329  19.278  0.00  0.00    +0.000 A 
ATOM      7  C   UNL     1      -0.427  11.388  20.172  0.00  0.00    +0.000 A 
ATOM      8  C   UNL     1       0.735  10.655  20.007  0.00  0.00    +0.000 A 
ATOM      9  C   UNL     1       0.820   9.823  18.891  0.00  0.00    +0.000 A 
ATOM     10  C   UNL     1      -0.256   9.735  17.990  0.00  0.00    +0.000 A 
ATOM     11  C   UNL     1      -1.438  10.484  18.172  0.00  0.00    +0.000 A 
ATOM     12  C   UNL     1      -0.770  12.324  21.251  0.00  0.00    +0.000 C 
ATOM     13  O   UNL     1      -0.037  12.575  22.190  0.00  0.00    +0.000 OA
BRANCH  11  14
ATOM     14  C   UNL     1      -2.583  10.317  17.205  0.00  0.00    +0.000 C 
ATOM     15  F   UNL     1      -3.044  11.488  16.691  0.00  0.00    +0.000 F 
ATOM     16  F   UNL     1      -2.251   9.544  16.136  0.00  0.00    +0.000 F 
ATOM     17  F   UNL     1      -3.657   9.714  17.785  0.00  0.00    +0.000 F 
ENDBRANCH  11  14
ENDBRANCH   3   4
BRANCH   3  18
ATOM     18  C   UNL     1      -3.637  13.672  22.698  0.00  0.00    +0.000 C 
ATOM     19  C   UNL     1      -3.231  14.259  24.087  0.00  0.00    +0.000 C 
ATOM     20  O   UNL     1      -3.787  13.078  24.744  0.00  0.00    +0.000 OA
ATOM     21  C   UNL     1      -3.567  12.341  23.499  0.00  0.00    +0.000 C 
BRANCH  18  22
ATOM     22  C   UNL     1      -5.081  14.096  22.321  0.00  0.00    +0.000 C 
BRANCH  22  23
ATOM     23  C   UNL     1      -6.071  12.989  22.165  0.00  0.00    +0.000 A 
ATOM     24  N   UNL     1      -6.078  12.040  21.257  0.00  0.00    +0.000 NA
ATOM     25  N   UNL     1      -7.170  11.238  21.468  0.00  0.00    +0.000 NA
ATOM     26  C   UNL     1      -7.807  11.703  22.511  0.00  0.00    +0.000 A 
ATOM     27  N   UNL     1      -7.155  12.798  22.994  0.00  0.00    +0.000 N 
ATOM     28  C   UNL     1      -7.554  13.567  24.137  0.00  0.00    +0.000 C 
ENDBRANCH  22  23
ENDBRANCH  18  22
ENDBRANCH   3  18
TORSDOF 5
ENDMDL
MODEL 2
REMARK VINA RESULT:      -6.9      7.871     11.059
REMARK  Name = 
REMARK  7 active torsions:
REMARK  status: ('A' for Active; 'I' for Inactive)
REMARK    1  A    between atoms: C_1  and  C_2
REMARK    2  A    between atoms: C_3  and  N_4
REMARK    3  A    between atoms: C_3  and  C_18
REMARK    4  A    between atoms: C_11  and  C_12
REMARK    5  A    between atoms: C_18  and  C_19
REMARK    6  A    between atoms: C_19  and  C_20
REMARK    7  A    between atoms: N_24  and  C_25
REMARK                            x       y       z     vdW  Elec       q    Type
REMARK                         _______ _______ _______ _____ _____    ______ ____
ROOT
ATOM      1  C   UNL     1       5.298   1.884  20.467  0.00  0.00    +0.000 C 
ATOM      2  C   UNL     1       3.934   2.491  20.548  0.00  0.00    +0.000 C 
ATOM      3  C   UNL     1       3.466   3.503  19.788  0.00  0.00    +0.000 C 
ENDROOT
BRANCH   3   4
ATOM      4  N   UNL     1       4.159   3.965  18.689  0.00  0.00    +0.000 N 
ATOM      5  C   UNL     1       5.142   5.041  18.760  0.00  0.00    +0.000 C 
ATOM      6  C   UNL     1       5.829   4.961  17.426  0.00  0.00    +0.000 A 
ATOM      7  C   UNL     1       5.291   3.908  16.685  0.00  0.00    +0.000 A 
ATOM      8  C   UNL     1       5.732   3.575  15.416  0.00  0.00    +0.000 A 
ATOM      9  C   UNL     1       6.761   4.341  14.870  0.00  0.00    +0.000 A 
ATOM     10  C   UNL     1       7.303   5.419  15.593  0.00  0.00    +0.000 A 
ATOM     11  C   UNL     1       6.841   5.752  16.884  0.00  0.00    +0.000 A 
ATOM     12  C   UNL     1       4.231   3.273  17.479  0.00  0.00    +0.000 C 
ATOM     13  O   UNL     1       3.566   2.329  17.090  0.00  0.00    +0.000 OA
BRANCH  11  14
ATOM     14  C   UNL     1       7.419   6.947  17.598  0.00  0.00    +0.000 C 
ATOM     15  F   UNL     1       8.091   6.636  18.737  0.00  0.00    +0.000 F 
ATOM     16  F   UNL     1       8.297   7.640  16.823  0.00  0.00    +0.000 F 
ATOM     17  F   UNL     1       6.457   7.839  17.962  0.00  0.00    +0.000 F 
ENDBRANCH  11  14
ENDBRANCH   3   4
BRANCH   3  18
ATOM     18  C   UNL     1       2.118   4.108  20.120  0.00  0.00    +0.000 C 
ATOM     19  C   UNL     1       1.190   3.160  20.943  0.00  0.00    +0.000 C 
ATOM     20  O   UNL     1       0.043   3.603  20.155  0.00  0.00    +0.000 OA
ATOM     21  C   UNL     1       0.974   3.943  19.078  0.00  0.00    +0.000 C 
BRANCH  18  22
ATOM     22  C   UNL     1       2.175   5.518  20.763  0.00  0.00    +0.000 C 
BRANCH  22  23
ATOM     23  C   UNL     1       2.092   6.674  19.820  0.00  0.00    +0.000 A 
ATOM     24  N   UNL     1       2.385   6.688  18.540  0.00  0.00    +0.000 NA
ATOM     25  N   UNL     1       2.181   7.955  18.056  0.00  0.00    +0.000 NA
ATOM     26  C   UNL     1       1.755   8.693  19.049  0.00  0.00    +0.000 A 
ATOM     27  N   UNL     1       1.672   7.936  20.178  0.00  0.00    +0.000 N 
ATOM     28  C   UNL     1       1.232   8.402  21.462  0.00  0.00    +0.000 C 
ENDBRANCH  22  23
ENDBRANCH  18  22
ENDBRANCH   3  18
TORSDOF 5
ENDMDL
MODEL 3
REMARK VINA RESULT:      -6.7      7.379     11.713
REMARK  Name = 
REMARK  7 active torsions:
REMARK  status: ('A' for Active; 'I' for Inactive)
REMARK    1  A    between atoms: C_1  and  C_2
REMARK    2  A    between atoms: C_3  and  N_4
REMARK    3  A    between atoms: C_3  and  C_18
REMARK    4  A    between atoms: C_11  and  C_12
REMARK    5  A    between atoms: C_18  and  C_19
REMARK    6  A    between atoms: C_19  and  C_20
REMARK    7  A    between atoms: N_24  and  C_25
REMARK                            x       y       z     vdW  Elec       q    Type
REMARK                         _______ _______ _______ _____ _____    ______ ____
ROOT
ATOM      1  C   UNL     1       1.714   3.779  17.587  0.00  0.00    +0.000 C 
ATOM      2  C   UNL     1       3.115   4.137  17.204  0.00  0.00    +0.000 C 
ATOM      3  C   UNL     1       3.743   5.299  17.477  0.00  0.00    +0.000 C 
ENDROOT
BRANCH   3   4
ATOM      4  N   UNL     1       3.202   6.231  18.337  0.00  0.00    +0.000 N 
ATOM      5  C   UNL     1       2.592   7.477  17.882  0.00  0.00    +0.000 C 
ATOM      6  C   UNL     1       1.887   7.978  19.112  0.00  0.00    +0.000 A 
ATOM      7  C   UNL     1       2.067   7.070  20.156  0.00  0.00    +0.000 A 
ATOM      8  C   UNL     1       1.521   7.251  21.415  0.00  0.00    +0.000 A 
ATOM      9  C   UNL     1       0.762   8.400  21.630  0.00  0.00    +0.000 A 
ATOM     10  C   UNL     1       0.587   9.337  20.595  0.00  0.00    +0.000 A 
ATOM     11  C   UNL     1       1.152   9.143  19.317  0.00  0.00    +0.000 A 
ATOM     12  C   UNL     1       2.900   5.961  19.673  0.00  0.00    +0.000 C 
ATOM     13  O   UNL     1       3.241   5.018  20.364  0.00  0.00    +0.000 OA
BRANCH  11  14
ATOM     14  C   UNL     1       0.977  10.201  18.257  0.00  0.00    +0.000 C 
ATOM     15  F   UNL     1       0.015   9.909  17.342  0.00  0.00    +0.000 F 
ATOM     16  F   UNL     1       0.641  11.411  18.780  0.00  0.00    +0.000 F 
ATOM     17  F   UNL     1       2.119  10.405  17.546  0.00  0.00    +0.000 F 
ENDBRANCH  11  14
ENDBRANCH   3   4
BRANCH   3  18
ATOM     18  C   UNL     1       5.104   5.559  16.867  0.00  0.00    +0.000 C 
ATOM     19  C   UNL     1       6.124   6.203  17.858  0.00  0.00    +0.000 C 
ATOM     20  O   UNL     1       6.620   7.062  16.786  0.00  0.00    +0.000 OA
ATOM     21  C   UNL     1       5.320   6.912  16.130  0.00  0.00    +0.000 C 
BRANCH  18  22
ATOM     22  C   UNL     1       5.736   4.346  16.136  0.00  0.00    +0.000 C 
BRANCH  22  23
ATOM     23  C   UNL     1       6.565   4.661  14.933  0.00  0.00    +0.000 A 
ATOM     24  N   UNL     1       7.709   5.305  14.894  0.00  0.00    +0.000 NA
ATOM     25  N   UNL     1       8.123   5.387  13.589  0.00  0.00    +0.000 NA
ATOM     26  C   UNL     1       7.227   4.780  12.852  0.00  0.00    +0.000 A 
ATOM     27  N   UNL     1       6.231   4.298  13.647  0.00  0.00    +0.000 N 
ATOM     28  C   UNL     1       5.084   3.567  13.193  0.00  0.00    +0.000 C 
ENDBRANCH  22  23
ENDBRANCH  18  22
ENDBRANCH   3  18
TORSDOF 5
ENDMDL
MODEL 4
REMARK VINA RESULT:      -6.6      2.922      4.422
REMARK  Name = 
REMARK  7 active torsions:
REMARK  status: ('A' for Active; 'I' for Inactive)
REMARK    1  A    between atoms: C_1  and  C_2
REMARK    2  A    between atoms: C_3  and  N_4
REMARK    3  A    between atoms: C_3  and  C_18
REMARK    4  A    between atoms: C_11  and  C_12
REMARK    5  A    between atoms: C_18  and  C_19
REMARK    6  A    between atoms: C_19  and  C_20
REMARK    7  A    between atoms: N_24  and  C_25
REMARK                            x       y       z     vdW  Elec       q    Type
REMARK                         _______ _______ _______ _____ _____    ______ ____
ROOT
ATOM      1  C   UNL     1      -7.109  10.550  20.039  0.00  0.00    +0.000 C 
ATOM      2  C   UNL     1      -6.881  11.991  20.368  0.00  0.00    +0.000 C 
ATOM      3  C   UNL     1      -5.866  12.759  19.923  0.00  0.00    +0.000 C 
ENDROOT
BRANCH   3   4
ATOM      4  N   UNL     1      -5.012  12.327  18.929  0.00  0.00    +0.000 N 
ATOM      5  C   UNL     1      -3.692  11.767  19.197  0.00  0.00    +0.000 C 
ATOM      6  C   UNL     1      -3.302  11.170  17.874  0.00  0.00    +0.000 A 
ATOM      7  C   UNL     1      -4.334  11.358  16.954  0.00  0.00    +0.000 A 
ATOM      8  C   UNL     1      -4.273  10.901  15.649  0.00  0.00    +0.000 A 
ATOM      9  C   UNL     1      -3.118  10.227  15.255  0.00  0.00    +0.000 A 
ATOM     10  C   UNL     1      -2.059  10.046  16.162  0.00  0.00    +0.000 A 
ATOM     11  C   UNL     1      -2.131  10.520  17.489  0.00  0.00    +0.000 A 
ATOM     12  C   UNL     1      -5.421  12.092  17.615  0.00  0.00    +0.000 C 
ATOM     13  O   UNL     1      -6.455  12.417  17.059  0.00  0.00    +0.000 OA
BRANCH  11  14
ATOM     14  C   UNL     1      -0.949  10.344  18.409  0.00  0.00    +0.000 C 
ATOM     15  F   UNL     1      -1.242   9.688  19.562  0.00  0.00    +0.000 F 
ATOM     16  F   UNL     1       0.063   9.645  17.827  0.00  0.00    +0.000 F 
ATOM     17  F   UNL     1      -0.413  11.538  18.784  0.00  0.00    +0.000 F 
ENDBRANCH  11  14
ENDBRANCH   3   4
BRANCH   3  18
ATOM     18  C   UNL     1      -5.693  14.151  20.492  0.00  0.00    +0.000 C 
ATOM     19  C   UNL     1      -6.911  14.639  21.338  0.00  0.00    +0.000 C 
ATOM     20  O   UNL     1      -6.774  15.974  20.760  0.00  0.00    +0.000 OA
ATOM     21  C   UNL     1      -6.123  15.354  19.605  0.00  0.00    +0.000 C 
BRANCH  18  22
ATOM     22  C   UNL     1      -4.363  14.386  21.255  0.00  0.00    +0.000 C 
BRANCH  22  23
ATOM     23  C   UNL     1      -4.200  13.637  22.538  0.00  0.00    +0.000 A 
ATOM     24  N   UNL     1      -3.962  12.355  22.694  0.00  0.00    +0.000 NA
ATOM     25  N   UNL     1      -3.898  12.080  24.036  0.00  0.00    +0.000 NA
ATOM     26  C   UNL     1      -4.087  13.204  24.678  0.00  0.00    +0.000 A 
ATOM     27  N   UNL     1      -4.274  14.216  23.786  0.00  0.00    +0.000 N 
ATOM     28  C   UNL     1      -4.499  15.592  24.122  0.00  0.00    +0.000 C 
ENDBRANCH  22  23
ENDBRANCH  18  22
ENDBRANCH   3  18
TORSDOF 5
ENDMDL
MODEL 5
REMARK VINA RESULT:      -6.5      6.997     11.227
REMARK  Name = 
REMARK  7 active torsions:
REMARK  status: ('A' for Active; 'I' for Inactive)
REMARK    1  A    between atoms: C_1  and  C_2
REMARK    2  A    between atoms: C_3  and  N_4
REMARK    3  A    between atoms: C_3  and  C_18
REMARK    4  A    between atoms: C_11  and  C_12
REMARK    5  A    between atoms: C_18  and  C_19
REMARK    6  A    between atoms: C_19  and  C_20
REMARK    7  A    between atoms: N_24  and  C_25
REMARK                            x       y       z     vdW  Elec       q    Type
REMARK                         _______ _______ _______ _____ _____    ______ ____
ROOT
ATOM      1  C   UNL     1       1.270   4.182  17.799  0.00  0.00    +0.000 C 
ATOM      2  C   UNL     1       2.759   4.325  17.792  0.00  0.00    +0.000 C 
ATOM      3  C   UNL     1       3.459   5.379  18.259  0.00  0.00    +0.000 C 
ENDROOT
BRANCH   3   4
ATOM      4  N   UNL     1       2.859   6.382  18.991  0.00  0.00    +0.000 N 
ATOM      5  C   UNL     1       2.429   7.649  18.409  0.00  0.00    +0.000 C 
ATOM      6  C   UNL     1       1.575   8.248  19.491  0.00  0.00    +0.000 A 
ATOM      7  C   UNL     1       1.512   7.371  20.575  0.00  0.00    +0.000 A 
ATOM      8  C   UNL     1       0.785   7.640  21.722  0.00  0.00    +0.000 A 
ATOM      9  C   UNL     1       0.093   8.849  21.777  0.00  0.00    +0.000 A 
ATOM     10  C   UNL     1       0.160   9.755  20.702  0.00  0.00    +0.000 A 
ATOM     11  C   UNL     1       0.909   9.471  19.541  0.00  0.00    +0.000 A 
ATOM     12  C   UNL     1       2.324   6.187  20.266  0.00  0.00    +0.000 C 
ATOM     13  O   UNL     1       2.474   5.250  21.029  0.00  0.00    +0.000 OA
BRANCH  11  14
ATOM     14  C   UNL     1       0.991  10.495  18.438  0.00  0.00    +0.000 C 
ATOM     15  F   UNL     1       0.447  11.697  18.762  0.00  0.00    +0.000 F 
ATOM     16  F   UNL     1       2.273  10.754  18.063  0.00  0.00    +0.000 F 
ATOM     17  F   UNL     1       0.347  10.084  17.311  0.00  0.00    +0.000 F 
ENDBRANCH  11  14
ENDBRANCH   3   4
BRANCH   3  18
ATOM     18  C   UNL     1       4.953   5.434  18.017  0.00  0.00    +0.000 C 
ATOM     19  C   UNL     1       5.613   4.029  17.854  0.00  0.00    +0.000 C 
ATOM     20  O   UNL     1       6.763   4.482  18.634  0.00  0.00    +0.000 OA
ATOM     21  C   UNL     1       5.886   5.472  19.261  0.00  0.00    +0.000 C 
BRANCH  18  22
ATOM     22  C   UNL     1       5.397   6.387  16.877  0.00  0.00    +0.000 C 
BRANCH  22  23
ATOM     23  C   UNL     1       6.312   5.802  15.851  0.00  0.00    +0.000 A 
ATOM     24  N   UNL     1       7.607   5.985  15.733  0.00  0.00    +0.000 NA
ATOM     25  N   UNL     1       8.055   5.274  14.649  0.00  0.00    +0.000 NA
ATOM     26  C   UNL     1       7.025   4.658  14.128  0.00  0.00    +0.000 A 
ATOM     27  N   UNL     1       5.906   4.947  14.849  0.00  0.00    +0.000 N 
ATOM     28  C   UNL     1       4.590   4.443  14.582  0.00  0.00    +0.000 C 
ENDBRANCH  22  23
ENDBRANCH  18  22
ENDBRANCH   3  18
TORSDOF 5
ENDMDL
MODEL 6
REMARK VINA RESULT:      -6.5      0.860      1.271
REMARK  Name = 
REMARK  7 active torsions:
REMARK  status: ('A' for Active; 'I' for Inactive)
REMARK    1  A    between atoms: C_1  and  C_2
REMARK    2  A    between atoms: C_3  and  N_4
REMARK    3  A    between atoms: C_3  and  C_18
REMARK    4  A    between atoms: C_11  and  C_12
REMARK    5  A    between atoms: C_18  and  C_19
REMARK    6  A    between atoms: C_19  and  C_20
REMARK    7  A    between atoms: N_24  and  C_25
REMARK                            x       y       z     vdW  Elec       q    Type
REMARK                         _______ _______ _______ _____ _____    ______ ____
ROOT
ATOM      1  C   UNL     1      -1.344  15.511  20.692  0.00  0.00    +0.000 C 
ATOM      2  C   UNL     1      -2.297  15.062  21.754  0.00  0.00    +0.000 C 
ATOM      3  C   UNL     1      -2.684  13.791  21.990  0.00  0.00    +0.000 C 
ENDROOT
BRANCH   3   4
ATOM      4  N   UNL     1      -2.068  12.720  21.378  0.00  0.00    +0.000 N 
ATOM      5  C   UNL     1      -2.420  12.252  20.041  0.00  0.00    +0.000 C 
ATOM      6  C   UNL     1      -1.297  11.313  19.704  0.00  0.00    +0.000 A 
ATOM      7  C   UNL     1      -0.380  11.283  20.755  0.00  0.00    +0.000 A 
ATOM      8  C   UNL     1       0.773  10.518  20.730  0.00  0.00    +0.000 A 
ATOM      9  C   UNL     1       1.009   9.746  19.593  0.00  0.00    +0.000 A 
ATOM     10  C   UNL     1       0.086   9.747  18.531  0.00  0.00    +0.000 A 
ATOM     11  C   UNL     1      -1.088  10.528  18.571  0.00  0.00    +0.000 A 
ATOM     12  C   UNL     1      -0.862  12.172  21.821  0.00  0.00    +0.000 C 
ATOM     13  O   UNL     1      -0.280  12.343  22.876  0.00  0.00    +0.000 OA
BRANCH  11  14
ATOM     14  C   UNL     1      -2.070  10.457  17.430  0.00  0.00    +0.000 C 
ATOM     15  F   UNL     1      -2.193  11.619  16.736  0.00  0.00    +0.000 F 
ATOM     16  F   UNL     1      -1.733   9.509  16.513  0.00  0.00    +0.000 F 
ATOM     17  F   UNL     1      -3.323  10.139  17.854  0.00  0.00    +0.000 F 
ENDBRANCH  11  14
ENDBRANCH   3   4
BRANCH   3  18
ATOM     18  C   UNL     1      -3.787  13.535  22.994  0.00  0.00    +0.000 C 
ATOM     19  C   UNL     1      -3.487  14.106  24.416  0.00  0.00    +0.000 C 
ATOM     20  O   UNL     1      -4.069  12.908  25.017  0.00  0.00    +0.000 OA
ATOM     21  C   UNL     1      -3.753  12.192  23.780  0.00  0.00    +0.000 C 
BRANCH  18  22
ATOM     22  C   UNL     1      -5.207  13.945  22.525  0.00  0.00    +0.000 C 
BRANCH  22  23
ATOM     23  C   UNL     1      -6.054  12.851  21.960  0.00  0.00    +0.000 A 
ATOM     24  N   UNL     1      -6.749  11.952  22.619  0.00  0.00    +0.000 NA
ATOM     25  N   UNL     1      -7.371  11.129  21.716  0.00  0.00    +0.000 NA
ATOM     26  C   UNL     1      -7.055  11.547  20.517  0.00  0.00    +0.000 A 
ATOM     27  N   UNL     1      -6.237  12.631  20.612  0.00  0.00    +0.000 N 
ATOM     28  C   UNL     1      -5.695  13.366  19.505  0.00  0.00    +0.000 C 
ENDBRANCH  22  23
ENDBRANCH  18  22
ENDBRANCH   3  18
TORSDOF 5
ENDMDL
MODEL 7
REMARK VINA RESULT:      -6.4      2.938      4.521
REMARK  Name = 
REMARK  7 active torsions:
REMARK  status: ('A' for Active; 'I' for Inactive)
REMARK    1  A    between atoms: C_1  and  C_2
REMARK    2  A    between atoms: C_3  and  N_4
REMARK    3  A    between atoms: C_3  and  C_18
REMARK    4  A    between atoms: C_11  and  C_12
REMARK    5  A    between atoms: C_18  and  C_19
REMARK    6  A    between atoms: C_19  and  C_20
REMARK    7  A    between atoms: N_24  and  C_25
REMARK                            x       y       z     vdW  Elec       q    Type
REMARK                         _______ _______ _______ _____ _____    ______ ____
ROOT
ATOM      1  C   UNL     1      -7.307  10.292  20.187  0.00  0.00    +0.000 C 
ATOM      2  C   UNL     1      -7.292  11.739  20.564  0.00  0.00    +0.000 C 
ATOM      3  C   UNL     1      -6.363  12.647  20.200  0.00  0.00    +0.000 C 
ENDROOT
BRANCH   3   4
ATOM      4  N   UNL     1      -5.406  12.364  19.248  0.00  0.00    +0.000 N 
ATOM      5  C   UNL     1      -4.046  11.953  19.582  0.00  0.00    +0.000 C 
ATOM      6  C   UNL     1      -3.507  11.464  18.267  0.00  0.00    +0.000 A 
ATOM      7  C   UNL     1      -4.497  11.568  17.288  0.00  0.00    +0.000 A 
ATOM      8  C   UNL     1      -4.302  11.178  15.975  0.00  0.00    +0.000 A 
ATOM      9  C   UNL     1      -3.052  10.664  15.633  0.00  0.00    +0.000 A 
ATOM     10  C   UNL     1      -2.036  10.571  16.601  0.00  0.00    +0.000 A 
ATOM     11  C   UNL     1      -2.245  10.975  17.936  0.00  0.00    +0.000 A 
ATOM     12  C   UNL     1      -5.703  12.138  17.903  0.00  0.00    +0.000 C 
ATOM     13  O   UNL     1      -6.733  12.361  17.294  0.00  0.00    +0.000 OA
BRANCH  11  14
ATOM     14  C   UNL     1      -1.108  10.902  18.923  0.00  0.00    +0.000 C 
ATOM     15  F   UNL     1      -0.850  12.078  19.553  0.00  0.00    +0.000 F 
ATOM     16  F   UNL     1      -1.334   9.992  19.909  0.00  0.00    +0.000 F 
ATOM     17  F   UNL     1       0.060  10.530  18.331  0.00  0.00    +0.000 F 
ENDBRANCH  11  14
ENDBRANCH   3   4
BRANCH   3  18
ATOM     18  C   UNL     1      -6.409  14.031  20.812  0.00  0.00    +0.000 C 
ATOM     19  C   UNL     1      -7.395  15.004  20.090  0.00  0.00    +0.000 C 
ATOM     20  O   UNL     1      -6.430  16.090  20.244  0.00  0.00    +0.000 OA
ATOM     21  C   UNL     1      -5.374  15.079  20.311  0.00  0.00    +0.000 C 
BRANCH  18  22
ATOM     22  C   UNL     1      -6.631  14.060  22.346  0.00  0.00    +0.000 C 
BRANCH  22  23
ATOM     23  C   UNL     1      -5.504  13.547  23.183  0.00  0.00    +0.000 A 
ATOM     24  N   UNL     1      -5.190  12.295  23.425  0.00  0.00    +0.000 NA
ATOM     25  N   UNL     1      -4.095  12.269  24.250  0.00  0.00    +0.000 NA
ATOM     26  C   UNL     1      -3.751  13.508  24.490  0.00  0.00    +0.000 A 
ATOM     27  N   UNL     1      -4.597  14.352  23.838  0.00  0.00    +0.000 N 
ATOM     28  C   UNL     1      -4.524  15.785  23.857  0.00  0.00    +0.000 C 
ENDBRANCH  22  23
ENDBRANCH  18  22
ENDBRANCH   3  18
TORSDOF 5
ENDMDL
MODEL 8
REMARK VINA RESULT:      -6.4      4.698      6.642
REMARK  Name = 
REMARK  7 active torsions:
REMARK  status: ('A' for Active; 'I' for Inactive)
REMARK    1  A    between atoms: C_1  and  C_2
REMARK    2  A    between atoms: C_3  and  N_4
REMARK    3  A    between atoms: C_3  and  C_18
REMARK    4  A    between atoms: C_11  and  C_12
REMARK    5  A    between atoms: C_18  and  C_19
REMARK    6  A    between atoms: C_19  and  C_20
REMARK    7  A    between atoms: N_24  and  C_25
REMARK                            x       y       z     vdW  Elec       q    Type
REMARK                         _______ _______ _______ _____ _____    ______ ____
ROOT
ATOM      1  C   UNL     1      -1.099   9.598  17.553  0.00  0.00    +0.000 C 
ATOM      2  C   UNL     1      -0.728  10.407  18.756  0.00  0.00    +0.000 C 
ATOM      3  C   UNL     1       0.273  10.137  19.619  0.00  0.00    +0.000 C 
ENDROOT
BRANCH   3   4
ATOM      4  N   UNL     1       1.211   9.160  19.360  0.00  0.00    +0.000 N 
ATOM      5  C   UNL     1       1.161   7.828  19.952  0.00  0.00    +0.000 C 
ATOM      6  C   UNL     1       2.168   7.059  19.143  0.00  0.00    +0.000 A 
ATOM      7  C   UNL     1       2.712   7.890  18.163  0.00  0.00    +0.000 A 
ATOM      8  C   UNL     1       3.660   7.460  17.250  0.00  0.00    +0.000 A 
ATOM      9  C   UNL     1       4.078   6.132  17.333  0.00  0.00    +0.000 A 
ATOM     10  C   UNL     1       3.556   5.285  18.327  0.00  0.00    +0.000 A 
ATOM     11  C   UNL     1       2.594   5.737  19.255  0.00  0.00    +0.000 A 
ATOM     12  C   UNL     1       2.111   9.224  18.294  0.00  0.00    +0.000 C 
ATOM     13  O   UNL     1       2.399  10.170  17.584  0.00  0.00    +0.000 OA
BRANCH  11  14
ATOM     14  C   UNL     1       2.102   4.805  20.333  0.00  0.00    +0.000 C 
ATOM     15  F   UNL     1       2.369   5.233  21.595  0.00  0.00    +0.000 F 
ATOM     16  F   UNL     1       0.756   4.613  20.280  0.00  0.00    +0.000 F 
ATOM     17  F   UNL     1       2.661   3.568  20.232  0.00  0.00    +0.000 F 
ENDBRANCH  11  14
ENDBRANCH   3   4
BRANCH   3  18
ATOM     18  C   UNL     1       0.399  10.967  20.879  0.00  0.00    +0.000 C 
ATOM     19  C   UNL     1       0.681  10.123  22.161  0.00  0.00    +0.000 C 
ATOM     20  O   UNL     1      -0.226  10.979  22.922  0.00  0.00    +0.000 OA
ATOM     21  C   UNL     1      -0.903  11.296  21.663  0.00  0.00    +0.000 C 
BRANCH  18  22
ATOM     22  C   UNL     1       1.383  12.162  20.779  0.00  0.00    +0.000 C 
BRANCH  22  23
ATOM     23  C   UNL     1       0.805  13.514  21.046  0.00  0.00    +0.000 A 
ATOM     24  N   UNL     1       0.807  14.178  22.179  0.00  0.00    +0.000 NA
ATOM     25  N   UNL     1       0.161  15.372  21.989  0.00  0.00    +0.000 NA
ATOM     26  C   UNL     1      -0.215  15.423  20.737  0.00  0.00    +0.000 A 
ATOM     27  N   UNL     1       0.172  14.286  20.096  0.00  0.00    +0.000 N 
ATOM     28  C   UNL     1      -0.056  13.991  18.711  0.00  0.00    +0.000 C 
ENDBRANCH  22  23
ENDBRANCH  18  22
ENDBRANCH   3  18
TORSDOF 5
ENDMDL
MODEL 9
REMARK VINA RESULT:      -6.4      7.018     11.087
REMARK  Name = 
REMARK  7 active torsions:
REMARK  status: ('A' for Active; 'I' for Inactive)
REMARK    1  A    between atoms: C_1  and  C_2
REMARK    2  A    between atoms: C_3  and  N_4
REMARK    3  A    between atoms: C_3  and  C_18
REMARK    4  A    between atoms: C_11  and  C_12
REMARK    5  A    between atoms: C_18  and  C_19
REMARK    6  A    between atoms: C_19  and  C_20
REMARK    7  A    between atoms: N_24  and  C_25
REMARK                            x       y       z     vdW  Elec       q    Type
REMARK                         _______ _______ _______ _____ _____    ______ ____
ROOT
ATOM      1  C   UNL     1       0.906   4.504  17.296  0.00  0.00    +0.000 C 
ATOM      2  C   UNL     1       2.148   3.985  17.950  0.00  0.00    +0.000 C 
ATOM      3  C   UNL     1       2.914   4.646  18.842  0.00  0.00    +0.000 C 
ENDROOT
BRANCH   3   4
ATOM      4  N   UNL     1       2.506   5.836  19.407  0.00  0.00    +0.000 N 
ATOM      5  C   UNL     1       2.400   7.082  18.655  0.00  0.00    +0.000 C 
ATOM      6  C   UNL     1       1.636   7.978  19.590  0.00  0.00    +0.000 A 
ATOM      7  C   UNL     1       1.319   7.277  20.754  0.00  0.00    +0.000 A 
ATOM      8  C   UNL     1       0.603   7.835  21.799  0.00  0.00    +0.000 A 
ATOM      9  C   UNL     1       0.190   9.159  21.663  0.00  0.00    +0.000 A 
ATOM     10  C   UNL     1       0.517   9.888  20.505  0.00  0.00    +0.000 A 
ATOM     11  C   UNL     1       1.252   9.310  19.449  0.00  0.00    +0.000 A 
ATOM     12  C   UNL     1       1.869   5.919  20.647  0.00  0.00    +0.000 C 
ATOM     13  O   UNL     1       1.765   5.075  21.518  0.00  0.00    +0.000 OA
BRANCH  11  14
ATOM     14  C   UNL     1       1.620  10.148  18.251  0.00  0.00    +0.000 C 
ATOM     15  F   UNL     1       2.953  10.175  17.987  0.00  0.00    +0.000 F 
ATOM     16  F   UNL     1       1.022   9.712  17.109  0.00  0.00    +0.000 F 
ATOM     17  F   UNL     1       1.241  11.446  18.400  0.00  0.00    +0.000 F 
ENDBRANCH  11  14
ENDBRANCH   3   4
BRANCH   3  18
ATOM     18  C   UNL     1       4.230   4.036  19.274  0.00  0.00    +0.000 C 
ATOM     19  C   UNL     1       4.565   2.691  18.554  0.00  0.00    +0.000 C 
ATOM     20  O   UNL     1       5.083   2.152  19.808  0.00  0.00    +0.000 OA
ATOM     21  C   UNL     1       4.222   3.100  20.516  0.00  0.00    +0.000 C 
BRANCH  18  22
ATOM     22  C   UNL     1       5.444   5.001  19.230  0.00  0.00    +0.000 C 
BRANCH  22  23
ATOM     23  C   UNL     1       6.356   4.857  18.055  0.00  0.00    +0.000 A 
ATOM     24  N   UNL     1       7.515   4.240  18.009  0.00  0.00    +0.000 NA
ATOM     25  N   UNL     1       8.025   4.358  16.742  0.00  0.00    +0.000 NA
ATOM     26  C   UNL     1       7.163   5.036  16.030  0.00  0.00    +0.000 A 
ATOM     27  N   UNL     1       6.091   5.368  16.803  0.00  0.00    +0.000 N 
ATOM     28  C   UNL     1       4.941   6.103  16.362  0.00  0.00    +0.000 C 
ENDBRANCH  22  23
ENDBRANCH  18  22
ENDBRANCH   3  18
TORSDOF 5
ENDMDL
