MODEL 1
REMARK VINA RESULT:      -8.6      0.000      0.000
REMARK  Name = 
REMARK  5 active torsions:
REMARK  status: ('A' for Active; 'I' for Inactive)
REMARK    1  A    between atoms: C_1  and  N_2
REMARK    2  A    between atoms: C_4  and  C_5
REMARK    3  A    between atoms: C_9  and  N_10
REMARK    4  A    between atoms: C_11  and  C_13
REMARK    5  A    between atoms: C_15  and  C_16
REMARK                            x       y       z     vdW  Elec       q    Type
REMARK                         _______ _______ _______ _____ _____    ______ ____
ROOT
ATOM      1  N   UNL     1       7.036   7.403  17.039  0.00  0.00    +0.000 N 
ATOM      2  C   UNL     1       7.892   7.528  18.118  0.00  0.00    +0.000 C 
ATOM      3  O   UNL     1       8.234   6.615  18.860  0.00  0.00    +0.000 OA
ATOM      4  H   UNL     1       6.934   8.204  16.433  0.00  0.00    +0.000 HD
ENDROOT
BRANCH   1   9
ATOM      5  C   UNL     1       4.559   4.634  16.892  0.00  0.00    +0.000 A 
ATOM      6  C   UNL     1       5.009   3.923  15.774  0.00  0.00    +0.000 A 
ATOM      7  C   UNL     1       6.159   4.326  15.101  0.00  0.00    +0.000 A 
ATOM      8  C   UNL     1       6.856   5.459  15.520  0.00  0.00    +0.000 A 
ATOM      9  C   UNL     1       6.412   6.207  16.613  0.00  0.00    +0.000 A 
ATOM     10  C   UNL     1       5.280   5.766  17.317  0.00  0.00    +0.000 A 
BRANCH   5  14
ATOM     11  C   UNL     1       0.936   4.138  20.254  0.00  0.00    +0.000 C 
ATOM     12  N   UNL     1       1.750   4.013  19.070  0.00  0.00    +0.000 N 
ATOM     13  C   UNL     1       2.898   4.695  18.785  0.00  0.00    +0.000 A 
ATOM     14  C   UNL     1       3.358   4.196  17.583  0.00  0.00    +0.000 A 
ATOM     15  C   UNL     1       2.381   3.238  17.219  0.00  0.00    +0.000 A 
ATOM     16  N   UNL     1       1.406   3.123  18.124  0.00  0.00    +0.000 NA
ENDBRANCH   5  14
ENDBRANCH   1   9
BRANCH   2  17
ATOM     17  C   UNL     1       8.442   8.845  18.330  0.00  0.00    +0.000 A 
ATOM     18  C   UNL     1       8.543  10.001  17.578  0.00  0.00    +0.000 A 
ATOM     19  C   UNL     1       9.195  10.935  18.419  0.00  0.00    +0.000 A 
ATOM     20  N   UNL     1       9.497  10.408  19.610  0.00  0.00    +0.000 NA
ATOM     21  N   UNL     1       9.031   9.155  19.529  0.00  0.00    +0.000 N 
ATOM     22  H   UNL     1       9.136   8.534  20.328  0.00  0.00    +0.000 HD
BRANCH  19  23
ATOM     23  C   UNL     1       9.503  12.315  18.070  0.00  0.00    +0.000 A 
ATOM     24  C   UNL     1      10.689  12.747  17.420  0.00  0.00    +0.000 A 
ATOM     25  C   UNL     1      10.583  14.113  17.301  0.00  0.00    +0.000 A 
ATOM     26  O   UNL     1       9.408  14.547  17.826  0.00  0.00    +0.000 OA
ATOM     27  C   UNL     1       8.755  13.448  18.291  0.00  0.00    +0.000 A 
ENDBRANCH  19  23
ENDBRANCH   2  17
TORSDOF 4
ENDMDL
MODEL 2
REMARK VINA RESULT:      -8.3      5.871      8.389
REMARK  Name = 
REMARK  5 active torsions:
REMARK  status: ('A' for Active; 'I' for Inactive)
REMARK    1  A    between atoms: C_1  and  N_2
REMARK    2  A    between atoms: C_4  and  C_5
REMARK    3  A    between atoms: C_9  and  N_10
REMARK    4  A    between atoms: C_11  and  C_13
REMARK    5  A    between atoms: C_15  and  C_16
REMARK                            x       y       z     vdW  Elec       q    Type
REMARK                         _______ _______ _______ _____ _____    ______ ____
ROOT
ATOM      1  N   UNL     1       1.918   8.645  18.840  0.00  0.00    +0.000 N 
ATOM      2  C   UNL     1       2.139   7.473  19.539  0.00  0.00    +0.000 C 
ATOM      3  O   UNL     1       1.467   7.075  20.484  0.00  0.00    +0.000 OA
ATOM      4  H   UNL     1       2.465   8.795  18.004  0.00  0.00    +0.000 HD
ENDROOT
BRANCH   1   9
ATOM      5  C   UNL     1      -1.216  10.584  18.352  0.00  0.00    +0.000 A 
ATOM      6  C   UNL     1      -1.282  11.303  19.552  0.00  0.00    +0.000 A 
ATOM      7  C   UNL     1      -0.268  11.187  20.498  0.00  0.00    +0.000 A 
ATOM      8  C   UNL     1       0.810  10.333  20.268  0.00  0.00    +0.000 A 
ATOM      9  C   UNL     1       0.887   9.579  19.095  0.00  0.00    +0.000 A 
ATOM     10  C   UNL     1      -0.114   9.739  18.124  0.00  0.00    +0.000 A 
BRANCH   5  14
ATOM     11  C   UNL     1      -3.949  10.173  14.226  0.00  0.00    +0.000 C 
ATOM     12  N   UNL     1      -3.490  10.502  15.552  0.00  0.00    +0.000 N 
ATOM     13  C   UNL     1      -2.320  10.110  16.140  0.00  0.00    +0.000 A 
ATOM     14  C   UNL     1      -2.284  10.720  17.376  0.00  0.00    +0.000 A 
ATOM     15  C   UNL     1      -3.508  11.428  17.441  0.00  0.00    +0.000 A 
ATOM     16  N   UNL     1      -4.240  11.300  16.331  0.00  0.00    +0.000 NA
ENDBRANCH   5  14
ENDBRANCH   1   9
BRANCH   2  17
ATOM     17  C   UNL     1       3.229   6.656  19.064  0.00  0.00    +0.000 A 
ATOM     18  C   UNL     1       3.980   6.596  17.904  0.00  0.00    +0.000 A 
ATOM     19  C   UNL     1       4.910   5.551  18.119  0.00  0.00    +0.000 A 
ATOM     20  N   UNL     1       4.754   4.981  19.317  0.00  0.00    +0.000 NA
ATOM     21  N   UNL     1       3.741   5.666  19.864  0.00  0.00    +0.000 N 
ATOM     22  H   UNL     1       3.425   5.423  20.800  0.00  0.00    +0.000 HD
BRANCH  19  23
ATOM     23  C   UNL     1       5.938   5.128  17.175  0.00  0.00    +0.000 A 
ATOM     24  C   UNL     1       5.750   4.982  15.777  0.00  0.00    +0.000 A 
ATOM     25  C   UNL     1       6.955   4.551  15.273  0.00  0.00    +0.000 A 
ATOM     26  O   UNL     1       7.871   4.431  16.269  0.00  0.00    +0.000 OA
ATOM     27  C   UNL     1       7.246   4.784  17.423  0.00  0.00    +0.000 A 
ENDBRANCH  19  23
ENDBRANCH   2  17
TORSDOF 4
ENDMDL
MODEL 3
REMARK VINA RESULT:      -8.1      0.857      1.216
REMARK  Name = 
REMARK  5 active torsions:
REMARK  status: ('A' for Active; 'I' for Inactive)
REMARK    1  A    between atoms: C_1  and  N_2
REMARK    2  A    between atoms: C_4  and  C_5
REMARK    3  A    between atoms: C_9  and  N_10
REMARK    4  A    between atoms: C_11  and  C_13
REMARK    5  A    between atoms: C_15  and  C_16
REMARK                            x       y       z     vdW  Elec       q    Type
REMARK                         _______ _______ _______ _____ _____    ______ ____
ROOT
ATOM      1  N   UNL     1       7.139   7.343  17.018  0.00  0.00    +0.000 N 
ATOM      2  C   UNL     1       7.931   7.509  18.139  0.00  0.00    +0.000 C 
ATOM      3  O   UNL     1       8.253   6.619  18.917  0.00  0.00    +0.000 OA
ATOM      4  H   UNL     1       7.053   8.131  16.391  0.00  0.00    +0.000 HD
ENDROOT
BRANCH   1   9
ATOM      5  C   UNL     1       4.976   4.320  17.023  0.00  0.00    +0.000 A 
ATOM      6  C   UNL     1       5.263   3.776  15.766  0.00  0.00    +0.000 A 
ATOM      7  C   UNL     1       6.207   4.377  14.938  0.00  0.00    +0.000 A 
ATOM      8  C   UNL     1       6.856   5.542  15.347  0.00  0.00    +0.000 A 
ATOM      9  C   UNL     1       6.567   6.125  16.583  0.00  0.00    +0.000 A 
ATOM     10  C   UNL     1       5.650   5.486  17.431  0.00  0.00    +0.000 A 
BRANCH   5  14
ATOM     11  C   UNL     1       0.712   2.479  18.783  0.00  0.00    +0.000 C 
ATOM     12  N   UNL     1       2.098   2.843  18.621  0.00  0.00    +0.000 N 
ATOM     13  C   UNL     1       2.662   3.481  17.552  0.00  0.00    +0.000 A 
ATOM     14  C   UNL     1       3.989   3.676  17.873  0.00  0.00    +0.000 A 
ATOM     15  C   UNL     1       4.119   3.080  19.151  0.00  0.00    +0.000 A 
ATOM     16  N   UNL     1       2.970   2.577  19.608  0.00  0.00    +0.000 NA
ENDBRANCH   5  14
ENDBRANCH   1   9
BRANCH   2  17
ATOM     17  C   UNL     1       8.439   8.843  18.354  0.00  0.00    +0.000 A 
ATOM     18  C   UNL     1       8.465  10.015  17.622  0.00  0.00    +0.000 A 
ATOM     19  C   UNL     1       9.115  10.958  18.455  0.00  0.00    +0.000 A 
ATOM     20  N   UNL     1       9.486  10.422  19.621  0.00  0.00    +0.000 NA
ATOM     21  N   UNL     1       9.066   9.153  19.535  0.00  0.00    +0.000 N 
ATOM     22  H   UNL     1       9.228   8.522  20.316  0.00  0.00    +0.000 HD
BRANCH  19  23
ATOM     23  C   UNL     1       9.355  12.356  18.120  0.00  0.00    +0.000 A 
ATOM     24  C   UNL     1       8.479  13.429  18.424  0.00  0.00    +0.000 A 
ATOM     25  C   UNL     1       9.073  14.562  17.918  0.00  0.00    +0.000 A 
ATOM     26  O   UNL     1      10.258  14.255  17.331  0.00  0.00    +0.000 OA
ATOM     27  C   UNL     1      10.424  12.912  17.457  0.00  0.00    +0.000 A 
ENDBRANCH  19  23
ENDBRANCH   2  17
TORSDOF 4
ENDMDL
MODEL 4
REMARK VINA RESULT:      -8.1      5.340      7.922
REMARK  Name = 
REMARK  5 active torsions:
REMARK  status: ('A' for Active; 'I' for Inactive)
REMARK    1  A    between atoms: C_1  and  N_2
REMARK    2  A    between atoms: C_4  and  C_5
REMARK    3  A    between atoms: C_9  and  N_10
REMARK    4  A    between atoms: C_11  and  C_13
REMARK    5  A    between atoms: C_15  and  C_16
REMARK                            x       y       z     vdW  Elec       q    Type
REMARK                         _______ _______ _______ _____ _____    ______ ____
ROOT
ATOM      1  N   UNL     1       2.117   6.432  20.707  0.00  0.00    +0.000 N 
ATOM      2  C   UNL     1       1.875   7.649  20.097  0.00  0.00    +0.000 C 
ATOM      3  O   UNL     1       2.075   7.901  18.914  0.00  0.00    +0.000 OA
ATOM      4  H   UNL     1       1.792   6.317  21.656  0.00  0.00    +0.000 HD
ENDROOT
BRANCH   1   9
ATOM      5  C   UNL     1       4.310   4.330  18.564  0.00  0.00    +0.000 A 
ATOM      6  C   UNL     1       3.835   3.047  18.861  0.00  0.00    +0.000 A 
ATOM      7  C   UNL     1       2.759   2.879  19.728  0.00  0.00    +0.000 A 
ATOM      8  C   UNL     1       2.162   3.988  20.327  0.00  0.00    +0.000 A 
ATOM      9  C   UNL     1       2.635   5.278  20.074  0.00  0.00    +0.000 A 
ATOM     10  C   UNL     1       3.688   5.442  19.161  0.00  0.00    +0.000 A 
BRANCH   5  14
ATOM     11  C   UNL     1       7.052   4.767  14.446  0.00  0.00    +0.000 C 
ATOM     12  N   UNL     1       6.624   4.704  15.821  0.00  0.00    +0.000 N 
ATOM     13  C   UNL     1       5.346   4.561  16.280  0.00  0.00    +0.000 A 
ATOM     14  C   UNL     1       5.433   4.484  17.655  0.00  0.00    +0.000 A 
ATOM     15  C   UNL     1       6.817   4.630  17.914  0.00  0.00    +0.000 A 
ATOM     16  N   UNL     1       7.542   4.760  16.801  0.00  0.00    +0.000 NA
ENDBRANCH   5  14
ENDBRANCH   1   9
BRANCH   2  17
ATOM     17  C   UNL     1       1.300   8.668  20.941  0.00  0.00    +0.000 A 
ATOM     18  C   UNL     1       0.362   9.669  20.774  0.00  0.00    +0.000 A 
ATOM     19  C   UNL     1       0.261  10.300  22.038  0.00  0.00    +0.000 A 
ATOM     20  N   UNL     1       1.084   9.750  22.936  0.00  0.00    +0.000 NA
ATOM     21  N   UNL     1       1.692   8.772  22.252  0.00  0.00    +0.000 N 
ATOM     22  H   UNL     1       2.379   8.188  22.724  0.00  0.00    +0.000 HD
BRANCH  19  23
ATOM     23  C   UNL     1      -0.629  11.406  22.361  0.00  0.00    +0.000 A 
ATOM     24  C   UNL     1      -1.782  11.312  23.182  0.00  0.00    +0.000 A 
ATOM     25  C   UNL     1      -2.337  12.570  23.207  0.00  0.00    +0.000 A 
ATOM     26  O   UNL     1      -1.595  13.432  22.464  0.00  0.00    +0.000 OA
ATOM     27  C   UNL     1      -0.557  12.718  21.952  0.00  0.00    +0.000 A 
ENDBRANCH  19  23
ENDBRANCH   2  17
TORSDOF 4
ENDMDL
MODEL 5
REMARK VINA RESULT:      -7.9      5.965      8.535
REMARK  Name = 
REMARK  5 active torsions:
REMARK  status: ('A' for Active; 'I' for Inactive)
REMARK    1  A    between atoms: C_1  and  N_2
REMARK    2  A    between atoms: C_4  and  C_5
REMARK    3  A    between atoms: C_9  and  N_10
REMARK    4  A    between atoms: C_11  and  C_13
REMARK    5  A    between atoms: C_15  and  C_16
REMARK                            x       y       z     vdW  Elec       q    Type
REMARK                         _______ _______ _______ _____ _____    ______ ____
ROOT
ATOM      1  N   UNL     1       1.870   8.601  18.557  0.00  0.00    +0.000 N 
ATOM      2  C   UNL     1       2.229   7.445  19.223  0.00  0.00    +0.000 C 
ATOM      3  O   UNL     1       1.782   7.084  20.306  0.00  0.00    +0.000 OA
ATOM      4  H   UNL     1       2.216   8.720  17.615  0.00  0.00    +0.000 HD
ENDROOT
BRANCH   1   9
ATOM      5  C   UNL     1      -1.183  10.722  18.619  0.00  0.00    +0.000 A 
ATOM      6  C   UNL     1      -1.059  11.344  19.866  0.00  0.00    +0.000 A 
ATOM      7  C   UNL     1       0.057  11.105  20.663  0.00  0.00    +0.000 A 
ATOM      8  C   UNL     1       1.047  10.221  20.235  0.00  0.00    +0.000 A 
ATOM      9  C   UNL     1       0.934   9.561  19.010  0.00  0.00    +0.000 A 
ATOM     10  C   UNL     1      -0.169   9.845  18.190  0.00  0.00    +0.000 A 
BRANCH   5  14
ATOM     11  C   UNL     1      -5.710  12.124  17.130  0.00  0.00    +0.000 C 
ATOM     12  N   UNL     1      -4.352  11.640  17.156  0.00  0.00    +0.000 N 
ATOM     13  C   UNL     1      -3.520  11.581  18.239  0.00  0.00    +0.000 A 
ATOM     14  C   UNL     1      -2.354  10.986  17.800  0.00  0.00    +0.000 A 
ATOM     15  C   UNL     1      -2.587  10.762  16.422  0.00  0.00    +0.000 A 
ATOM     16  N   UNL     1      -3.801  11.155  16.031  0.00  0.00    +0.000 NA
ENDBRANCH   5  14
ENDBRANCH   1   9
BRANCH   2  17
ATOM     17  C   UNL     1       3.174   6.596  18.539  0.00  0.00    +0.000 A 
ATOM     18  C   UNL     1       4.030   6.744  17.464  0.00  0.00    +0.000 A 
ATOM     19  C   UNL     1       4.689   5.497  17.339  0.00  0.00    +0.000 A 
ATOM     20  N   UNL     1       4.273   4.619  18.256  0.00  0.00    +0.000 NA
ATOM     21  N   UNL     1       3.366   5.306  18.964  0.00  0.00    +0.000 N 
ATOM     22  H   UNL     1       2.895   4.850  19.742  0.00  0.00    +0.000 HD
BRANCH  19  23
ATOM     23  C   UNL     1       5.712   5.178  16.352  0.00  0.00    +0.000 A 
ATOM     24  C   UNL     1       5.459   4.716  15.035  0.00  0.00    +0.000 A 
ATOM     25  C   UNL     1       6.690   4.521  14.455  0.00  0.00    +0.000 A 
ATOM     26  O   UNL     1       7.682   4.841  15.326  0.00  0.00    +0.000 OA
ATOM     27  C   UNL     1       7.080   5.241  16.478  0.00  0.00    +0.000 A 
ENDBRANCH  19  23
ENDBRANCH   2  17
TORSDOF 4
ENDMDL
MODEL 6
REMARK VINA RESULT:      -7.9      5.800      8.309
REMARK  Name = 
REMARK  5 active torsions:
REMARK  status: ('A' for Active; 'I' for Inactive)
REMARK    1  A    between atoms: C_1  and  N_2
REMARK    2  A    between atoms: C_4  and  C_5
REMARK    3  A    between atoms: C_9  and  N_10
REMARK    4  A    between atoms: C_11  and  C_13
REMARK    5  A    between atoms: C_15  and  C_16
REMARK                            x       y       z     vdW  Elec       q    Type
REMARK                         _______ _______ _______ _____ _____    ______ ____
ROOT
ATOM      1  N   UNL     1       1.579   7.079  20.949  0.00  0.00    +0.000 N 
ATOM      2  C   UNL     1       1.330   8.327  20.411  0.00  0.00    +0.000 C 
ATOM      3  O   UNL     1       1.573   8.663  19.257  0.00  0.00    +0.000 OA
ATOM      4  H   UNL     1       1.218   6.892  21.874  0.00  0.00    +0.000 HD
ENDROOT
BRANCH   1   9
ATOM      5  C   UNL     1       3.581   5.214  18.432  0.00  0.00    +0.000 A 
ATOM      6  C   UNL     1       3.460   3.902  18.904  0.00  0.00    +0.000 A 
ATOM      7  C   UNL     1       2.676   3.625  20.021  0.00  0.00    +0.000 A 
ATOM      8  C   UNL     1       2.027   4.660  20.694  0.00  0.00    +0.000 A 
ATOM      9  C   UNL     1       2.155   5.983  20.265  0.00  0.00    +0.000 A 
ATOM     10  C   UNL     1       2.906   6.247  19.110  0.00  0.00    +0.000 A 
BRANCH   5  14
ATOM     11  C   UNL     1       6.430   4.635  14.405  0.00  0.00    +0.000 C 
ATOM     12  N   UNL     1       5.637   5.203  15.467  0.00  0.00    +0.000 N 
ATOM     13  C   UNL     1       4.948   4.525  16.433  0.00  0.00    +0.000 A 
ATOM     14  C   UNL     1       4.401   5.482  17.263  0.00  0.00    +0.000 A 
ATOM     15  C   UNL     1       4.798   6.707  16.675  0.00  0.00    +0.000 A 
ATOM     16  N   UNL     1       5.552   6.538  15.586  0.00  0.00    +0.000 NA
ENDBRANCH   5  14
ENDBRANCH   1   9
BRANCH   2  17
ATOM     17  C   UNL     1       0.692   9.273  21.294  0.00  0.00    +0.000 A 
ATOM     18  C   UNL     1      -0.071  10.414  21.128  0.00  0.00    +0.000 A 
ATOM     19  C   UNL     1      -0.386  10.845  22.440  0.00  0.00    +0.000 A 
ATOM     20  N   UNL     1       0.148  10.047  23.369  0.00  0.00    +0.000 NA
ATOM     21  N   UNL     1       0.787   9.111  22.654  0.00  0.00    +0.000 N 
ATOM     22  H   UNL     1       1.282   8.367  23.139  0.00  0.00    +0.000 HD
BRANCH  19  23
ATOM     23  C   UNL     1      -1.202  12.005  22.774  0.00  0.00    +0.000 A 
ATOM     24  C   UNL     1      -2.540  11.952  23.241  0.00  0.00    +0.000 A 
ATOM     25  C   UNL     1      -2.936  13.258  23.412  0.00  0.00    +0.000 A 
ATOM     26  O   UNL     1      -1.927  14.108  23.090  0.00  0.00    +0.000 OA
ATOM     27  C   UNL     1      -0.874  13.339  22.703  0.00  0.00    +0.000 A 
ENDBRANCH  19  23
ENDBRANCH   2  17
TORSDOF 4
ENDMDL
MODEL 7
REMARK VINA RESULT:      -7.8      1.321      1.372
REMARK  Name = 
REMARK  5 active torsions:
REMARK  status: ('A' for Active; 'I' for Inactive)
REMARK    1  A    between atoms: C_1  and  N_2
REMARK    2  A    between atoms: C_4  and  C_5
REMARK    3  A    between atoms: C_9  and  N_10
REMARK    4  A    between atoms: C_11  and  C_13
REMARK    5  A    between atoms: C_15  and  C_16
REMARK                            x       y       z     vdW  Elec       q    Type
REMARK                         _______ _______ _______ _____ _____    ______ ____
ROOT
ATOM      1  N   UNL     1       6.914   7.490  17.125  0.00  0.00    +0.000 N 
ATOM      2  C   UNL     1       7.857   7.739  18.104  0.00  0.00    +0.000 C 
ATOM      3  O   UNL     1       8.330   6.900  18.862  0.00  0.00    +0.000 OA
ATOM      4  H   UNL     1       6.701   8.242  16.485  0.00  0.00    +0.000 HD
ENDROOT
BRANCH   1   9
ATOM      5  C   UNL     1       4.544   4.631  17.296  0.00  0.00    +0.000 A 
ATOM      6  C   UNL     1       5.018   3.820  16.258  0.00  0.00    +0.000 A 
ATOM      7  C   UNL     1       6.148   4.191  15.536  0.00  0.00    +0.000 A 
ATOM      8  C   UNL     1       6.803   5.388  15.826  0.00  0.00    +0.000 A 
ATOM      9  C   UNL     1       6.334   6.233  16.835  0.00  0.00    +0.000 A 
ATOM     10  C   UNL     1       5.223   5.828  17.591  0.00  0.00    +0.000 A 
BRANCH   5  14
ATOM     11  C   UNL     1       1.513   3.146  20.940  0.00  0.00    +0.000 C 
ATOM     12  N   UNL     1       2.035   3.595  19.673  0.00  0.00    +0.000 N 
ATOM     13  C   UNL     1       3.330   3.921  19.385  0.00  0.00    +0.000 A 
ATOM     14  C   UNL     1       3.363   4.225  18.040  0.00  0.00    +0.000 A 
ATOM     15  C   UNL     1       2.017   4.081  17.627  0.00  0.00    +0.000 A 
ATOM     16  N   UNL     1       1.210   3.694  18.618  0.00  0.00    +0.000 NA
ENDBRANCH   5  14
ENDBRANCH   1   9
BRANCH   2  17
ATOM     17  C   UNL     1       8.335   9.099  18.181  0.00  0.00    +0.000 A 
ATOM     18  C   UNL     1       9.340   9.750  18.871  0.00  0.00    +0.000 A 
ATOM     19  C   UNL     1       9.258  11.102  18.459  0.00  0.00    +0.000 A 
ATOM     20  N   UNL     1       8.266  11.298  17.584  0.00  0.00    +0.000 NA
ATOM     21  N   UNL     1       7.732  10.079  17.434  0.00  0.00    +0.000 N 
ATOM     22  H   UNL     1       6.945   9.956  16.801  0.00  0.00    +0.000 HD
BRANCH  19  23
ATOM     23  C   UNL     1      10.138  12.175  18.902  0.00  0.00    +0.000 A 
ATOM     24  C   UNL     1      11.073  12.076  19.964  0.00  0.00    +0.000 A 
ATOM     25  C   UNL     1      11.675  13.310  20.059  0.00  0.00    +0.000 A 
ATOM     26  O   UNL     1      11.176  14.155  19.120  0.00  0.00    +0.000 OA
ATOM     27  C   UNL     1      10.242  13.459  18.419  0.00  0.00    +0.000 A 
ENDBRANCH  19  23
ENDBRANCH   2  17
TORSDOF 4
ENDMDL
MODEL 8
REMARK VINA RESULT:      -7.8      5.108      7.222
REMARK  Name = 
REMARK  5 active torsions:
REMARK  status: ('A' for Active; 'I' for Inactive)
REMARK    1  A    between atoms: C_1  and  N_2
REMARK    2  A    between atoms: C_4  and  C_5
REMARK    3  A    between atoms: C_9  and  N_10
REMARK    4  A    between atoms: C_11  and  C_13
REMARK    5  A    between atoms: C_15  and  C_16
REMARK                            x       y       z     vdW  Elec       q    Type
REMARK                         _______ _______ _______ _____ _____    ______ ____
ROOT
ATOM      1  N   UNL     1       4.285   7.146  17.732  0.00  0.00    +0.000 N 
ATOM      2  C   UNL     1       3.122   6.795  18.391  0.00  0.00    +0.000 C 
ATOM      3  O   UNL     1       2.832   5.663  18.762  0.00  0.00    +0.000 OA
ATOM      4  H   UNL     1       4.460   8.131  17.594  0.00  0.00    +0.000 HD
ENDROOT
BRANCH   1   9
ATOM      5  C   UNL     1       6.405   4.943  15.617  0.00  0.00    +0.000 A 
ATOM      6  C   UNL     1       7.434   4.615  16.508  0.00  0.00    +0.000 A 
ATOM      7  C   UNL     1       7.401   5.078  17.821  0.00  0.00    +0.000 A 
ATOM      8  C   UNL     1       6.355   5.894  18.249  0.00  0.00    +0.000 A 
ATOM      9  C   UNL     1       5.332   6.264  17.374  0.00  0.00    +0.000 A 
ATOM     10  C   UNL     1       5.346   5.753  16.067  0.00  0.00    +0.000 A 
BRANCH   5  14
ATOM     11  C   UNL     1       5.401   2.469  11.429  0.00  0.00    +0.000 C 
ATOM     12  N   UNL     1       5.978   3.365  12.401  0.00  0.00    +0.000 N 
ATOM     13  C   UNL     1       5.568   3.555  13.690  0.00  0.00    +0.000 A 
ATOM     14  C   UNL     1       6.457   4.449  14.252  0.00  0.00    +0.000 A 
ATOM     15  C   UNL     1       7.342   4.757  13.191  0.00  0.00    +0.000 A 
ATOM     16  N   UNL     1       7.054   4.097  12.067  0.00  0.00    +0.000 NA
ENDBRANCH   5  14
ENDBRANCH   1   9
BRANCH   2  17
ATOM     17  C   UNL     1       2.219   7.881  18.688  0.00  0.00    +0.000 A 
ATOM     18  C   UNL     1       1.568   8.849  17.948  0.00  0.00    +0.000 A 
ATOM     19  C   UNL     1       0.816   9.594  18.889  0.00  0.00    +0.000 A 
ATOM     20  N   UNL     1       0.988   9.141  20.134  0.00  0.00    +0.000 NA
ATOM     21  N   UNL     1       1.832   8.112  19.984  0.00  0.00    +0.000 N 
ATOM     22  H   UNL     1       2.123   7.585  20.804  0.00  0.00    +0.000 HD
BRANCH  19  23
ATOM     23  C   UNL     1      -0.061  10.714  18.573  0.00  0.00    +0.000 A 
ATOM     24  C   UNL     1      -1.352  10.601  17.997  0.00  0.00    +0.000 A 
ATOM     25  C   UNL     1      -1.818  11.887  17.850  0.00  0.00    +0.000 A 
ATOM     26  O   UNL     1      -0.901  12.780  18.304  0.00  0.00    +0.000 OA
ATOM     27  C   UNL     1       0.166  12.060  18.743  0.00  0.00    +0.000 A 
ENDBRANCH  19  23
ENDBRANCH   2  17
TORSDOF 4
ENDMDL
MODEL 9
REMARK VINA RESULT:      -7.6      5.259      7.599
REMARK  Name = 
REMARK  5 active torsions:
REMARK  status: ('A' for Active; 'I' for Inactive)
REMARK    1  A    between atoms: C_1  and  N_2
REMARK    2  A    between atoms: C_4  and  C_5
REMARK    3  A    between atoms: C_9  and  N_10
REMARK    4  A    between atoms: C_11  and  C_13
REMARK    5  A    between atoms: C_15  and  C_16
REMARK                            x       y       z     vdW  Elec       q    Type
REMARK                         _______ _______ _______ _____ _____    ______ ____
ROOT
ATOM      1  N   UNL     1       2.286   6.972  18.921  0.00  0.00    +0.000 N 
ATOM      2  C   UNL     1       2.173   8.189  18.275  0.00  0.00    +0.000 C 
ATOM      3  O   UNL     1       2.519   8.413  17.121  0.00  0.00    +0.000 OA
ATOM      4  H   UNL     1       1.848   6.886  19.827  0.00  0.00    +0.000 HD
ENDROOT
BRANCH   1   9
ATOM      5  C   UNL     1       4.495   4.766  16.903  0.00  0.00    +0.000 A 
ATOM      6  C   UNL     1       4.050   3.499  17.296  0.00  0.00    +0.000 A 
ATOM      7  C   UNL     1       2.987   3.372  18.187  0.00  0.00    +0.000 A 
ATOM      8  C   UNL     1       2.376   4.509  18.714  0.00  0.00    +0.000 A 
ATOM      9  C   UNL     1       2.820   5.786  18.364  0.00  0.00    +0.000 A 
ATOM     10  C   UNL     1       3.859   5.906  17.429  0.00  0.00    +0.000 A 
BRANCH   5  14
ATOM     11  C   UNL     1       7.283   4.526  12.799  0.00  0.00    +0.000 C 
ATOM     12  N   UNL     1       6.812   4.788  14.136  0.00  0.00    +0.000 N 
ATOM     13  C   UNL     1       5.570   4.520  14.639  0.00  0.00    +0.000 A 
ATOM     14  C   UNL     1       5.605   4.877  15.971  0.00  0.00    +0.000 A 
ATOM     15  C   UNL     1       6.914   5.385  16.151  0.00  0.00    +0.000 A 
ATOM     16  N   UNL     1       7.649   5.328  15.038  0.00  0.00    +0.000 NA
ENDBRANCH   5  14
ENDBRANCH   1   9
BRANCH   2  17
ATOM     17  C   UNL     1       1.552   9.246  19.037  0.00  0.00    +0.000 A 
ATOM     18  C   UNL     1       0.874   9.324  20.239  0.00  0.00    +0.000 A 
ATOM     19  C   UNL     1       0.547  10.693  20.393  0.00  0.00    +0.000 A 
ATOM     20  N   UNL     1       0.974  11.427  19.361  0.00  0.00    +0.000 NA
ATOM     21  N   UNL     1       1.575  10.534  18.564  0.00  0.00    +0.000 N 
ATOM     22  H   UNL     1       1.996  10.849  17.693  0.00  0.00    +0.000 HD
BRANCH  19  23
ATOM     23  C   UNL     1      -0.154  11.271  21.532  0.00  0.00    +0.000 A 
ATOM     24  C   UNL     1      -0.457  12.648  21.690  0.00  0.00    +0.000 A 
ATOM     25  C   UNL     1      -1.100  12.761  22.900  0.00  0.00    +0.000 A 
ATOM     26  O   UNL     1      -1.219  11.544  23.491  0.00  0.00    +0.000 OA
ATOM     27  C   UNL     1      -0.642  10.642  22.653  0.00  0.00    +0.000 A 
ENDBRANCH  19  23
ENDBRANCH   2  17
TORSDOF 4
ENDMDL
