MODEL 1
REMARK VINA RESULT:      -8.7      0.000      0.000
REMARK  Name = 
REMARK  4 active torsions:
REMARK  status: ('A' for Active; 'I' for Inactive)
REMARK    1  A    between atoms: C_1  and  S_2
REMARK    2  A    between atoms: S_2  and  C_5
REMARK    3  A    between atoms: C_9  and  C_10
REMARK    4  A    between atoms: N_12  and  C_13
REMARK                            x       y       z     vdW  Elec       q    Type
REMARK                         _______ _______ _______ _____ _____    ______ ____
ROOT
ATOM      1  C   UNL     1       0.745   9.515  19.973  0.00  0.00    +0.000 A 
ATOM      2  C   UNL     1       1.147  10.194  21.114  0.00  0.00    +0.000 A 
ATOM      3  C   UNL     1       0.382  11.256  21.597  0.00  0.00    +0.000 A 
ATOM      4  C   UNL     1      -0.777  11.662  20.937  0.00  0.00    +0.000 A 
ATOM      5  N   UNL     1      -1.524  12.702  21.478  0.00  0.00    +0.000 N 
ATOM      6  C   UNL     1      -2.386  13.503  20.594  0.00  0.00    +0.000 C 
ATOM      7  C   UNL     1      -3.874  13.112  20.649  0.00  0.00    +0.000 C 
ATOM      8  C   UNL     1      -4.312  12.942  22.071  0.00  0.00    +0.000 A 
ATOM      9  S   UNL     1      -5.934  13.047  22.565  0.00  0.00    +0.000 S 
ATOM     10  C   UNL     1      -5.510  12.709  24.190  0.00  0.00    +0.000 A 
ATOM     11  C   UNL     1      -4.152  12.522  24.345  0.00  0.00    +0.000 A 
ATOM     12  C   UNL     1      -3.448  12.666  23.110  0.00  0.00    +0.000 A 
ATOM     13  C   UNL     1      -1.963  12.545  22.880  0.00  0.00    +0.000 C 
ATOM     14  N   UNL     1      -1.136  11.074  19.776  0.00  0.00    +0.000 NA
ATOM     15  C   UNL     1      -0.385  10.024  19.333  0.00  0.00    +0.000 A 
ENDROOT
BRANCH   1  18
ATOM     16  C   UNL     1       2.111   8.307  18.278  0.00  0.00    +0.000 C 
ATOM     17  O   UNL     1       2.252   9.219  17.470  0.00  0.00    +0.000 OA
ATOM     18  N   UNL     1       1.412   8.364  19.476  0.00  0.00    +0.000 N 
ATOM     19  H   UNL     1       1.524   7.594  20.124  0.00  0.00    +0.000 HD
BRANCH  16  24
ATOM     20  C   UNL     1       4.818   5.948  17.140  0.00  0.00    +0.000 A 
ATOM     21  C   UNL     1       4.230   4.697  17.337  0.00  0.00    +0.000 A 
ATOM     22  C   UNL     1       2.924   4.619  17.832  0.00  0.00    +0.000 A 
ATOM     23  C   UNL     1       2.216   5.782  18.149  0.00  0.00    +0.000 A 
ATOM     24  C   UNL     1       2.819   7.033  17.976  0.00  0.00    +0.000 A 
ATOM     25  C   UNL     1       4.122   7.117  17.458  0.00  0.00    +0.000 A 
BRANCH  20  27
ATOM     26  C   UNL     1       7.372   4.788  17.447  0.00  0.00    +0.000 C 
ATOM     27  S   UNL     1       6.496   6.058  16.563  0.00  0.00    +0.000 S 
ATOM     28  O   UNL     1       7.026   7.332  17.003  0.00  0.00    +0.000 OA
ATOM     29  O   UNL     1       6.475   5.707  15.155  0.00  0.00    +0.000 OA
ENDBRANCH  20  27
ENDBRANCH  16  24
ENDBRANCH   1  18
TORSDOF 3
ENDMDL
MODEL 2
REMARK VINA RESULT:      -8.5      2.078      2.556
REMARK  Name = 
REMARK  4 active torsions:
REMARK  status: ('A' for Active; 'I' for Inactive)
REMARK    1  A    between atoms: C_1  and  S_2
REMARK    2  A    between atoms: S_2  and  C_5
REMARK    3  A    between atoms: C_9  and  C_10
REMARK    4  A    between atoms: N_12  and  C_13
REMARK                            x       y       z     vdW  Elec       q    Type
REMARK                         _______ _______ _______ _____ _____    ______ ____
ROOT
ATOM      1  C   UNL     1       0.723   9.617  19.966  0.00  0.00    +0.000 A 
ATOM      2  C   UNL     1       1.122  10.323  21.092  0.00  0.00    +0.000 A 
ATOM      3  C   UNL     1       0.330  11.365  21.574  0.00  0.00    +0.000 A 
ATOM      4  C   UNL     1      -0.853  11.723  20.930  0.00  0.00    +0.000 A 
ATOM      5  N   UNL     1      -1.626  12.744  21.471  0.00  0.00    +0.000 N 
ATOM      6  C   UNL     1      -2.529  13.504  20.593  0.00  0.00    +0.000 C 
ATOM      7  C   UNL     1      -4.002  13.065  20.679  0.00  0.00    +0.000 C 
ATOM      8  C   UNL     1      -4.410  12.898  22.111  0.00  0.00    +0.000 A 
ATOM      9  S   UNL     1      -6.026  12.955  22.632  0.00  0.00    +0.000 S 
ATOM     10  C   UNL     1      -5.562  12.652  24.254  0.00  0.00    +0.000 A 
ATOM     11  C   UNL     1      -4.196  12.513  24.387  0.00  0.00    +0.000 A 
ATOM     12  C   UNL     1      -3.519  12.665  23.138  0.00  0.00    +0.000 A 
ATOM     13  C   UNL     1      -2.035  12.591  22.883  0.00  0.00    +0.000 C 
ATOM     14  N   UNL     1      -1.212  11.109  19.783  0.00  0.00    +0.000 NA
ATOM     15  C   UNL     1      -0.434  10.079  19.340  0.00  0.00    +0.000 A 
ENDROOT
BRANCH   1  18
ATOM     16  C   UNL     1       2.110   8.437  18.268  0.00  0.00    +0.000 C 
ATOM     17  O   UNL     1       2.217   9.346  17.451  0.00  0.00    +0.000 OA
ATOM     18  N   UNL     1       1.421   8.483  19.471  0.00  0.00    +0.000 N 
ATOM     19  H   UNL     1       1.561   7.721  20.125  0.00  0.00    +0.000 HD
BRANCH  16  24
ATOM     20  C   UNL     1       2.977   4.773  18.182  0.00  0.00    +0.000 A 
ATOM     21  C   UNL     1       4.191   4.767  17.492  0.00  0.00    +0.000 A 
ATOM     22  C   UNL     1       4.747   5.976  17.062  0.00  0.00    +0.000 A 
ATOM     23  C   UNL     1       4.084   7.184  17.300  0.00  0.00    +0.000 A 
ATOM     24  C   UNL     1       2.854   7.183  17.968  0.00  0.00    +0.000 A 
ATOM     25  C   UNL     1       2.304   5.973  18.422  0.00  0.00    +0.000 A 
BRANCH  20  27
ATOM     26  C   UNL     1       3.315   1.975  18.051  0.00  0.00    +0.000 C 
ATOM     27  S   UNL     1       2.236   3.237  18.686  0.00  0.00    +0.000 S 
ATOM     28  O   UNL     1       0.973   3.113  17.988  0.00  0.00    +0.000 OA
ATOM     29  O   UNL     1       2.293   3.205  20.135  0.00  0.00    +0.000 OA
ENDBRANCH  20  27
ENDBRANCH  16  24
ENDBRANCH   1  18
TORSDOF 3
ENDMDL
MODEL 3
REMARK VINA RESULT:      -8.5      2.067      2.564
REMARK  Name = 
REMARK  4 active torsions:
REMARK  status: ('A' for Active; 'I' for Inactive)
REMARK    1  A    between atoms: C_1  and  S_2
REMARK    2  A    between atoms: S_2  and  C_5
REMARK    3  A    between atoms: C_9  and  C_10
REMARK    4  A    between atoms: N_12  and  C_13
REMARK                            x       y       z     vdW  Elec       q    Type
REMARK                         _______ _______ _______ _____ _____    ______ ____
ROOT
ATOM      1  C   UNL     1       0.595   9.761  20.046  0.00  0.00    +0.000 A 
ATOM      2  C   UNL     1       0.970  10.471  21.177  0.00  0.00    +0.000 A 
ATOM      3  C   UNL     1       0.158  11.502  21.651  0.00  0.00    +0.000 A 
ATOM      4  C   UNL     1      -1.022  11.844  20.993  0.00  0.00    +0.000 A 
ATOM      5  N   UNL     1      -1.814  12.854  21.526  0.00  0.00    +0.000 N 
ATOM      6  C   UNL     1      -2.718  13.603  20.638  0.00  0.00    +0.000 C 
ATOM      7  C   UNL     1      -4.185  13.143  20.705  0.00  0.00    +0.000 C 
ATOM      8  C   UNL     1      -4.608  12.969  22.132  0.00  0.00    +0.000 A 
ATOM      9  S   UNL     1      -6.231  13.003  22.633  0.00  0.00    +0.000 S 
ATOM     10  C   UNL     1      -5.783  12.704  24.260  0.00  0.00    +0.000 A 
ATOM     11  C   UNL     1      -4.417  12.583  24.410  0.00  0.00    +0.000 A 
ATOM     12  C   UNL     1      -3.727  12.746  23.169  0.00  0.00    +0.000 A 
ATOM     13  C   UNL     1      -2.239  12.693  22.933  0.00  0.00    +0.000 C 
ATOM     14  N   UNL     1      -1.358  11.227  19.841  0.00  0.00    +0.000 NA
ATOM     15  C   UNL     1      -0.561  10.208  19.406  0.00  0.00    +0.000 A 
ENDROOT
BRANCH   1  18
ATOM     16  C   UNL     1       2.005   8.598  18.355  0.00  0.00    +0.000 C 
ATOM     17  O   UNL     1       2.096   9.504  17.534  0.00  0.00    +0.000 OA
ATOM     18  N   UNL     1       1.314   8.637  19.558  0.00  0.00    +0.000 N 
ATOM     19  H   UNL     1       1.468   7.882  20.216  0.00  0.00    +0.000 HD
BRANCH  16  24
ATOM     20  C   UNL     1       2.968   4.956  18.335  0.00  0.00    +0.000 A 
ATOM     21  C   UNL     1       4.158   4.964  17.605  0.00  0.00    +0.000 A 
ATOM     22  C   UNL     1       4.666   6.175  17.126  0.00  0.00    +0.000 A 
ATOM     23  C   UNL     1       3.979   7.371  17.355  0.00  0.00    +0.000 A 
ATOM     24  C   UNL     1       2.772   7.356  18.064  0.00  0.00    +0.000 A 
ATOM     25  C   UNL     1       2.270   6.145  18.567  0.00  0.00    +0.000 A 
BRANCH  20  27
ATOM     26  C   UNL     1       1.154   3.865  20.201  0.00  0.00    +0.000 C 
ATOM     27  S   UNL     1       2.285   3.416  18.904  0.00  0.00    +0.000 S 
ATOM     28  O   UNL     1       3.360   2.661  19.514  0.00  0.00    +0.000 OA
ATOM     29  O   UNL     1       1.523   2.867  17.799  0.00  0.00    +0.000 OA
ENDBRANCH  20  27
ENDBRANCH  16  24
ENDBRANCH   1  18
TORSDOF 3
ENDMDL
MODEL 4
REMARK VINA RESULT:      -8.4      1.048      1.214
REMARK  Name = 
REMARK  4 active torsions:
REMARK  status: ('A' for Active; 'I' for Inactive)
REMARK    1  A    between atoms: C_1  and  S_2
REMARK    2  A    between atoms: S_2  and  C_5
REMARK    3  A    between atoms: C_9  and  C_10
REMARK    4  A    between atoms: N_12  and  C_13
REMARK                            x       y       z     vdW  Elec       q    Type
REMARK                         _______ _______ _______ _____ _____    ______ ____
ROOT
ATOM      1  C   UNL     1       1.180   8.746  20.312  0.00  0.00    +0.000 A 
ATOM      2  C   UNL     1       1.304   8.947  21.680  0.00  0.00    +0.000 A 
ATOM      3  C   UNL     1       0.743  10.079  22.270  0.00  0.00    +0.000 A 
ATOM      4  C   UNL     1       0.071  11.029  21.501  0.00  0.00    +0.000 A 
ATOM      5  N   UNL     1      -0.502  12.121  22.141  0.00  0.00    +0.000 N 
ATOM      6  C   UNL     1      -0.719  13.365  21.385  0.00  0.00    +0.000 C 
ATOM      7  C   UNL     1      -2.167  13.561  20.902  0.00  0.00    +0.000 C 
ATOM      8  C   UNL     1      -3.128  13.250  22.009  0.00  0.00    +0.000 A 
ATOM      9  S   UNL     1      -4.719  13.842  22.054  0.00  0.00    +0.000 S 
ATOM     10  C   UNL     1      -5.036  13.011  23.518  0.00  0.00    +0.000 A 
ATOM     11  C   UNL     1      -3.941  12.297  23.959  0.00  0.00    +0.000 A 
ATOM     12  C   UNL     1      -2.821  12.442  23.084  0.00  0.00    +0.000 A 
ATOM     13  C   UNL     1      -1.453  11.828  23.234  0.00  0.00    +0.000 C 
ATOM     14  N   UNL     1       0.017  10.898  20.158  0.00  0.00    +0.000 NA
ATOM     15  C   UNL     1       0.555   9.773  19.604  0.00  0.00    +0.000 A 
ENDROOT
BRANCH   1  18
ATOM     16  C   UNL     1       2.461   7.560  18.538  0.00  0.00    +0.000 C 
ATOM     17  O   UNL     1       2.912   8.538  17.950  0.00  0.00    +0.000 OA
ATOM     18  N   UNL     1       1.635   7.574  19.653  0.00  0.00    +0.000 N 
ATOM     19  H   UNL     1       1.482   6.697  20.137  0.00  0.00    +0.000 HD
BRANCH  16  24
ATOM     20  C   UNL     1       4.594   4.918  16.908  0.00  0.00    +0.000 A 
ATOM     21  C   UNL     1       3.812   3.770  17.051  0.00  0.00    +0.000 A 
ATOM     22  C   UNL     1       2.563   3.858  17.673  0.00  0.00    +0.000 A 
ATOM     23  C   UNL     1       2.104   5.082  18.169  0.00  0.00    +0.000 A 
ATOM     24  C   UNL     1       2.902   6.226  18.047  0.00  0.00    +0.000 A 
ATOM     25  C   UNL     1       4.148   6.146  17.403  0.00  0.00    +0.000 A 
BRANCH  20  27
ATOM     26  C   UNL     1       7.322   4.556  17.528  0.00  0.00    +0.000 C 
ATOM     27  S   UNL     1       6.206   4.807  16.166  0.00  0.00    +0.000 S 
ATOM     28  O   UNL     1       6.513   6.101  15.593  0.00  0.00    +0.000 OA
ATOM     29  O   UNL     1       6.205   3.610  15.347  0.00  0.00    +0.000 OA
ENDBRANCH  20  27
ENDBRANCH  16  24
ENDBRANCH   1  18
TORSDOF 3
ENDMDL
MODEL 5
REMARK VINA RESULT:      -8.3      2.387      2.699
REMARK  Name = 
REMARK  4 active torsions:
REMARK  status: ('A' for Active; 'I' for Inactive)
REMARK    1  A    between atoms: C_1  and  S_2
REMARK    2  A    between atoms: S_2  and  C_5
REMARK    3  A    between atoms: C_9  and  C_10
REMARK    4  A    between atoms: N_12  and  C_13
REMARK                            x       y       z     vdW  Elec       q    Type
REMARK                         _______ _______ _______ _____ _____    ______ ____
ROOT
ATOM      1  C   UNL     1       0.634  10.143  19.876  0.00  0.00    +0.000 A 
ATOM      2  C   UNL     1       0.998  10.904  20.978  0.00  0.00    +0.000 A 
ATOM      3  C   UNL     1       0.117  11.858  21.486  0.00  0.00    +0.000 A 
ATOM      4  C   UNL     1      -1.125  12.075  20.889  0.00  0.00    +0.000 A 
ATOM      5  N   UNL     1      -1.982  13.012  21.455  0.00  0.00    +0.000 N 
ATOM      6  C   UNL     1      -3.000  13.657  20.610  0.00  0.00    +0.000 C 
ATOM      7  C   UNL     1      -4.410  13.059  20.761  0.00  0.00    +0.000 C 
ATOM      8  C   UNL     1      -4.737  12.866  22.210  0.00  0.00    +0.000 A 
ATOM      9  S   UNL     1      -6.327  12.751  22.799  0.00  0.00    +0.000 S 
ATOM     10  C   UNL     1      -5.766  12.522  24.402  0.00  0.00    +0.000 A 
ATOM     11  C   UNL     1      -4.389  12.536  24.478  0.00  0.00    +0.000 A 
ATOM     12  C   UNL     1      -3.785  12.746  23.200  0.00  0.00    +0.000 A 
ATOM     13  C   UNL     1      -2.314  12.833  22.884  0.00  0.00    +0.000 C 
ATOM     14  N   UNL     1      -1.460  11.411  19.763  0.00  0.00    +0.000 NA
ATOM     15  C   UNL     1      -0.592  10.468  19.296  0.00  0.00    +0.000 A 
ENDROOT
BRANCH   1  18
ATOM     16  C   UNL     1       1.706   7.901  20.029  0.00  0.00    +0.000 C 
ATOM     17  O   UNL     1       1.319   7.587  21.149  0.00  0.00    +0.000 OA
ATOM     18  N   UNL     1       1.432   9.087  19.362  0.00  0.00    +0.000 N 
ATOM     19  H   UNL     1       1.669   9.141  18.378  0.00  0.00    +0.000 HD
BRANCH  16  24
ATOM     20  C   UNL     1       3.366   4.621  19.209  0.00  0.00    +0.000 A 
ATOM     21  C   UNL     1       3.973   4.890  17.981  0.00  0.00    +0.000 A 
ATOM     22  C   UNL     1       3.855   6.163  17.416  0.00  0.00    +0.000 A 
ATOM     23  C   UNL     1       3.118   7.160  18.064  0.00  0.00    +0.000 A 
ATOM     24  C   UNL     1       2.488   6.878  19.283  0.00  0.00    +0.000 A 
ATOM     25  C   UNL     1       2.623   5.607  19.864  0.00  0.00    +0.000 A 
BRANCH  20  27
ATOM     26  C   UNL     1       2.761   1.917  18.678  0.00  0.00    +0.000 C 
ATOM     27  S   UNL     1       3.464   2.990  19.910  0.00  0.00    +0.000 S 
ATOM     28  O   UNL     1       2.586   2.956  21.061  0.00  0.00    +0.000 OA
ATOM     29  O   UNL     1       4.875   2.678  20.040  0.00  0.00    +0.000 OA
ENDBRANCH  20  27
ENDBRANCH  16  24
ENDBRANCH   1  18
TORSDOF 3
ENDMDL
MODEL 6
REMARK VINA RESULT:      -8.3      2.663      3.151
REMARK  Name = 
REMARK  4 active torsions:
REMARK  status: ('A' for Active; 'I' for Inactive)
REMARK    1  A    between atoms: C_1  and  S_2
REMARK    2  A    between atoms: S_2  and  C_5
REMARK    3  A    between atoms: C_9  and  C_10
REMARK    4  A    between atoms: N_12  and  C_13
REMARK                            x       y       z     vdW  Elec       q    Type
REMARK                         _______ _______ _______ _____ _____    ______ ____
ROOT
ATOM      1  C   UNL     1       0.838   9.130  21.480  0.00  0.00    +0.000 A 
ATOM      2  C   UNL     1       0.001   8.930  22.569  0.00  0.00    +0.000 A 
ATOM      3  C   UNL     1      -0.715  10.002  23.102  0.00  0.00    +0.000 A 
ATOM      4  C   UNL     1      -0.589  11.283  22.567  0.00  0.00    +0.000 A 
ATOM      5  N   UNL     1      -1.351  12.311  23.110  0.00  0.00    +0.000 N 
ATOM      6  C   UNL     1      -0.881  13.699  22.981  0.00  0.00    +0.000 C 
ATOM      7  C   UNL     1      -1.574  14.494  21.859  0.00  0.00    +0.000 C 
ATOM      8  C   UNL     1      -3.054  14.267  21.903  0.00  0.00    +0.000 A 
ATOM      9  S   UNL     1      -4.181  15.338  21.218  0.00  0.00    +0.000 S 
ATOM     10  C   UNL     1      -5.488  14.331  21.678  0.00  0.00    +0.000 A 
ATOM     11  C   UNL     1      -5.064  13.199  22.343  0.00  0.00    +0.000 A 
ATOM     12  C   UNL     1      -3.642  13.163  22.484  0.00  0.00    +0.000 A 
ATOM     13  C   UNL     1      -2.813  12.101  23.158  0.00  0.00    +0.000 C 
ATOM     14  N   UNL     1       0.287  11.516  21.567  0.00  0.00    +0.000 NA
ATOM     15  C   UNL     1       0.962  10.450  21.048  0.00  0.00    +0.000 A 
ENDROOT
BRANCH   1  18
ATOM     16  C   UNL     1       1.806   8.040  19.462  0.00  0.00    +0.000 C 
ATOM     17  O   UNL     1       1.509   8.891  18.631  0.00  0.00    +0.000 OA
ATOM     18  N   UNL     1       1.522   8.075  20.820  0.00  0.00    +0.000 N 
ATOM     19  H   UNL     1       1.977   7.392  21.415  0.00  0.00    +0.000 HD
BRANCH  16  24
ATOM     20  C   UNL     1       3.214   4.554  19.229  0.00  0.00    +0.000 A 
ATOM     21  C   UNL     1       4.113   4.663  18.166  0.00  0.00    +0.000 A 
ATOM     22  C   UNL     1       4.277   5.894  17.524  0.00  0.00    +0.000 A 
ATOM     23  C   UNL     1       3.533   7.008  17.928  0.00  0.00    +0.000 A 
ATOM     24  C   UNL     1       2.613   6.888  18.976  0.00  0.00    +0.000 A 
ATOM     25  C   UNL     1       2.462   5.658  19.638  0.00  0.00    +0.000 A 
BRANCH  20  27
ATOM     26  C   UNL     1       2.273   3.370  21.611  0.00  0.00    +0.000 C 
ATOM     27  S   UNL     1       2.959   2.981  20.018  0.00  0.00    +0.000 S 
ATOM     28  O   UNL     1       4.261   2.389  20.243  0.00  0.00    +0.000 OA
ATOM     29  O   UNL     1       1.950   2.286  19.241  0.00  0.00    +0.000 OA
ENDBRANCH  20  27
ENDBRANCH  16  24
ENDBRANCH   1  18
TORSDOF 3
ENDMDL
MODEL 7
REMARK VINA RESULT:      -8.3      1.921      2.287
REMARK  Name = 
REMARK  4 active torsions:
REMARK  status: ('A' for Active; 'I' for Inactive)
REMARK    1  A    between atoms: C_1  and  S_2
REMARK    2  A    between atoms: S_2  and  C_5
REMARK    3  A    between atoms: C_9  and  C_10
REMARK    4  A    between atoms: N_12  and  C_13
REMARK                            x       y       z     vdW  Elec       q    Type
REMARK                         _______ _______ _______ _____ _____    ______ ____
ROOT
ATOM      1  C   UNL     1       1.598   9.544  18.040  0.00  0.00    +0.000 A 
ATOM      2  C   UNL     1       2.212  10.779  18.185  0.00  0.00    +0.000 A 
ATOM      3  C   UNL     1       1.473  11.875  18.632  0.00  0.00    +0.000 A 
ATOM      4  C   UNL     1       0.115  11.752  18.920  0.00  0.00    +0.000 A 
ATOM      5  N   UNL     1      -0.569  12.865  19.397  0.00  0.00    +0.000 N 
ATOM      6  C   UNL     1      -2.024  12.955  19.196  0.00  0.00    +0.000 C 
ATOM      7  C   UNL     1      -2.853  12.574  20.435  0.00  0.00    +0.000 C 
ATOM      8  C   UNL     1      -2.284  13.226  21.658  0.00  0.00    +0.000 A 
ATOM      9  S   UNL     1      -3.183  13.493  23.075  0.00  0.00    +0.000 S 
ATOM     10  C   UNL     1      -1.824  14.179  23.863  0.00  0.00    +0.000 A 
ATOM     11  C   UNL     1      -0.709  14.202  23.052  0.00  0.00    +0.000 A 
ATOM     12  C   UNL     1      -0.976  13.653  21.760  0.00  0.00    +0.000 A 
ATOM     13  C   UNL     1      -0.018  13.516  20.604  0.00  0.00    +0.000 C 
ATOM     14  N   UNL     1      -0.521  10.582  18.700  0.00  0.00    +0.000 NA
ATOM     15  C   UNL     1       0.224   9.519  18.282  0.00  0.00    +0.000 A 
ENDROOT
BRANCH   1  18
ATOM     16  C   UNL     1       2.599   7.324  18.558  0.00  0.00    +0.000 C 
ATOM     17  O   UNL     1       2.318   7.267  19.751  0.00  0.00    +0.000 OA
ATOM     18  N   UNL     1       2.301   8.362  17.686  0.00  0.00    +0.000 N 
ATOM     19  H   UNL     1       2.438   8.200  16.696  0.00  0.00    +0.000 HD
BRANCH  16  24
ATOM     20  C   UNL     1       5.231   5.190  16.913  0.00  0.00    +0.000 A 
ATOM     21  C   UNL     1       4.598   3.950  16.819  0.00  0.00    +0.000 A 
ATOM     22  C   UNL     1       3.286   3.808  17.283  0.00  0.00    +0.000 A 
ATOM     23  C   UNL     1       2.617   4.893  17.857  0.00  0.00    +0.000 A 
ATOM     24  C   UNL     1       3.265   6.128  17.974  0.00  0.00    +0.000 A 
ATOM     25  C   UNL     1       4.574   6.281  17.488  0.00  0.00    +0.000 A 
BRANCH  20  27
ATOM     26  C   UNL     1       6.924   4.806  14.689  0.00  0.00    +0.000 C 
ATOM     27  S   UNL     1       6.917   5.369  16.375  0.00  0.00    +0.000 S 
ATOM     28  O   UNL     1       7.720   4.438  17.142  0.00  0.00    +0.000 OA
ATOM     29  O   UNL     1       7.209   6.790  16.387  0.00  0.00    +0.000 OA
ENDBRANCH  20  27
ENDBRANCH  16  24
ENDBRANCH   1  18
TORSDOF 3
ENDMDL
MODEL 8
REMARK VINA RESULT:      -8.3      9.031     10.438
REMARK  Name = 
REMARK  4 active torsions:
REMARK  status: ('A' for Active; 'I' for Inactive)
REMARK    1  A    between atoms: C_1  and  S_2
REMARK    2  A    between atoms: S_2  and  C_5
REMARK    3  A    between atoms: C_9  and  C_10
REMARK    4  A    between atoms: N_12  and  C_13
REMARK                            x       y       z     vdW  Elec       q    Type
REMARK                         _______ _______ _______ _____ _____    ______ ____
ROOT
ATOM      1  C   UNL     1       9.711  10.490  19.535  0.00  0.00    +0.000 A 
ATOM      2  C   UNL     1       9.473  11.203  20.701  0.00  0.00    +0.000 A 
ATOM      3  C   UNL     1       9.962  12.502  20.834  0.00  0.00    +0.000 A 
ATOM      4  C   UNL     1      10.707  13.094  19.815  0.00  0.00    +0.000 A 
ATOM      5  N   UNL     1      11.141  14.404  19.980  0.00  0.00    +0.000 N 
ATOM      6  C   UNL     1      12.330  14.866  19.246  0.00  0.00    +0.000 C 
ATOM      7  C   UNL     1      12.008  15.692  17.988  0.00  0.00    +0.000 C 
ATOM      8  C   UNL     1      10.949  16.706  18.293  0.00  0.00    +0.000 A 
ATOM      9  S   UNL     1      10.713  18.113  17.371  0.00  0.00    +0.000 S 
ATOM     10  C   UNL     1       9.389  18.589  18.349  0.00  0.00    +0.000 A 
ATOM     11  C   UNL     1       9.139  17.686  19.361  0.00  0.00    +0.000 A 
ATOM     12  C   UNL     1      10.054  16.589  19.336  0.00  0.00    +0.000 A 
ATOM     13  C   UNL     1      10.106  15.415  20.281  0.00  0.00    +0.000 C 
ATOM     14  N   UNL     1      11.027  12.386  18.711  0.00  0.00    +0.000 NA
ATOM     15  C   UNL     1      10.522  11.124  18.593  0.00  0.00    +0.000 A 
ENDROOT
BRANCH   1  18
ATOM     16  C   UNL     1       8.225   8.917  18.303  0.00  0.00    +0.000 C 
ATOM     17  O   UNL     1       7.720   9.715  17.520  0.00  0.00    +0.000 OA
ATOM     18  N   UNL     1       9.165   9.203  19.284  0.00  0.00    +0.000 N 
ATOM     19  H   UNL     1       9.624   8.423  19.740  0.00  0.00    +0.000 HD
BRANCH  16  24
ATOM     20  C   UNL     1       6.655   5.821  16.842  0.00  0.00    +0.000 A 
ATOM     21  C   UNL     1       7.039   4.832  17.750  0.00  0.00    +0.000 A 
ATOM     22  C   UNL     1       7.807   5.179  18.865  0.00  0.00    +0.000 A 
ATOM     23  C   UNL     1       8.209   6.504  19.064  0.00  0.00    +0.000 A 
ATOM     24  C   UNL     1       7.844   7.488  18.137  0.00  0.00    +0.000 A 
ATOM     25  C   UNL     1       7.053   7.147  17.028  0.00  0.00    +0.000 A 
BRANCH  20  27
ATOM     26  C   UNL     1       6.927   4.757  14.243  0.00  0.00    +0.000 C 
ATOM     27  S   UNL     1       5.723   5.382  15.393  0.00  0.00    +0.000 S 
ATOM     28  O   UNL     1       5.188   6.605  14.831  0.00  0.00    +0.000 OA
ATOM     29  O   UNL     1       4.846   4.293  15.777  0.00  0.00    +0.000 OA
ENDBRANCH  20  27
ENDBRANCH  16  24
ENDBRANCH   1  18
TORSDOF 3
ENDMDL
MODEL 9
REMARK VINA RESULT:      -8.2      2.366      2.923
REMARK  Name = 
REMARK  4 active torsions:
REMARK  status: ('A' for Active; 'I' for Inactive)
REMARK    1  A    between atoms: C_1  and  S_2
REMARK    2  A    between atoms: S_2  and  C_5
REMARK    3  A    between atoms: C_9  and  C_10
REMARK    4  A    between atoms: N_12  and  C_13
REMARK                            x       y       z     vdW  Elec       q    Type
REMARK                         _______ _______ _______ _____ _____    ______ ____
ROOT
ATOM      1  C   UNL     1       0.866   9.271  21.160  0.00  0.00    +0.000 A 
ATOM      2  C   UNL     1       0.083   8.968  22.264  0.00  0.00    +0.000 A 
ATOM      3  C   UNL     1      -0.635   9.977  22.905  0.00  0.00    +0.000 A 
ATOM      4  C   UNL     1      -0.565  11.298  22.462  0.00  0.00    +0.000 A 
ATOM      5  N   UNL     1      -1.328  12.261  23.112  0.00  0.00    +0.000 N 
ATOM      6  C   UNL     1      -0.900  13.668  23.068  0.00  0.00    +0.000 C 
ATOM      7  C   UNL     1      -1.660  14.522  22.038  0.00  0.00    +0.000 C 
ATOM      8  C   UNL     1      -3.131  14.252  22.126  0.00  0.00    +0.000 A 
ATOM      9  S   UNL     1      -4.313  15.338  21.571  0.00  0.00    +0.000 S 
ATOM     10  C   UNL     1      -5.573  14.262  22.008  0.00  0.00    +0.000 A 
ATOM     11  C   UNL     1      -5.092  13.098  22.569  0.00  0.00    +0.000 A 
ATOM     12  C   UNL     1      -3.665  13.092  22.648  0.00  0.00    +0.000 A 
ATOM     13  C   UNL     1      -2.781  12.006  23.205  0.00  0.00    +0.000 C 
ATOM     14  N   UNL     1       0.261  11.628  21.447  0.00  0.00    +0.000 NA
ATOM     15  C   UNL     1       0.939  10.623  20.822  0.00  0.00    +0.000 A 
ENDROOT
BRANCH   1  18
ATOM     16  C   UNL     1       1.736   8.340  19.021  0.00  0.00    +0.000 C 
ATOM     17  O   UNL     1       1.344   9.221  18.262  0.00  0.00    +0.000 OA
ATOM     18  N   UNL     1       1.548   8.288  20.395  0.00  0.00    +0.000 N 
ATOM     19  H   UNL     1       2.073   7.596  20.917  0.00  0.00    +0.000 HD
BRANCH  16  24
ATOM     20  C   UNL     1       2.970   4.879  18.194  0.00  0.00    +0.000 A 
ATOM     21  C   UNL     1       4.058   5.139  17.358  0.00  0.00    +0.000 A 
ATOM     22  C   UNL     1       4.408   6.462  17.072  0.00  0.00    +0.000 A 
ATOM     23  C   UNL     1       3.663   7.521  17.600  0.00  0.00    +0.000 A 
ATOM     24  C   UNL     1       2.556   7.256  18.415  0.00  0.00    +0.000 A 
ATOM     25  C   UNL     1       2.216   5.929  18.723  0.00  0.00    +0.000 A 
BRANCH  20  27
ATOM     26  C   UNL     1       3.928   2.430  19.217  0.00  0.00    +0.000 C 
ATOM     27  S   UNL     1       2.484   3.200  18.522  0.00  0.00    +0.000 S 
ATOM     28  O   UNL     1       2.230   2.563  17.246  0.00  0.00    +0.000 OA
ATOM     29  O   UNL     1       1.456   3.257  19.544  0.00  0.00    +0.000 OA
ENDBRANCH  20  27
ENDBRANCH  16  24
ENDBRANCH   1  18
TORSDOF 3
ENDMDL
