MODEL 1
REMARK VINA RESULT:      -8.4      0.000      0.000
REMARK  Name = 
REMARK  8 active torsions:
REMARK  status: ('A' for Active; 'I' for Inactive)
REMARK    1  A    between atoms: C_1  and  N_2
REMARK    2  A    between atoms: C_6  and  C_7
REMARK    3  A    between atoms: C_7  and  N_8
REMARK    4  A    between atoms: C_7  and  C_24
REMARK    5  A    between atoms: C_9  and  C_11
REMARK    6  A    between atoms: C_15  and  S_16
REMARK    7  A    between atoms: S_16  and  N_19
REMARK    8  A    between atoms: N_19  and  C_20
REMARK                            x       y       z     vdW  Elec       q    Type
REMARK                         _______ _______ _______ _____ _____    ______ ____
ROOT
ATOM      1  N   UNL     1       2.114   6.998  18.906  0.00  0.00    +0.000 N 
ATOM      2  C   UNL     1       1.909   8.247  18.377  0.00  0.00    +0.000 C 
ATOM      3  O   UNL     1       2.233   8.567  17.238  0.00  0.00    +0.000 OA
ATOM      4  H   UNL     1       1.672   6.714  19.771  0.00  0.00    +0.000 HD
ENDROOT
BRANCH   2   5
ATOM      5  C   UNL     1       1.180   9.212  19.250  0.00  0.00    +0.000 A 
ATOM      6  C   UNL     1       1.374   9.156  20.639  0.00  0.00    +0.000 A 
ATOM      7  C   UNL     1       0.792  10.115  21.474  0.00  0.00    +0.000 A 
ATOM      8  C   UNL     1       0.030  11.146  20.927  0.00  0.00    +0.000 A 
ATOM      9  C   UNL     1      -0.175  11.183  19.545  0.00  0.00    +0.000 A 
ATOM     10  C   UNL     1       0.360  10.205  18.708  0.00  0.00    +0.000 A 
BRANCH   9  11
ATOM     11  S   UNL     1      -0.995  12.571  18.803  0.00  0.00    +0.000 S 
ATOM     12  O   UNL     1      -2.245  12.763  19.494  0.00  0.00    +0.000 OA
ATOM     13  O   UNL     1      -0.034  13.647  18.641  0.00  0.00    +0.000 OA
BRANCH  11  14
ATOM     14  N   UNL     1      -1.360  11.970  17.261  0.00  0.00    +0.000 NA
ATOM     15  H   UNL     1      -0.549  11.565  16.797  0.00  0.00    +0.000 HD
BRANCH  14  16
ATOM     16  C   UNL     1      -2.677  11.377  17.056  0.00  0.00    +0.000 C 
ATOM     17  C   UNL     1      -2.890   9.892  17.137  0.00  0.00    +0.000 C 
ATOM     18  C   UNL     1      -2.958  10.582  15.809  0.00  0.00    +0.000 C 
ENDBRANCH  14  16
ENDBRANCH  11  14
ENDBRANCH   9  11
ENDBRANCH   2   5
BRANCH   1  19
ATOM     19  C   UNL     1       2.724   5.902  18.176  0.00  0.00    +0.000 C 
BRANCH  19  20
ATOM     20  C   UNL     1       4.247   5.998  18.226  0.00  0.00    +0.000 A 
ATOM     21  C   UNL     1       4.933   5.329  19.260  0.00  0.00    +0.000 A 
ATOM     22  C   UNL     1       6.320   5.418  19.382  0.00  0.00    +0.000 A 
ATOM     23  C   UNL     1       7.038   6.169  18.464  0.00  0.00    +0.000 A 
ATOM     24  F   UNL     1       8.365   6.287  18.601  0.00  0.00    +0.000 F 
ATOM     25  C   UNL     1       6.398   6.799  17.404  0.00  0.00    +0.000 A 
ATOM     26  C   UNL     1       5.008   6.702  17.275  0.00  0.00    +0.000 A 
ENDBRANCH  19  20
BRANCH  19  32
ATOM     27  C   UNL     1       2.825   3.029  16.947  0.00  0.00    +0.000 C 
ATOM     28  N   UNL     1       2.212   3.384  18.204  0.00  0.00    +0.000 N 
ATOM     29  C   UNL     1       1.552   2.507  19.022  0.00  0.00    +0.000 A 
ATOM     30  C   UNL     1       1.104   3.261  20.077  0.00  0.00    +0.000 A 
ATOM     31  N   UNL     1       1.469   4.571  19.923  0.00  0.00    +0.000 NA
ATOM     32  C   UNL     1       2.149   4.633  18.784  0.00  0.00    +0.000 A 
ENDBRANCH  19  32
ENDBRANCH   1  19
TORSDOF 7
ENDMDL
MODEL 2
REMARK VINA RESULT:      -8.3      0.636      1.172
REMARK  Name = 
REMARK  8 active torsions:
REMARK  status: ('A' for Active; 'I' for Inactive)
REMARK    1  A    between atoms: C_1  and  N_2
REMARK    2  A    between atoms: C_6  and  C_7
REMARK    3  A    between atoms: C_7  and  N_8
REMARK    4  A    between atoms: C_7  and  C_24
REMARK    5  A    between atoms: C_9  and  C_11
REMARK    6  A    between atoms: C_15  and  S_16
REMARK    7  A    between atoms: S_16  and  N_19
REMARK    8  A    between atoms: N_19  and  C_20
REMARK                            x       y       z     vdW  Elec       q    Type
REMARK                         _______ _______ _______ _____ _____    ______ ____
ROOT
ATOM      1  N   UNL     1       2.225   6.972  18.599  0.00  0.00    +0.000 N 
ATOM      2  C   UNL     1       2.074   8.266  18.168  0.00  0.00    +0.000 C 
ATOM      3  O   UNL     1       2.505   8.683  17.099  0.00  0.00    +0.000 OA
ATOM      4  H   UNL     1       1.702   6.616  19.389  0.00  0.00    +0.000 HD
ENDROOT
BRANCH   2   5
ATOM      5  C   UNL     1       1.271   9.157  19.055  0.00  0.00    +0.000 A 
ATOM      6  C   UNL     1       1.199   8.870  20.426  0.00  0.00    +0.000 A 
ATOM      7  C   UNL     1       0.547   9.746  21.300  0.00  0.00    +0.000 A 
ATOM      8  C   UNL     1      -0.022  10.922  20.811  0.00  0.00    +0.000 A 
ATOM      9  C   UNL     1       0.035  11.190  19.441  0.00  0.00    +0.000 A 
ATOM     10  C   UNL     1       0.641  10.301  18.555  0.00  0.00    +0.000 A 
BRANCH   9  11
ATOM     11  S   UNL     1      -0.527  12.752  18.814  0.00  0.00    +0.000 S 
ATOM     12  O   UNL     1      -1.376  13.346  19.816  0.00  0.00    +0.000 OA
ATOM     13  O   UNL     1       0.606  13.461  18.248  0.00  0.00    +0.000 OA
BRANCH  11  14
ATOM     14  N   UNL     1      -1.525  12.269  17.533  0.00  0.00    +0.000 NA
ATOM     15  H   UNL     1      -1.002  12.080  16.679  0.00  0.00    +0.000 HD
BRANCH  14  16
ATOM     16  C   UNL     1      -2.697  11.461  17.850  0.00  0.00    +0.000 C 
ATOM     17  C   UNL     1      -2.891  10.092  17.262  0.00  0.00    +0.000 C 
ATOM     18  C   UNL     1      -3.755  11.227  16.805  0.00  0.00    +0.000 C 
ENDBRANCH  14  16
ENDBRANCH  11  14
ENDBRANCH   9  11
ENDBRANCH   2   5
BRANCH   1  19
ATOM     19  C   UNL     1       2.895   5.938  17.832  0.00  0.00    +0.000 C 
BRANCH  19  20
ATOM     20  C   UNL     1       4.407   6.005  18.039  0.00  0.00    +0.000 A 
ATOM     21  C   UNL     1       4.972   5.299  19.120  0.00  0.00    +0.000 A 
ATOM     22  C   UNL     1       6.341   5.358  19.386  0.00  0.00    +0.000 A 
ATOM     23  C   UNL     1       7.162   6.117  18.565  0.00  0.00    +0.000 A 
ATOM     24  F   UNL     1       8.469   6.207  18.840  0.00  0.00    +0.000 F 
ATOM     25  C   UNL     1       6.643   6.785  17.461  0.00  0.00    +0.000 A 
ATOM     26  C   UNL     1       5.272   6.717  17.188  0.00  0.00    +0.000 A 
ENDBRANCH  19  20
BRANCH  19  32
ATOM     27  C   UNL     1       1.818   5.223  20.678  0.00  0.00    +0.000 C 
ATOM     28  N   UNL     1       1.797   4.351  19.528  0.00  0.00    +0.000 N 
ATOM     29  C   UNL     1       1.329   3.065  19.537  0.00  0.00    +0.000 A 
ATOM     30  C   UNL     1       1.524   2.600  18.260  0.00  0.00    +0.000 A 
ATOM     31  N   UNL     1       2.100   3.564  17.479  0.00  0.00    +0.000 NA
ATOM     32  C   UNL     1       2.255   4.628  18.258  0.00  0.00    +0.000 A 
ENDBRANCH  19  32
ENDBRANCH   1  19
TORSDOF 7
ENDMDL
MODEL 3
REMARK VINA RESULT:      -8.1      2.663      3.425
REMARK  Name = 
REMARK  8 active torsions:
REMARK  status: ('A' for Active; 'I' for Inactive)
REMARK    1  A    between atoms: C_1  and  N_2
REMARK    2  A    between atoms: C_6  and  C_7
REMARK    3  A    between atoms: C_7  and  N_8
REMARK    4  A    between atoms: C_7  and  C_24
REMARK    5  A    between atoms: C_9  and  C_11
REMARK    6  A    between atoms: C_15  and  S_16
REMARK    7  A    between atoms: S_16  and  N_19
REMARK    8  A    between atoms: N_19  and  C_20
REMARK                            x       y       z     vdW  Elec       q    Type
REMARK                         _______ _______ _______ _____ _____    ______ ____
ROOT
ATOM      1  N   UNL     1       2.250   6.591  18.497  0.00  0.00    +0.000 N 
ATOM      2  C   UNL     1       2.404   7.835  17.940  0.00  0.00    +0.000 C 
ATOM      3  O   UNL     1       2.893   8.030  16.833  0.00  0.00    +0.000 OA
ATOM      4  H   UNL     1       1.680   6.450  19.322  0.00  0.00    +0.000 HD
ENDROOT
BRANCH   2   5
ATOM      5  C   UNL     1       1.865   8.976  18.736  0.00  0.00    +0.000 A 
ATOM      6  C   UNL     1       1.591  10.190  18.089  0.00  0.00    +0.000 A 
ATOM      7  C   UNL     1       0.982  11.240  18.783  0.00  0.00    +0.000 A 
ATOM      8  C   UNL     1       0.628  11.079  20.121  0.00  0.00    +0.000 A 
ATOM      9  C   UNL     1       0.924   9.874  20.765  0.00  0.00    +0.000 A 
ATOM     10  C   UNL     1       1.573   8.837  20.096  0.00  0.00    +0.000 A 
BRANCH   9  11
ATOM     11  S   UNL     1       0.336   9.576  22.413  0.00  0.00    +0.000 S 
ATOM     12  O   UNL     1      -0.823   8.725  22.317  0.00  0.00    +0.000 OA
ATOM     13  O   UNL     1       1.469   9.238  23.256  0.00  0.00    +0.000 OA
BRANCH  11  14
ATOM     14  N   UNL     1      -0.205  11.115  22.869  0.00  0.00    +0.000 NA
ATOM     15  H   UNL     1       0.390  11.861  22.513  0.00  0.00    +0.000 HD
BRANCH  14  16
ATOM     16  C   UNL     1      -1.645  11.329  22.965  0.00  0.00    +0.000 C 
ATOM     17  C   UNL     1      -2.369  12.238  22.014  0.00  0.00    +0.000 C 
ATOM     18  C   UNL     1      -2.178  12.654  23.441  0.00  0.00    +0.000 C 
ENDBRANCH  14  16
ENDBRANCH  11  14
ENDBRANCH   9  11
ENDBRANCH   2   5
BRANCH   1  19
ATOM     19  C   UNL     1       2.630   5.356  17.836  0.00  0.00    +0.000 C 
BRANCH  19  20
ATOM     20  C   UNL     1       4.144   5.159  17.885  0.00  0.00    +0.000 A 
ATOM     21  C   UNL     1       4.798   4.668  16.738  0.00  0.00    +0.000 A 
ATOM     22  C   UNL     1       6.173   4.426  16.737  0.00  0.00    +0.000 A 
ATOM     23  C   UNL     1       6.909   4.683  17.884  0.00  0.00    +0.000 A 
ATOM     24  F   UNL     1       8.222   4.416  17.899  0.00  0.00    +0.000 F 
ATOM     25  C   UNL     1       6.303   5.214  19.016  0.00  0.00    +0.000 A 
ATOM     26  C   UNL     1       4.926   5.468  19.013  0.00  0.00    +0.000 A 
ENDBRANCH  19  20
BRANCH  19  32
ATOM     27  C   UNL     1       2.022   5.106  20.892  0.00  0.00    +0.000 C 
ATOM     28  N   UNL     1       1.587   4.185  19.870  0.00  0.00    +0.000 N 
ATOM     29  C   UNL     1       0.868   3.044  20.108  0.00  0.00    +0.000 A 
ATOM     30  C   UNL     1       0.700   2.458  18.878  0.00  0.00    +0.000 A 
ATOM     31  N   UNL     1       1.297   3.208  17.902  0.00  0.00    +0.000 NA
ATOM     32  C   UNL     1       1.827   4.260  18.516  0.00  0.00    +0.000 A 
ENDBRANCH  19  32
ENDBRANCH   1  19
TORSDOF 7
ENDMDL
MODEL 4
REMARK VINA RESULT:      -8.1      2.682      3.301
REMARK  Name = 
REMARK  8 active torsions:
REMARK  status: ('A' for Active; 'I' for Inactive)
REMARK    1  A    between atoms: C_1  and  N_2
REMARK    2  A    between atoms: C_6  and  C_7
REMARK    3  A    between atoms: C_7  and  N_8
REMARK    4  A    between atoms: C_7  and  C_24
REMARK    5  A    between atoms: C_9  and  C_11
REMARK    6  A    between atoms: C_15  and  S_16
REMARK    7  A    between atoms: S_16  and  N_19
REMARK    8  A    between atoms: N_19  and  C_20
REMARK                            x       y       z     vdW  Elec       q    Type
REMARK                         _______ _______ _______ _____ _____    ______ ____
ROOT
ATOM      1  N   UNL     1       2.348   6.393  19.106  0.00  0.00    +0.000 N 
ATOM      2  C   UNL     1       2.323   7.523  18.328  0.00  0.00    +0.000 C 
ATOM      3  O   UNL     1       2.618   7.538  17.138  0.00  0.00    +0.000 OA
ATOM      4  H   UNL     1       1.925   6.377  20.026  0.00  0.00    +0.000 HD
ENDROOT
BRANCH   2   5
ATOM      5  C   UNL     1       1.834   8.763  18.998  0.00  0.00    +0.000 A 
ATOM      6  C   UNL     1       1.657   9.926  18.234  0.00  0.00    +0.000 A 
ATOM      7  C   UNL     1       1.096  11.071  18.808  0.00  0.00    +0.000 A 
ATOM      8  C   UNL     1       0.692  11.055  20.143  0.00  0.00    +0.000 A 
ATOM      9  C   UNL     1       0.891   9.900  20.903  0.00  0.00    +0.000 A 
ATOM     10  C   UNL     1       1.493   8.768  20.354  0.00  0.00    +0.000 A 
BRANCH   9  11
ATOM     11  S   UNL     1       0.237   9.791  22.548  0.00  0.00    +0.000 S 
ATOM     12  O   UNL     1      -0.916   8.927  22.506  0.00  0.00    +0.000 OA
ATOM     13  O   UNL     1       1.334   9.562  23.471  0.00  0.00    +0.000 OA
BRANCH  11  14
ATOM     14  N   UNL     1      -0.328  11.369  22.800  0.00  0.00    +0.000 NA
ATOM     15  H   UNL     1       0.205  12.063  22.278  0.00  0.00    +0.000 HD
BRANCH  14  16
ATOM     16  C   UNL     1      -1.762  11.557  22.988  0.00  0.00    +0.000 C 
ATOM     17  C   UNL     1      -2.580  12.373  22.029  0.00  0.00    +0.000 C 
ATOM     18  C   UNL     1      -2.296  12.902  23.402  0.00  0.00    +0.000 C 
ENDBRANCH  14  16
ENDBRANCH  11  14
ENDBRANCH   9  11
ENDBRANCH   2   5
BRANCH   1  19
ATOM     19  C   UNL     1       2.709   5.078  18.609  0.00  0.00    +0.000 C 
BRANCH  19  20
ATOM     20  C   UNL     1       4.205   5.001  18.314  0.00  0.00    +0.000 A 
ATOM     21  C   UNL     1       4.622   4.532  17.052  0.00  0.00    +0.000 A 
ATOM     22  C   UNL     1       5.976   4.399  16.741  0.00  0.00    +0.000 A 
ATOM     23  C   UNL     1       6.929   4.744  17.688  0.00  0.00    +0.000 A 
ATOM     24  F   UNL     1       8.228   4.581  17.406  0.00  0.00    +0.000 F 
ATOM     25  C   UNL     1       6.552   5.257  18.923  0.00  0.00    +0.000 A 
ATOM     26  C   UNL     1       5.195   5.401  19.232  0.00  0.00    +0.000 A 
ENDBRANCH  19  20
BRANCH  19  32
ATOM     27  C   UNL     1       1.985   2.070  18.155  0.00  0.00    +0.000 C 
ATOM     28  N   UNL     1       1.906   2.774  19.413  0.00  0.00    +0.000 N 
ATOM     29  C   UNL     1       1.464   2.221  20.585  0.00  0.00    +0.000 A 
ATOM     30  C   UNL     1       1.521   3.235  21.508  0.00  0.00    +0.000 A 
ATOM     31  N   UNL     1       1.981   4.387  20.931  0.00  0.00    +0.000 NA
ATOM     32  C   UNL     1       2.219   4.093  19.658  0.00  0.00    +0.000 A 
ENDBRANCH  19  32
ENDBRANCH   1  19
TORSDOF 7
ENDMDL
MODEL 5
REMARK VINA RESULT:      -8.0      3.899      8.690
REMARK  Name = 
REMARK  8 active torsions:
REMARK  status: ('A' for Active; 'I' for Inactive)
REMARK    1  A    between atoms: C_1  and  N_2
REMARK    2  A    between atoms: C_6  and  C_7
REMARK    3  A    between atoms: C_7  and  N_8
REMARK    4  A    between atoms: C_7  and  C_24
REMARK    5  A    between atoms: C_9  and  C_11
REMARK    6  A    between atoms: C_15  and  S_16
REMARK    7  A    between atoms: S_16  and  N_19
REMARK    8  A    between atoms: N_19  and  C_20
REMARK                            x       y       z     vdW  Elec       q    Type
REMARK                         _______ _______ _______ _____ _____    ______ ____
ROOT
ATOM      1  N   UNL     1       0.574   9.618  19.159  0.00  0.00    +0.000 N 
ATOM      2  C   UNL     1       1.698   9.265  18.457  0.00  0.00    +0.000 C 
ATOM      3  O   UNL     1       2.259  10.001  17.652  0.00  0.00    +0.000 OA
ATOM      4  H   UNL     1       0.248   9.066  19.943  0.00  0.00    +0.000 HD
ENDROOT
BRANCH   2   5
ATOM      5  C   UNL     1       2.274   7.927  18.780  0.00  0.00    +0.000 A 
ATOM      6  C   UNL     1       1.824   7.249  19.922  0.00  0.00    +0.000 A 
ATOM      7  C   UNL     1       2.263   5.948  20.192  0.00  0.00    +0.000 A 
ATOM      8  C   UNL     1       3.138   5.312  19.313  0.00  0.00    +0.000 A 
ATOM      9  C   UNL     1       3.599   6.002  18.189  0.00  0.00    +0.000 A 
ATOM     10  C   UNL     1       3.206   7.316  17.936  0.00  0.00    +0.000 A 
BRANCH   9  11
ATOM     11  S   UNL     1       4.577   5.165  16.967  0.00  0.00    +0.000 S 
ATOM     12  O   UNL     1       3.926   3.915  16.667  0.00  0.00    +0.000 OA
ATOM     13  O   UNL     1       4.934   6.114  15.928  0.00  0.00    +0.000 OA
BRANCH  11  14
ATOM     14  N   UNL     1       5.983   4.804  17.840  0.00  0.00    +0.000 NA
ATOM     15  H   UNL     1       6.594   4.156  17.346  0.00  0.00    +0.000 HD
BRANCH  14  16
ATOM     16  C   UNL     1       6.567   5.861  18.658  0.00  0.00    +0.000 C 
ATOM     17  C   UNL     1       7.672   6.736  18.139  0.00  0.00    +0.000 C 
ATOM     18  C   UNL     1       7.967   5.712  19.192  0.00  0.00    +0.000 C 
ENDBRANCH  14  16
ENDBRANCH  11  14
ENDBRANCH   9  11
ENDBRANCH   2   5
BRANCH   1  19
ATOM     19  C   UNL     1      -0.076  10.910  19.047  0.00  0.00    +0.000 C 
BRANCH  19  20
ATOM     20  C   UNL     1      -1.325  10.815  18.173  0.00  0.00    +0.000 A 
ATOM     21  C   UNL     1      -1.375   9.825  17.172  0.00  0.00    +0.000 A 
ATOM     22  C   UNL     1      -2.471   9.718  16.314  0.00  0.00    +0.000 A 
ATOM     23  C   UNL     1      -3.534  10.596  16.456  0.00  0.00    +0.000 A 
ATOM     24  F   UNL     1      -4.570  10.521  15.610  0.00  0.00    +0.000 F 
ATOM     25  C   UNL     1      -3.538  11.552  17.465  0.00  0.00    +0.000 A 
ATOM     26  C   UNL     1      -2.445  11.652  18.333  0.00  0.00    +0.000 A 
ENDBRANCH  19  20
BRANCH  19  32
ATOM     27  C   UNL     1       0.076  13.839  20.130  0.00  0.00    +0.000 C 
ATOM     28  N   UNL     1      -0.251  12.670  20.911  0.00  0.00    +0.000 N 
ATOM     29  C   UNL     1      -0.509  12.681  22.255  0.00  0.00    +0.000 A 
ATOM     30  C   UNL     1      -0.738  11.370  22.591  0.00  0.00    +0.000 A 
ATOM     31  N   UNL     1      -0.624  10.564  21.492  0.00  0.00    +0.000 NA
ATOM     32  C   UNL     1      -0.335  11.366  20.473  0.00  0.00    +0.000 A 
ENDBRANCH  19  32
ENDBRANCH   1  19
TORSDOF 7
ENDMDL
MODEL 6
REMARK VINA RESULT:      -8.0      2.492      3.121
REMARK  Name = 
REMARK  8 active torsions:
REMARK  status: ('A' for Active; 'I' for Inactive)
REMARK    1  A    between atoms: C_1  and  N_2
REMARK    2  A    between atoms: C_6  and  C_7
REMARK    3  A    between atoms: C_7  and  N_8
REMARK    4  A    between atoms: C_7  and  C_24
REMARK    5  A    between atoms: C_9  and  C_11
REMARK    6  A    between atoms: C_15  and  S_16
REMARK    7  A    between atoms: S_16  and  N_19
REMARK    8  A    between atoms: N_19  and  C_20
REMARK                            x       y       z     vdW  Elec       q    Type
REMARK                         _______ _______ _______ _____ _____    ______ ____
ROOT
ATOM      1  N   UNL     1       2.141   6.631  18.749  0.00  0.00    +0.000 N 
ATOM      2  C   UNL     1       2.282   7.856  18.150  0.00  0.00    +0.000 C 
ATOM      3  O   UNL     1       2.826   8.025  17.063  0.00  0.00    +0.000 OA
ATOM      4  H   UNL     1       1.531   6.502  19.547  0.00  0.00    +0.000 HD
ENDROOT
BRANCH   2   5
ATOM      5  C   UNL     1       1.659   9.007  18.866  0.00  0.00    +0.000 A 
ATOM      6  C   UNL     1       1.240  10.124  18.128  0.00  0.00    +0.000 A 
ATOM      7  C   UNL     1       0.554  11.169  18.754  0.00  0.00    +0.000 A 
ATOM      8  C   UNL     1       0.266  11.097  20.116  0.00  0.00    +0.000 A 
ATOM      9  C   UNL     1       0.706   9.991  20.849  0.00  0.00    +0.000 A 
ATOM     10  C   UNL     1       1.432   8.966  20.245  0.00  0.00    +0.000 A 
BRANCH   9  11
ATOM     11  S   UNL     1       0.211   9.789  22.541  0.00  0.00    +0.000 S 
ATOM     12  O   UNL     1      -0.904   8.877  22.566  0.00  0.00    +0.000 OA
ATOM     13  O   UNL     1       1.398   9.572  23.349  0.00  0.00    +0.000 OA
BRANCH  11  14
ATOM     14  N   UNL     1      -0.390  11.329  22.910  0.00  0.00    +0.000 NA
ATOM     15  H   UNL     1       0.143  12.075  22.464  0.00  0.00    +0.000 HD
BRANCH  14  16
ATOM     16  C   UNL     1      -1.832  11.476  23.075  0.00  0.00    +0.000 C 
ATOM     17  C   UNL     1      -2.653  12.293  22.120  0.00  0.00    +0.000 C 
ATOM     18  C   UNL     1      -2.409  12.797  23.509  0.00  0.00    +0.000 C 
ENDBRANCH  14  16
ENDBRANCH  11  14
ENDBRANCH   9  11
ENDBRANCH   2   5
BRANCH   1  19
ATOM     19  C   UNL     1       2.601   5.386  18.162  0.00  0.00    +0.000 C 
BRANCH  19  20
ATOM     20  C   UNL     1       4.126   5.350  18.093  0.00  0.00    +0.000 A 
ATOM     21  C   UNL     1       4.857   5.307  19.297  0.00  0.00    +0.000 A 
ATOM     22  C   UNL     1       6.252   5.318  19.298  0.00  0.00    +0.000 A 
ATOM     23  C   UNL     1       6.933   5.362  18.091  0.00  0.00    +0.000 A 
ATOM     24  F   UNL     1       8.271   5.412  18.088  0.00  0.00    +0.000 F 
ATOM     25  C   UNL     1       6.243   5.356  16.884  0.00  0.00    +0.000 A 
ATOM     26  C   UNL     1       4.844   5.334  16.883  0.00  0.00    +0.000 A 
ENDBRANCH  19  20
BRANCH  19  32
ATOM     27  C   UNL     1       2.601   2.327  17.517  0.00  0.00    +0.000 C 
ATOM     28  N   UNL     1       1.998   2.942  18.675  0.00  0.00    +0.000 N 
ATOM     29  C   UNL     1       1.305   2.264  19.642  0.00  0.00    +0.000 A 
ATOM     30  C   UNL     1       0.883   3.225  20.526  0.00  0.00    +0.000 A 
ATOM     31  N   UNL     1       1.296   4.466  20.123  0.00  0.00    +0.000 NA
ATOM     32  C   UNL     1       1.980   4.281  19.000  0.00  0.00    +0.000 A 
ENDBRANCH  19  32
ENDBRANCH   1  19
TORSDOF 7
ENDMDL
MODEL 7
REMARK VINA RESULT:      -8.0      3.745      8.241
REMARK  Name = 
REMARK  8 active torsions:
REMARK  status: ('A' for Active; 'I' for Inactive)
REMARK    1  A    between atoms: C_1  and  N_2
REMARK    2  A    between atoms: C_6  and  C_7
REMARK    3  A    between atoms: C_7  and  N_8
REMARK    4  A    between atoms: C_7  and  C_24
REMARK    5  A    between atoms: C_9  and  C_11
REMARK    6  A    between atoms: C_15  and  S_16
REMARK    7  A    between atoms: S_16  and  N_19
REMARK    8  A    between atoms: N_19  and  C_20
REMARK                            x       y       z     vdW  Elec       q    Type
REMARK                         _______ _______ _______ _____ _____    ______ ____
ROOT
ATOM      1  N   UNL     1       0.904   9.139  18.882  0.00  0.00    +0.000 N 
ATOM      2  C   UNL     1       1.990   9.248  18.051  0.00  0.00    +0.000 C 
ATOM      3  O   UNL     1       2.396  10.311  17.594  0.00  0.00    +0.000 OA
ATOM      4  H   UNL     1       0.710   8.283  19.386  0.00  0.00    +0.000 HD
ENDROOT
BRANCH   2   5
ATOM      5  C   UNL     1       2.730   7.981  17.779  0.00  0.00    +0.000 A 
ATOM      6  C   UNL     1       4.114   8.033  17.556  0.00  0.00    +0.000 A 
ATOM      7  C   UNL     1       4.852   6.855  17.407  0.00  0.00    +0.000 A 
ATOM      8  C   UNL     1       4.216   5.618  17.498  0.00  0.00    +0.000 A 
ATOM      9  C   UNL     1       2.834   5.574  17.698  0.00  0.00    +0.000 A 
ATOM     10  C   UNL     1       2.081   6.743  17.801  0.00  0.00    +0.000 A 
BRANCH   9  11
ATOM     11  S   UNL     1       2.023   4.022  17.986  0.00  0.00    +0.000 S 
ATOM     12  O   UNL     1       0.755   4.056  17.302  0.00  0.00    +0.000 OA
ATOM     13  O   UNL     1       2.980   2.951  17.776  0.00  0.00    +0.000 OA
BRANCH  11  14
ATOM     14  N   UNL     1       1.700   4.106  19.647  0.00  0.00    +0.000 NA
ATOM     15  H   UNL     1       1.031   4.837  19.880  0.00  0.00    +0.000 HD
BRANCH  14  16
ATOM     16  C   UNL     1       1.692   2.858  20.402  0.00  0.00    +0.000 C 
ATOM     17  C   UNL     1       1.337   2.824  21.862  0.00  0.00    +0.000 C 
ATOM     18  C   UNL     1       2.755   2.596  21.436  0.00  0.00    +0.000 C 
ENDBRANCH  14  16
ENDBRANCH  11  14
ENDBRANCH   9  11
ENDBRANCH   2   5
BRANCH   1  19
ATOM     19  C   UNL     1       0.114  10.271  19.332  0.00  0.00    +0.000 C 
BRANCH  19  20
ATOM     20  C   UNL     1      -1.132  10.441  18.466  0.00  0.00    +0.000 A 
ATOM     21  C   UNL     1      -2.104  11.383  18.858  0.00  0.00    +0.000 A 
ATOM     22  C   UNL     1      -3.283  11.551  18.131  0.00  0.00    +0.000 A 
ATOM     23  C   UNL     1      -3.498  10.784  16.996  0.00  0.00    +0.000 A 
ATOM     24  F   UNL     1      -4.645  10.916  16.318  0.00  0.00    +0.000 F 
ATOM     25  C   UNL     1      -2.538   9.882  16.554  0.00  0.00    +0.000 A 
ATOM     26  C   UNL     1      -1.350   9.721  17.277  0.00  0.00    +0.000 A 
ENDBRANCH  19  20
BRANCH  19  32
ATOM     27  C   UNL     1      -0.096  12.421  21.592  0.00  0.00    +0.000 C 
ATOM     28  N   UNL     1      -0.246  10.996  21.770  0.00  0.00    +0.000 N 
ATOM     29  C   UNL     1      -0.469  10.383  22.974  0.00  0.00    +0.000 A 
ATOM     30  C   UNL     1      -0.513   9.041  22.694  0.00  0.00    +0.000 A 
ATOM     31  N   UNL     1      -0.321   8.820  21.357  0.00  0.00    +0.000 NA
ATOM     32  C   UNL     1      -0.167  10.017  20.803  0.00  0.00    +0.000 A 
ENDBRANCH  19  32
ENDBRANCH   1  19
TORSDOF 7
ENDMDL
MODEL 8
REMARK VINA RESULT:      -7.9      2.652      3.361
REMARK  Name = 
REMARK  8 active torsions:
REMARK  status: ('A' for Active; 'I' for Inactive)
REMARK    1  A    between atoms: C_1  and  N_2
REMARK    2  A    between atoms: C_6  and  C_7
REMARK    3  A    between atoms: C_7  and  N_8
REMARK    4  A    between atoms: C_7  and  C_24
REMARK    5  A    between atoms: C_9  and  C_11
REMARK    6  A    between atoms: C_15  and  S_16
REMARK    7  A    between atoms: S_16  and  N_19
REMARK    8  A    between atoms: N_19  and  C_20
REMARK                            x       y       z     vdW  Elec       q    Type
REMARK                         _______ _______ _______ _____ _____    ______ ____
ROOT
ATOM      1  N   UNL     1       2.275   6.522  18.431  0.00  0.00    +0.000 N 
ATOM      2  C   UNL     1       2.620   7.773  17.984  0.00  0.00    +0.000 C 
ATOM      3  O   UNL     1       3.315   7.976  16.995  0.00  0.00    +0.000 OA
ATOM      4  H   UNL     1       1.556   6.393  19.131  0.00  0.00    +0.000 HD
ENDROOT
BRANCH   2   5
ATOM      5  C   UNL     1       2.030   8.918  18.737  0.00  0.00    +0.000 A 
ATOM      6  C   UNL     1       1.968  10.178  18.124  0.00  0.00    +0.000 A 
ATOM      7  C   UNL     1       1.323  11.243  18.760  0.00  0.00    +0.000 A 
ATOM      8  C   UNL     1       0.722  11.052  20.003  0.00  0.00    +0.000 A 
ATOM      9  C   UNL     1       0.807   9.800  20.617  0.00  0.00    +0.000 A 
ATOM     10  C   UNL     1       1.488   8.744  20.014  0.00  0.00    +0.000 A 
BRANCH   9  11
ATOM     11  S   UNL     1      -0.089   9.478  22.115  0.00  0.00    +0.000 S 
ATOM     12  O   UNL     1      -0.725   8.192  21.978  0.00  0.00    +0.000 OA
ATOM     13  O   UNL     1       0.766   9.795  23.245  0.00  0.00    +0.000 OA
BRANCH  11  14
ATOM     14  N   UNL     1      -1.308  10.652  22.046  0.00  0.00    +0.000 NA
ATOM     15  H   UNL     1      -2.124  10.339  21.522  0.00  0.00    +0.000 HD
BRANCH  14  16
ATOM     16  C   UNL     1      -1.488  11.515  23.208  0.00  0.00    +0.000 C 
ATOM     17  C   UNL     1      -2.699  12.391  23.356  0.00  0.00    +0.000 C 
ATOM     18  C   UNL     1      -1.367  13.009  23.062  0.00  0.00    +0.000 C 
ENDBRANCH  14  16
ENDBRANCH  11  14
ENDBRANCH   9  11
ENDBRANCH   2   5
BRANCH   1  19
ATOM     19  C   UNL     1       2.677   5.291  17.775  0.00  0.00    +0.000 C 
BRANCH  19  20
ATOM     20  C   UNL     1       4.189   5.097  17.866  0.00  0.00    +0.000 A 
ATOM     21  C   UNL     1       4.837   5.398  19.080  0.00  0.00    +0.000 A 
ATOM     22  C   UNL     1       6.222   5.283  19.209  0.00  0.00    +0.000 A 
ATOM     23  C   UNL     1       6.973   4.856  18.124  0.00  0.00    +0.000 A 
ATOM     24  F   UNL     1       8.306   4.781  18.232  0.00  0.00    +0.000 F 
ATOM     25  C   UNL     1       6.359   4.504  16.928  0.00  0.00    +0.000 A 
ATOM     26  C   UNL     1       4.970   4.608  16.802  0.00  0.00    +0.000 A 
ENDBRANCH  19  20
BRANCH  19  32
ATOM     27  C   UNL     1       1.928   5.064  20.802  0.00  0.00    +0.000 C 
ATOM     28  N   UNL     1       1.554   4.126  19.771  0.00  0.00    +0.000 N 
ATOM     29  C   UNL     1       0.842   2.976  19.987  0.00  0.00    +0.000 A 
ATOM     30  C   UNL     1       0.741   2.376  18.757  0.00  0.00    +0.000 A 
ATOM     31  N   UNL     1       1.373   3.124  17.802  0.00  0.00    +0.000 NA
ATOM     32  C   UNL     1       1.857   4.190  18.428  0.00  0.00    +0.000 A 
ENDBRANCH  19  32
ENDBRANCH   1  19
TORSDOF 7
ENDMDL
MODEL 9
REMARK VINA RESULT:      -7.9      4.130      8.728
REMARK  Name = 
REMARK  8 active torsions:
REMARK  status: ('A' for Active; 'I' for Inactive)
REMARK    1  A    between atoms: C_1  and  N_2
REMARK    2  A    between atoms: C_6  and  C_7
REMARK    3  A    between atoms: C_7  and  N_8
REMARK    4  A    between atoms: C_7  and  C_24
REMARK    5  A    between atoms: C_9  and  C_11
REMARK    6  A    between atoms: C_15  and  S_16
REMARK    7  A    between atoms: S_16  and  N_19
REMARK    8  A    between atoms: N_19  and  C_20
REMARK                            x       y       z     vdW  Elec       q    Type
REMARK                         _______ _______ _______ _____ _____    ______ ____
ROOT
ATOM      1  N   UNL     1       0.755   9.441  18.790  0.00  0.00    +0.000 N 
ATOM      2  C   UNL     1       1.813   8.778  18.221  0.00  0.00    +0.000 C 
ATOM      3  O   UNL     1       2.480   9.226  17.295  0.00  0.00    +0.000 OA
ATOM      4  H   UNL     1       0.348   9.131  19.663  0.00  0.00    +0.000 HD
ENDROOT
BRANCH   2   5
ATOM      5  C   UNL     1       2.175   7.473  18.846  0.00  0.00    +0.000 A 
ATOM      6  C   UNL     1       1.834   7.241  20.187  0.00  0.00    +0.000 A 
ATOM      7  C   UNL     1       2.061   5.990  20.770  0.00  0.00    +0.000 A 
ATOM      8  C   UNL     1       2.613   4.958  20.011  0.00  0.00    +0.000 A 
ATOM      9  C   UNL     1       2.969   5.203  18.683  0.00  0.00    +0.000 A 
ATOM     10  C   UNL     1       2.791   6.460  18.106  0.00  0.00    +0.000 A 
BRANCH   9  11
ATOM     11  S   UNL     1       3.514   3.870  17.646  0.00  0.00    +0.000 S 
ATOM     12  O   UNL     1       4.345   3.005  18.444  0.00  0.00    +0.000 OA
ATOM     13  O   UNL     1       2.375   3.366  16.900  0.00  0.00    +0.000 OA
BRANCH  11  14
ATOM     14  N   UNL     1       4.529   4.676  16.554  0.00  0.00    +0.000 NA
ATOM     15  H   UNL     1       4.596   5.674  16.746  0.00  0.00    +0.000 HD
BRANCH  14  16
ATOM     16  C   UNL     1       5.698   3.960  16.057  0.00  0.00    +0.000 C 
ATOM     17  C   UNL     1       6.907   4.690  15.545  0.00  0.00    +0.000 C 
ATOM     18  C   UNL     1       6.014   3.966  14.585  0.00  0.00    +0.000 C 
ENDBRANCH  14  16
ENDBRANCH  11  14
ENDBRANCH   9  11
ENDBRANCH   2   5
BRANCH   1  19
ATOM     19  C   UNL     1       0.312  10.760  18.378  0.00  0.00    +0.000 C 
BRANCH  19  20
ATOM     20  C   UNL     1      -1.186  10.761  18.085  0.00  0.00    +0.000 A 
ATOM     21  C   UNL     1      -1.990  11.757  18.676  0.00  0.00    +0.000 A 
ATOM     22  C   UNL     1      -3.372  11.782  18.480  0.00  0.00    +0.000 A 
ATOM     23  C   UNL     1      -3.963  10.815  17.681  0.00  0.00    +0.000 A 
ATOM     24  F   UNL     1      -5.293  10.813  17.522  0.00  0.00    +0.000 F 
ATOM     25  C   UNL     1      -3.193   9.850  17.043  0.00  0.00    +0.000 A 
ATOM     26  C   UNL     1      -1.807   9.831  17.230  0.00  0.00    +0.000 A 
ENDBRANCH  19  20
BRANCH  19  32
ATOM     27  C   UNL     1       2.453  13.030  18.178  0.00  0.00    +0.000 C 
ATOM     28  N   UNL     1       1.695  12.690  19.359  0.00  0.00    +0.000 N 
ATOM     29  C   UNL     1       1.838  13.302  20.576  0.00  0.00    +0.000 A 
ATOM     30  C   UNL     1       0.960  12.656  21.410  0.00  0.00    +0.000 A 
ATOM     31  N   UNL     1       0.292  11.669  20.737  0.00  0.00    +0.000 NA
ATOM     32  C   UNL     1       0.741  11.705  19.488  0.00  0.00    +0.000 A 
ENDBRANCH  19  32
ENDBRANCH   1  19
TORSDOF 7
ENDMDL
