MODEL 1
REMARK VINA RESULT:     -10.0      0.000      0.000
REMARK  Name = 
REMARK  3 active torsions:
REMARK  status: ('A' for Active; 'I' for Inactive)
REMARK    1  A    between atoms: C_1  and  N_2
REMARK    2  A    between atoms: C_4  and  C_5
REMARK    3  A    between atoms: C_12  and  C_13
REMARK                            x       y       z     vdW  Elec       q    Type
REMARK                         _______ _______ _______ _____ _____    ______ ____
ROOT
ATOM      1  C   UNL     1       1.713   7.641  20.304  0.00  0.00    +0.000 C 
ATOM      2  O   UNL     1       2.233   7.814  19.206  0.00  0.00    +0.000 OA
ATOM      3  N   UNL     1       1.674   6.456  21.011  0.00  0.00    +0.000 N 
ATOM      4  C   UNL     1       2.343   5.290  20.602  0.00  0.00    +0.000 A 
ATOM      5  C   UNL     1       2.046   4.101  21.255  0.00  0.00    +0.000 A 
ATOM      6  C   UNL     1       2.679   2.934  20.838  0.00  0.00    +0.000 A 
ATOM      7  C   UNL     1       3.610   2.991  19.804  0.00  0.00    +0.000 A 
ATOM      8  C   UNL     1       3.899   4.221  19.221  0.00  0.00    +0.000 A 
ATOM      9  N   UNL     1       3.256   5.347  19.615  0.00  0.00    +0.000 NA
ATOM     10  H   UNL     1       1.072   6.383  21.816  0.00  0.00    +0.000 HD
ENDROOT
BRANCH   8  11
ATOM     11  C   UNL     1       4.925   4.397  18.166  0.00  0.00    +0.000 A 
ATOM     12  C   UNL     1       6.266   4.733  18.493  0.00  0.00    +0.000 A 
ATOM     13  C   UNL     1       7.244   4.926  17.511  0.00  0.00    +0.000 A 
ATOM     14  C   UNL     1       6.874   4.772  16.196  0.00  0.00    +0.000 A 
ATOM     15  C   UNL     1       5.576   4.456  15.835  0.00  0.00    +0.000 A 
ATOM     16  C   UNL     1       4.593   4.275  16.799  0.00  0.00    +0.000 A 
ATOM     17  C   UNL     1       5.476   4.453  14.358  0.00  0.00    +0.000 C 
ATOM     18  C   UNL     1       6.967   4.419  14.017  0.00  0.00    +0.000 C 
ATOM     19  O   UNL     1       7.720   4.949  15.133  0.00  0.00    +0.000 OA
ENDBRANCH   8  11
BRANCH   1  23
ATOM     20  C   UNL     1       0.062  12.174  19.772  0.00  0.00    +0.000 C 
ATOM     21  N   UNL     1       0.175  11.012  20.637  0.00  0.00    +0.000 N 
ATOM     22  C   UNL     1       0.790   9.866  20.163  0.00  0.00    +0.000 A 
ATOM     23  C   UNL     1       0.955   8.777  20.933  0.00  0.00    +0.000 A 
ATOM     24  C   UNL     1       0.503   8.816  22.310  0.00  0.00    +0.000 A 
ATOM     25  C   UNL     1      -0.091   9.915  22.800  0.00  0.00    +0.000 A 
ATOM     26  C   UNL     1      -0.296  11.118  21.943  0.00  0.00    +0.000 A 
ATOM     27  O   UNL     1      -0.837  12.113  22.416  0.00  0.00    +0.000 OA
ENDBRANCH   1  23
TORSDOF 2
ENDMDL
MODEL 2
REMARK VINA RESULT:      -9.3      0.637      1.384
REMARK  Name = 
REMARK  3 active torsions:
REMARK  status: ('A' for Active; 'I' for Inactive)
REMARK    1  A    between atoms: C_1  and  N_2
REMARK    2  A    between atoms: C_4  and  C_5
REMARK    3  A    between atoms: C_12  and  C_13
REMARK                            x       y       z     vdW  Elec       q    Type
REMARK                         _______ _______ _______ _____ _____    ______ ____
ROOT
ATOM      1  C   UNL     1       1.775   7.925  19.704  0.00  0.00    +0.000 C 
ATOM      2  O   UNL     1       2.282   7.966  18.587  0.00  0.00    +0.000 OA
ATOM      3  N   UNL     1       1.751   6.834  20.548  0.00  0.00    +0.000 N 
ATOM      4  C   UNL     1       2.419   5.628  20.274  0.00  0.00    +0.000 A 
ATOM      5  C   UNL     1       2.135   4.526  21.068  0.00  0.00    +0.000 A 
ATOM      6  C   UNL     1       2.767   3.318  20.787  0.00  0.00    +0.000 A 
ATOM      7  C   UNL     1       3.685   3.253  19.742  0.00  0.00    +0.000 A 
ATOM      8  C   UNL     1       3.963   4.405  19.012  0.00  0.00    +0.000 A 
ATOM      9  N   UNL     1       3.320   5.568  19.276  0.00  0.00    +0.000 NA
ATOM     10  H   UNL     1       1.159   6.856  21.363  0.00  0.00    +0.000 HD
ENDROOT
BRANCH   8  11
ATOM     11  C   UNL     1       4.975   4.456  17.931  0.00  0.00    +0.000 A 
ATOM     12  C   UNL     1       6.348   4.681  18.219  0.00  0.00    +0.000 A 
ATOM     13  C   UNL     1       7.316   4.756  17.211  0.00  0.00    +0.000 A 
ATOM     14  C   UNL     1       6.903   4.594  15.910  0.00  0.00    +0.000 A 
ATOM     15  C   UNL     1       5.574   4.383  15.587  0.00  0.00    +0.000 A 
ATOM     16  C   UNL     1       4.601   4.321  16.576  0.00  0.00    +0.000 A 
ATOM     17  C   UNL     1       5.440   4.344  14.113  0.00  0.00    +0.000 C 
ATOM     18  C   UNL     1       6.914   4.166  13.742  0.00  0.00    +0.000 C 
ATOM     19  O   UNL     1       7.736   4.662  14.825  0.00  0.00    +0.000 OA
ENDBRANCH   8  11
BRANCH   1  23
ATOM     20  C   UNL     1      -0.673   9.908  23.396  0.00  0.00    +0.000 C 
ATOM     21  N   UNL     1      -0.189  10.058  22.035  0.00  0.00    +0.000 N 
ATOM     22  C   UNL     1       0.580   9.055  21.470  0.00  0.00    +0.000 A 
ATOM     23  C   UNL     1       1.021   9.126  20.202  0.00  0.00    +0.000 A 
ATOM     24  C   UNL     1       0.653  10.272  19.393  0.00  0.00    +0.000 A 
ATOM     25  C   UNL     1      -0.096  11.258  19.912  0.00  0.00    +0.000 A 
ATOM     26  C   UNL     1      -0.570  11.193  21.324  0.00  0.00    +0.000 A 
ATOM     27  O   UNL     1      -1.258  12.105  21.774  0.00  0.00    +0.000 OA
ENDBRANCH   1  23
TORSDOF 2
ENDMDL
MODEL 3
REMARK VINA RESULT:      -8.9      1.871      2.195
REMARK  Name = 
REMARK  3 active torsions:
REMARK  status: ('A' for Active; 'I' for Inactive)
REMARK    1  A    between atoms: C_1  and  N_2
REMARK    2  A    between atoms: C_4  and  C_5
REMARK    3  A    between atoms: C_12  and  C_13
REMARK                            x       y       z     vdW  Elec       q    Type
REMARK                         _______ _______ _______ _____ _____    ______ ____
ROOT
ATOM      1  C   UNL     1       1.515   9.310  18.632  0.00  0.00    +0.000 C 
ATOM      2  O   UNL     1       2.073   9.148  17.551  0.00  0.00    +0.000 OA
ATOM      3  N   UNL     1       1.456   8.396  19.665  0.00  0.00    +0.000 N 
ATOM      4  C   UNL     1       2.141   7.169  19.651  0.00  0.00    +0.000 A 
ATOM      5  C   UNL     1       1.826   6.232  20.625  0.00  0.00    +0.000 A 
ATOM      6  C   UNL     1       2.476   5.001  20.604  0.00  0.00    +0.000 A 
ATOM      7  C   UNL     1       3.441   4.754  19.632  0.00  0.00    +0.000 A 
ATOM      8  C   UNL     1       3.747   5.752  18.711  0.00  0.00    +0.000 A 
ATOM      9  N   UNL     1       3.088   6.935  18.723  0.00  0.00    +0.000 NA
ATOM     10  H   UNL     1       0.827   8.562  20.434  0.00  0.00    +0.000 HD
ENDROOT
BRANCH   8  11
ATOM     11  C   UNL     1       4.809   5.612  17.686  0.00  0.00    +0.000 A 
ATOM     12  C   UNL     1       6.103   6.160  17.889  0.00  0.00    +0.000 A 
ATOM     13  C   UNL     1       7.112   6.059  16.924  0.00  0.00    +0.000 A 
ATOM     14  C   UNL     1       6.820   5.398  15.755  0.00  0.00    +0.000 A 
ATOM     15  C   UNL     1       5.568   4.859  15.514  0.00  0.00    +0.000 A 
ATOM     16  C   UNL     1       4.554   4.964  16.457  0.00  0.00    +0.000 A 
ATOM     17  C   UNL     1       5.541   4.301  14.143  0.00  0.00    +0.000 C 
ATOM     18  C   UNL     1       7.046   4.272  13.868  0.00  0.00    +0.000 C 
ATOM     19  O   UNL     1       7.702   5.241  14.719  0.00  0.00    +0.000 OA
ENDBRANCH   8  11
BRANCH   1  23
ATOM     20  C   UNL     1       1.667  14.153  18.922  0.00  0.00    +0.000 C 
ATOM     21  N   UNL     1       0.854  12.952  19.011  0.00  0.00    +0.000 N 
ATOM     22  C   UNL     1       1.430  11.718  18.756  0.00  0.00    +0.000 A 
ATOM     23  C   UNL     1       0.733  10.574  18.861  0.00  0.00    +0.000 A 
ATOM     24  C   UNL     1      -0.652  10.631  19.285  0.00  0.00    +0.000 A 
ATOM     25  C   UNL     1      -1.235  11.812  19.545  0.00  0.00    +0.000 A 
ATOM     26  C   UNL     1      -0.473  13.085  19.409  0.00  0.00    +0.000 A 
ATOM     27  O   UNL     1      -1.027  14.152  19.657  0.00  0.00    +0.000 OA
ENDBRANCH   1  23
TORSDOF 2
ENDMDL
MODEL 4
REMARK VINA RESULT:      -8.8      1.572      1.867
REMARK  Name = 
REMARK  3 active torsions:
REMARK  status: ('A' for Active; 'I' for Inactive)
REMARK    1  A    between atoms: C_1  and  N_2
REMARK    2  A    between atoms: C_4  and  C_5
REMARK    3  A    between atoms: C_12  and  C_13
REMARK                            x       y       z     vdW  Elec       q    Type
REMARK                         _______ _______ _______ _____ _____    ______ ____
ROOT
ATOM      1  C   UNL     1       1.444   9.020  19.129  0.00  0.00    +0.000 C 
ATOM      2  O   UNL     1       2.003   8.966  18.038  0.00  0.00    +0.000 OA
ATOM      3  N   UNL     1       1.394   8.012  20.070  0.00  0.00    +0.000 N 
ATOM      4  C   UNL     1       2.092   6.798  19.941  0.00  0.00    +0.000 A 
ATOM      5  C   UNL     1       1.786   5.770  20.822  0.00  0.00    +0.000 A 
ATOM      6  C   UNL     1       2.448   4.554  20.685  0.00  0.00    +0.000 A 
ATOM      7  C   UNL     1       3.415   4.409  19.695  0.00  0.00    +0.000 A 
ATOM      8  C   UNL     1       3.711   5.492  18.873  0.00  0.00    +0.000 A 
ATOM      9  N   UNL     1       3.040   6.663  18.996  0.00  0.00    +0.000 NA
ATOM     10  H   UNL     1       0.764   8.099  20.852  0.00  0.00    +0.000 HD
ENDROOT
BRANCH   8  11
ATOM     11  C   UNL     1       4.773   5.461  17.840  0.00  0.00    +0.000 A 
ATOM     12  C   UNL     1       6.036   6.071  18.064  0.00  0.00    +0.000 A 
ATOM     13  C   UNL     1       7.043   6.072  17.093  0.00  0.00    +0.000 A 
ATOM     14  C   UNL     1       6.783   5.450  15.895  0.00  0.00    +0.000 A 
ATOM     15  C   UNL     1       5.562   4.852  15.633  0.00  0.00    +0.000 A 
ATOM     16  C   UNL     1       4.549   4.856  16.583  0.00  0.00    +0.000 A 
ATOM     17  C   UNL     1       5.560   4.357  14.238  0.00  0.00    +0.000 C 
ATOM     18  C   UNL     1       7.063   4.427  13.957  0.00  0.00    +0.000 C 
ATOM     19  O   UNL     1       7.667   5.391  14.851  0.00  0.00    +0.000 OA
ENDBRANCH   8  11
BRANCH   1  23
ATOM     20  C   UNL     1      -2.555  11.624  18.243  0.00  0.00    +0.000 C 
ATOM     21  N   UNL     1      -1.320  11.507  18.999  0.00  0.00    +0.000 N 
ATOM     22  C   UNL     1      -0.521  10.389  18.831  0.00  0.00    +0.000 A 
ATOM     23  C   UNL     1       0.650  10.249  19.476  0.00  0.00    +0.000 A 
ATOM     24  C   UNL     1       1.102  11.313  20.350  0.00  0.00    +0.000 A 
ATOM     25  C   UNL     1       0.351  12.411  20.529  0.00  0.00    +0.000 A 
ATOM     26  C   UNL     1      -0.958  12.562  19.831  0.00  0.00    +0.000 A 
ATOM     27  O   UNL     1      -1.624  13.578  20.007  0.00  0.00    +0.000 OA
ENDBRANCH   1  23
TORSDOF 2
ENDMDL
MODEL 5
REMARK VINA RESULT:      -8.8      1.167      1.515
REMARK  Name = 
REMARK  3 active torsions:
REMARK  status: ('A' for Active; 'I' for Inactive)
REMARK    1  A    between atoms: C_1  and  N_2
REMARK    2  A    between atoms: C_4  and  C_5
REMARK    3  A    between atoms: C_12  and  C_13
REMARK                            x       y       z     vdW  Elec       q    Type
REMARK                         _______ _______ _______ _____ _____    ______ ____
ROOT
ATOM      1  C   UNL     1       2.174   7.311  19.263  0.00  0.00    +0.000 C 
ATOM      2  O   UNL     1       2.627   7.631  18.168  0.00  0.00    +0.000 OA
ATOM      3  N   UNL     1       2.134   6.035  19.787  0.00  0.00    +0.000 N 
ATOM      4  C   UNL     1       2.725   4.924  19.163  0.00  0.00    +0.000 A 
ATOM      5  C   UNL     1       2.424   3.660  19.652  0.00  0.00    +0.000 A 
ATOM      6  C   UNL     1       2.979   2.550  19.023  0.00  0.00    +0.000 A 
ATOM      7  C   UNL     1       3.841   2.734  17.945  0.00  0.00    +0.000 A 
ATOM      8  C   UNL     1       4.142   4.028  17.531  0.00  0.00    +0.000 A 
ATOM      9  N   UNL     1       3.573   5.101  18.132  0.00  0.00    +0.000 NA
ATOM     10  H   UNL     1       1.584   5.860  20.613  0.00  0.00    +0.000 HD
ENDROOT
BRANCH   8  11
ATOM     11  C   UNL     1       5.102   4.329  16.443  0.00  0.00    +0.000 A 
ATOM     12  C   UNL     1       6.200   5.205  16.653  0.00  0.00    +0.000 A 
ATOM     13  C   UNL     1       7.105   5.520  15.633  0.00  0.00    +0.000 A 
ATOM     14  C   UNL     1       6.908   4.946  14.399  0.00  0.00    +0.000 A 
ATOM     15  C   UNL     1       5.845   4.096  14.151  0.00  0.00    +0.000 A 
ATOM     16  C   UNL     1       4.932   3.785  15.150  0.00  0.00    +0.000 A 
ATOM     17  C   UNL     1       5.854   3.722  12.718  0.00  0.00    +0.000 C 
ATOM     18  C   UNL     1       7.274   4.169  12.364  0.00  0.00    +0.000 C 
ATOM     19  O   UNL     1       7.702   5.179  13.307  0.00  0.00    +0.000 OA
ENDBRANCH   8  11
BRANCH   1  23
ATOM     20  C   UNL     1       0.480  11.856  19.452  0.00  0.00    +0.000 C 
ATOM     21  N   UNL     1       0.701  10.607  20.161  0.00  0.00    +0.000 N 
ATOM     22  C   UNL     1       1.247   9.528  19.488  0.00  0.00    +0.000 A 
ATOM     23  C   UNL     1       1.507   8.363  20.106  0.00  0.00    +0.000 A 
ATOM     24  C   UNL     1       1.237   8.244  21.525  0.00  0.00    +0.000 A 
ATOM     25  C   UNL     1       0.713   9.276  22.205  0.00  0.00    +0.000 A 
ATOM     26  C   UNL     1       0.403  10.564  21.520  0.00  0.00    +0.000 A 
ATOM     27  O   UNL     1      -0.070  11.494  22.166  0.00  0.00    +0.000 OA
ENDBRANCH   1  23
TORSDOF 2
ENDMDL
MODEL 6
REMARK VINA RESULT:      -8.5      1.163      1.916
REMARK  Name = 
REMARK  3 active torsions:
REMARK  status: ('A' for Active; 'I' for Inactive)
REMARK    1  A    between atoms: C_1  and  N_2
REMARK    2  A    between atoms: C_4  and  C_5
REMARK    3  A    between atoms: C_12  and  C_13
REMARK                            x       y       z     vdW  Elec       q    Type
REMARK                         _______ _______ _______ _____ _____    ______ ____
ROOT
ATOM      1  C   UNL     1       2.105   7.952  18.864  0.00  0.00    +0.000 C 
ATOM      2  O   UNL     1       2.446   7.976  17.685  0.00  0.00    +0.000 OA
ATOM      3  N   UNL     1       2.278   6.902  19.742  0.00  0.00    +0.000 N 
ATOM      4  C   UNL     1       2.986   5.732  19.418  0.00  0.00    +0.000 A 
ATOM      5  C   UNL     1       2.896   4.651  20.284  0.00  0.00    +0.000 A 
ATOM      6  C   UNL     1       3.568   3.476  19.959  0.00  0.00    +0.000 A 
ATOM      7  C   UNL     1       4.333   3.425  18.796  0.00  0.00    +0.000 A 
ATOM      8  C   UNL     1       4.421   4.558  17.993  0.00  0.00    +0.000 A 
ATOM      9  N   UNL     1       3.740   5.686  18.304  0.00  0.00    +0.000 NA
ATOM     10  H   UNL     1       1.806   6.922  20.632  0.00  0.00    +0.000 HD
ENDROOT
BRANCH   8  11
ATOM     11  C   UNL     1       5.266   4.626  16.777  0.00  0.00    +0.000 A 
ATOM     12  C   UNL     1       6.535   5.263  16.798  0.00  0.00    +0.000 A 
ATOM     13  C   UNL     1       7.338   5.358  15.656  0.00  0.00    +0.000 A 
ATOM     14  C   UNL     1       6.866   4.803  14.490  0.00  0.00    +0.000 A 
ATOM     15  C   UNL     1       5.630   4.183  14.425  0.00  0.00    +0.000 A 
ATOM     16  C   UNL     1       4.818   4.093  15.548  0.00  0.00    +0.000 A 
ATOM     17  C   UNL     1       5.371   3.776  13.025  0.00  0.00    +0.000 C 
ATOM     18  C   UNL     1       6.790   3.913  12.470  0.00  0.00    +0.000 C 
ATOM     19  O   UNL     1       7.534   4.839  13.295  0.00  0.00    +0.000 OA
ENDBRANCH   8  11
BRANCH   1  23
ATOM     20  C   UNL     1      -0.305   9.755  22.672  0.00  0.00    +0.000 C 
ATOM     21  N   UNL     1       0.153   9.965  21.310  0.00  0.00    +0.000 N 
ATOM     22  C   UNL     1       0.925   8.996  20.693  0.00  0.00    +0.000 A 
ATOM     23  C   UNL     1       1.343   9.123  19.421  0.00  0.00    +0.000 A 
ATOM     24  C   UNL     1       0.947  10.295  18.665  0.00  0.00    +0.000 A 
ATOM     25  C   UNL     1       0.193  11.248  19.235  0.00  0.00    +0.000 A 
ATOM     26  C   UNL     1      -0.255  11.122  20.651  0.00  0.00    +0.000 A 
ATOM     27  O   UNL     1      -0.948  12.005  21.147  0.00  0.00    +0.000 OA
ENDBRANCH   1  23
TORSDOF 2
ENDMDL
MODEL 7
REMARK VINA RESULT:      -8.3      1.699      2.135
REMARK  Name = 
REMARK  3 active torsions:
REMARK  status: ('A' for Active; 'I' for Inactive)
REMARK    1  A    between atoms: C_1  and  N_2
REMARK    2  A    between atoms: C_4  and  C_5
REMARK    3  A    between atoms: C_12  and  C_13
REMARK                            x       y       z     vdW  Elec       q    Type
REMARK                         _______ _______ _______ _____ _____    ______ ____
ROOT
ATOM      1  C   UNL     1       2.139   8.434  18.319  0.00  0.00    +0.000 C 
ATOM      2  O   UNL     1       2.491   8.355  17.146  0.00  0.00    +0.000 OA
ATOM      3  N   UNL     1       2.267   7.449  19.277  0.00  0.00    +0.000 N 
ATOM      4  C   UNL     1       2.937   6.234  19.051  0.00  0.00    +0.000 A 
ATOM      5  C   UNL     1       2.801   5.227  19.997  0.00  0.00    +0.000 A 
ATOM      6  C   UNL     1       3.435   4.008  19.770  0.00  0.00    +0.000 A 
ATOM      7  C   UNL     1       4.207   3.841  18.623  0.00  0.00    +0.000 A 
ATOM      8  C   UNL     1       4.342   4.905  17.737  0.00  0.00    +0.000 A 
ATOM      9  N   UNL     1       3.698   6.077  17.953  0.00  0.00    +0.000 NA
ATOM     10  H   UNL     1       1.789   7.554  20.157  0.00  0.00    +0.000 HD
ENDROOT
BRANCH   8  11
ATOM     11  C   UNL     1       5.199   4.850  16.529  0.00  0.00    +0.000 A 
ATOM     12  C   UNL     1       6.476   5.472  16.504  0.00  0.00    +0.000 A 
ATOM     13  C   UNL     1       7.290   5.452  15.366  0.00  0.00    +0.000 A 
ATOM     14  C   UNL     1       6.823   4.796  14.252  0.00  0.00    +0.000 A 
ATOM     15  C   UNL     1       5.581   4.186  14.232  0.00  0.00    +0.000 A 
ATOM     16  C   UNL     1       4.756   4.211  15.350  0.00  0.00    +0.000 A 
ATOM     17  C   UNL     1       5.330   3.654  12.874  0.00  0.00    +0.000 C 
ATOM     18  C   UNL     1       6.755   3.722  12.323  0.00  0.00    +0.000 C 
ATOM     19  O   UNL     1       7.503   4.713  13.066  0.00  0.00    +0.000 OA
ENDBRANCH   8  11
BRANCH   1  23
ATOM     20  C   UNL     1       1.954  13.283  18.193  0.00  0.00    +0.000 C 
ATOM     21  N   UNL     1       1.369  12.054  18.701  0.00  0.00    +0.000 N 
ATOM     22  C   UNL     1       1.894  10.835  18.307  0.00  0.00    +0.000 A 
ATOM     23  C   UNL     1       1.415   9.670  18.776  0.00  0.00    +0.000 A 
ATOM     24  C   UNL     1       0.338   9.693  19.747  0.00  0.00    +0.000 A 
ATOM     25  C   UNL     1      -0.187  10.860  20.152  0.00  0.00    +0.000 A 
ATOM     26  C   UNL     1       0.327  12.154  19.618  0.00  0.00    +0.000 A 
ATOM     27  O   UNL     1      -0.167  13.208  20.009  0.00  0.00    +0.000 OA
ENDBRANCH   1  23
TORSDOF 2
ENDMDL
MODEL 8
REMARK VINA RESULT:      -8.2      3.093      8.555
REMARK  Name = 
REMARK  3 active torsions:
REMARK  status: ('A' for Active; 'I' for Inactive)
REMARK    1  A    between atoms: C_1  and  N_2
REMARK    2  A    between atoms: C_4  and  C_5
REMARK    3  A    between atoms: C_12  and  C_13
REMARK                            x       y       z     vdW  Elec       q    Type
REMARK                         _______ _______ _______ _____ _____    ______ ____
ROOT
ATOM      1  C   UNL     1       2.123   6.979  19.478  0.00  0.00    +0.000 C 
ATOM      2  O   UNL     1       1.704   7.414  18.410  0.00  0.00    +0.000 OA
ATOM      3  N   UNL     1       1.943   7.554  20.720  0.00  0.00    +0.000 N 
ATOM      4  C   UNL     1       1.140   8.687  20.938  0.00  0.00    +0.000 A 
ATOM      5  C   UNL     1       1.218   9.317  22.172  0.00  0.00    +0.000 A 
ATOM      6  C   UNL     1       0.450  10.457  22.390  0.00  0.00    +0.000 A 
ATOM      7  C   UNL     1      -0.394  10.917  21.383  0.00  0.00    +0.000 A 
ATOM      8  C   UNL     1      -0.464  10.213  20.184  0.00  0.00    +0.000 A 
ATOM      9  N   UNL     1       0.309   9.121  19.972  0.00  0.00    +0.000 NA
ATOM     10  H   UNL     1       2.475   7.210  21.503  0.00  0.00    +0.000 HD
ENDROOT
BRANCH   8  11
ATOM     11  C   UNL     1      -1.384  10.579  19.081  0.00  0.00    +0.000 A 
ATOM     12  C   UNL     1      -2.331  11.627  19.230  0.00  0.00    +0.000 A 
ATOM     13  C   UNL     1      -3.224  11.972  18.209  0.00  0.00    +0.000 A 
ATOM     14  C   UNL     1      -3.157  11.267  17.031  0.00  0.00    +0.000 A 
ATOM     15  C   UNL     1      -2.256  10.233  16.849  0.00  0.00    +0.000 A 
ATOM     16  C   UNL     1      -1.374   9.870  17.859  0.00  0.00    +0.000 A 
ATOM     17  C   UNL     1      -2.494   9.617  15.524  0.00  0.00    +0.000 C 
ATOM     18  C   UNL     1      -3.358  10.715  14.901  0.00  0.00    +0.000 C 
ATOM     19  O   UNL     1      -3.980  11.484  15.957  0.00  0.00    +0.000 OA
ENDBRANCH   8  11
BRANCH   1  23
ATOM     20  C   UNL     1       2.790   2.486  21.190  0.00  0.00    +0.000 C 
ATOM     21  N   UNL     1       3.294   3.556  20.346  0.00  0.00    +0.000 N 
ATOM     22  C   UNL     1       2.557   4.719  20.207  0.00  0.00    +0.000 A 
ATOM     23  C   UNL     1       2.996   5.755  19.469  0.00  0.00    +0.000 A 
ATOM     24  C   UNL     1       4.293   5.661  18.829  0.00  0.00    +0.000 A 
ATOM     25  C   UNL     1       5.033   4.548  18.952  0.00  0.00    +0.000 A 
ATOM     26  C   UNL     1       4.541   3.389  19.750  0.00  0.00    +0.000 A 
ATOM     27  O   UNL     1       5.239   2.385  19.851  0.00  0.00    +0.000 OA
ENDBRANCH   1  23
TORSDOF 2
ENDMDL
MODEL 9
REMARK VINA RESULT:      -8.1      2.343      8.854
REMARK  Name = 
REMARK  3 active torsions:
REMARK  status: ('A' for Active; 'I' for Inactive)
REMARK    1  A    between atoms: C_1  and  N_2
REMARK    2  A    between atoms: C_4  and  C_5
REMARK    3  A    between atoms: C_12  and  C_13
REMARK                            x       y       z     vdW  Elec       q    Type
REMARK                         _______ _______ _______ _____ _____    ______ ____
ROOT
ATOM      1  C   UNL     1       5.154   5.272  15.837  0.00  0.00    +0.000 C 
ATOM      2  O   UNL     1       4.987   6.463  16.085  0.00  0.00    +0.000 OA
ATOM      3  N   UNL     1       4.818   4.214  16.655  0.00  0.00    +0.000 N 
ATOM      4  C   UNL     1       4.121   4.364  17.867  0.00  0.00    +0.000 A 
ATOM      5  C   UNL     1       4.045   3.270  18.718  0.00  0.00    +0.000 A 
ATOM      6  C   UNL     1       3.383   3.415  19.934  0.00  0.00    +0.000 A 
ATOM      7  C   UNL     1       2.792   4.636  20.251  0.00  0.00    +0.000 A 
ATOM      8  C   UNL     1       2.862   5.680  19.334  0.00  0.00    +0.000 A 
ATOM      9  N   UNL     1       3.533   5.537  18.166  0.00  0.00    +0.000 NA
ATOM     10  H   UNL     1       5.157   3.292  16.432  0.00  0.00    +0.000 HD
ENDROOT
BRANCH   8  11
ATOM     11  C   UNL     1       2.205   6.991  19.546  0.00  0.00    +0.000 A 
ATOM     12  C   UNL     1       2.144   7.960  18.509  0.00  0.00    +0.000 A 
ATOM     13  C   UNL     1       1.548   9.212  18.696  0.00  0.00    +0.000 A 
ATOM     14  C   UNL     1       1.003   9.488  19.928  0.00  0.00    +0.000 A 
ATOM     15  C   UNL     1       1.051   8.575  20.967  0.00  0.00    +0.000 A 
ATOM     16  C   UNL     1       1.651   7.334  20.800  0.00  0.00    +0.000 A 
ATOM     17  C   UNL     1       0.469   9.198  22.178  0.00  0.00    +0.000 C 
ATOM     18  C   UNL     1      -0.233  10.388  21.522  0.00  0.00    +0.000 C 
ATOM     19  O   UNL     1       0.407  10.676  20.257  0.00  0.00    +0.000 OA
ENDBRANCH   8  11
BRANCH   1  23
ATOM     20  C   UNL     1       5.043   2.602  11.785  0.00  0.00    +0.000 C 
ATOM     21  N   UNL     1       5.784   3.550  12.599  0.00  0.00    +0.000 N 
ATOM     22  C   UNL     1       5.214   4.041  13.762  0.00  0.00    +0.000 A 
ATOM     23  C   UNL     1       5.871   4.890  14.571  0.00  0.00    +0.000 A 
ATOM     24  C   UNL     1       7.226   5.278  14.232  0.00  0.00    +0.000 A 
ATOM     25  C   UNL     1       7.806   4.812  13.115  0.00  0.00    +0.000 A 
ATOM     26  C   UNL     1       7.075   3.887  12.203  0.00  0.00    +0.000 A 
ATOM     27  O   UNL     1       7.629   3.472  11.190  0.00  0.00    +0.000 OA
ENDBRANCH   1  23
TORSDOF 2
ENDMDL
