MODEL 1
REMARK VINA RESULT:      -8.6      0.000      0.000
REMARK  Name = 
REMARK  6 active torsions:
REMARK  status: ('A' for Active; 'I' for Inactive)
REMARK    1  A    between atoms: C_2  and  C_12
REMARK    2  A    between atoms: N_3  and  O_4
REMARK    3  A    between atoms: O_4  and  C_5
REMARK    4  A    between atoms: C_5  and  C_6
REMARK    5  A    between atoms: C_17  and  S_18
REMARK    6  A    between atoms: S_18  and  N_21
REMARK                            x       y       z     vdW  Elec       q    Type
REMARK                         _______ _______ _______ _____ _____    ______ ____
ROOT
ATOM      1  C   UNL     1       2.217   7.741  18.968  0.00  0.00    +0.000 A 
ATOM      2  C   UNL     1       1.995   6.932  20.079  0.00  0.00    +0.000 A 
ATOM      3  C   UNL     1       1.263   7.434  21.159  0.00  0.00    +0.000 A 
ATOM      4  C   UNL     1       0.778   8.760  21.158  0.00  0.00    +0.000 A 
ATOM      5 CL   UNL     1       0.036   9.270  22.613  0.00  0.00    +0.000 Cl
ATOM      6  C   UNL     1       0.969   9.554  20.025  0.00  0.00    +0.000 A 
ATOM      7  C   UNL     1       1.653   9.021  18.920  0.00  0.00    +0.000 A 
ENDROOT
BRANCH   1   9
ATOM      8  O   UNL     1       3.346   8.011  16.937  0.00  0.00    +0.000 OA
ATOM      9  C   UNL     1       3.129   7.277  17.878  0.00  0.00    +0.000 C 
ATOM     10  N   UNL     1       3.600   6.000  18.049  0.00  0.00    +0.000 N 
ATOM     11  H   UNL     1       3.221   5.351  18.729  0.00  0.00    +0.000 HD
BRANCH  10  12
ATOM     12  O   UNL     1       4.375   5.462  16.996  0.00  0.00    +0.000 OA
BRANCH  12  13
ATOM     13  C   UNL     1       4.353   4.033  17.074  0.00  0.00    +0.000 C 
BRANCH  13  14
ATOM     14  C   UNL     1       3.380   3.531  18.121  0.00  0.00    +0.000 A 
ATOM     15  C   UNL     1       3.782   3.249  19.430  0.00  0.00    +0.000 A 
ATOM     16  C   UNL     1       2.855   2.782  20.370  0.00  0.00    +0.000 A 
ATOM     17  C   UNL     1       1.525   2.600  20.005  0.00  0.00    +0.000 A 
ATOM     18  C   UNL     1       1.113   2.882  18.705  0.00  0.00    +0.000 A 
ATOM     19  C   UNL     1       2.039   3.348  17.767  0.00  0.00    +0.000 A 
ENDBRANCH  13  14
ENDBRANCH  12  13
ENDBRANCH  10  12
ENDBRANCH   1   9
BRANCH   6  20
ATOM     20  S   UNL     1       0.710  11.318  19.957  0.00  0.00    +0.000 S 
ATOM     21  O   UNL     1       1.193  11.811  21.230  0.00  0.00    +0.000 OA
ATOM     22  O   UNL     1       1.349  11.757  18.739  0.00  0.00    +0.000 OA
BRANCH  20  23
ATOM     23  N   UNL     1      -0.887  11.662  19.820  0.00  0.00    +0.000 N 
ATOM     24  C   UNL     1      -1.677  12.274  20.917  0.00  0.00    +0.000 C 
ATOM     25  C   UNL     1      -2.802  12.989  20.169  0.00  0.00    +0.000 C 
ATOM     26  C   UNL     1      -3.007  11.977  19.081  0.00  0.00    +0.000 A 
ATOM     27  C   UNL     1      -4.187  11.520  18.539  0.00  0.00    +0.000 A 
ATOM     28  C   UNL     1      -4.107  10.491  17.601  0.00  0.00    +0.000 A 
ATOM     29  C   UNL     1      -2.858  10.019  17.151  0.00  0.00    +0.000 A 
ATOM     30  C   UNL     1      -1.666  10.471  17.726  0.00  0.00    +0.000 A 
ATOM     31  C   UNL     1      -1.780  11.377  18.757  0.00  0.00    +0.000 A 
ENDBRANCH  20  23
ENDBRANCH   6  20
TORSDOF 6
ENDMDL
MODEL 2
REMARK VINA RESULT:      -8.5      5.093      7.619
REMARK  Name = 
REMARK  6 active torsions:
REMARK  status: ('A' for Active; 'I' for Inactive)
REMARK    1  A    between atoms: C_2  and  C_12
REMARK    2  A    between atoms: N_3  and  O_4
REMARK    3  A    between atoms: O_4  and  C_5
REMARK    4  A    between atoms: C_5  and  C_6
REMARK    5  A    between atoms: C_17  and  S_18
REMARK    6  A    between atoms: S_18  and  N_21
REMARK                            x       y       z     vdW  Elec       q    Type
REMARK                         _______ _______ _______ _____ _____    ______ ____
ROOT
ATOM      1  C   UNL     1       6.349   5.814  17.798  0.00  0.00    +0.000 A 
ATOM      2  C   UNL     1       6.477   4.744  16.917  0.00  0.00    +0.000 A 
ATOM      3  C   UNL     1       5.347   4.000  16.571  0.00  0.00    +0.000 A 
ATOM      4  C   UNL     1       4.083   4.290  17.129  0.00  0.00    +0.000 A 
ATOM      5 CL   UNL     1       2.833   3.194  16.723  0.00  0.00    +0.000 Cl
ATOM      6  C   UNL     1       3.951   5.388  17.982  0.00  0.00    +0.000 A 
ATOM      7  C   UNL     1       5.082   6.168  18.277  0.00  0.00    +0.000 A 
ENDROOT
BRANCH   1   9
ATOM      8  O   UNL     1       8.314   5.935  19.061  0.00  0.00    +0.000 OA
ATOM      9  C   UNL     1       7.569   6.517  18.301  0.00  0.00    +0.000 C 
ATOM     10  N   UNL     1       7.686   7.813  17.866  0.00  0.00    +0.000 N 
ATOM     11  H   UNL     1       6.934   8.322  17.418  0.00  0.00    +0.000 HD
BRANCH  10  12
ATOM     12  O   UNL     1       8.757   8.567  18.399  0.00  0.00    +0.000 OA
BRANCH  12  13
ATOM     13  C   UNL     1       8.521   9.958  18.162  0.00  0.00    +0.000 C 
BRANCH  13  14
ATOM     14  C   UNL     1       9.634  10.829  18.707  0.00  0.00    +0.000 A 
ATOM     15  C   UNL     1       9.767  11.091  20.074  0.00  0.00    +0.000 A 
ATOM     16  C   UNL     1      10.806  11.904  20.541  0.00  0.00    +0.000 A 
ATOM     17  C   UNL     1      11.717  12.454  19.644  0.00  0.00    +0.000 A 
ATOM     18  C   UNL     1      11.597  12.196  18.281  0.00  0.00    +0.000 A 
ATOM     19  C   UNL     1      10.558  11.384  17.815  0.00  0.00    +0.000 A 
ENDBRANCH  13  14
ENDBRANCH  12  13
ENDBRANCH  10  12
ENDBRANCH   1   9
BRANCH   6  20
ATOM     20  S   UNL     1       2.532   5.719  19.011  0.00  0.00    +0.000 S 
ATOM     21  O   UNL     1       1.468   4.923  18.438  0.00  0.00    +0.000 OA
ATOM     22  O   UNL     1       2.964   5.457  20.364  0.00  0.00    +0.000 OA
BRANCH  20  23
ATOM     23  N   UNL     1       2.118   7.304  18.931  0.00  0.00    +0.000 N 
ATOM     24  C   UNL     1       2.579   8.204  17.845  0.00  0.00    +0.000 C 
ATOM     25  C   UNL     1       1.483   9.269  17.799  0.00  0.00    +0.000 C 
ATOM     26  C   UNL     1       1.208   9.352  19.271  0.00  0.00    +0.000 A 
ATOM     27  C   UNL     1       0.976  10.468  20.044  0.00  0.00    +0.000 A 
ATOM     28  C   UNL     1       0.849  10.280  21.420  0.00  0.00    +0.000 A 
ATOM     29  C   UNL     1       0.850   8.986  21.976  0.00  0.00    +0.000 A 
ATOM     30  C   UNL     1       1.111   7.861  21.187  0.00  0.00    +0.000 A 
ATOM     31  C   UNL     1       1.385   8.088  19.856  0.00  0.00    +0.000 A 
ENDBRANCH  20  23
ENDBRANCH   6  20
TORSDOF 6
ENDMDL
MODEL 3
REMARK VINA RESULT:      -8.3      1.825      2.694
REMARK  Name = 
REMARK  6 active torsions:
REMARK  status: ('A' for Active; 'I' for Inactive)
REMARK    1  A    between atoms: C_2  and  C_12
REMARK    2  A    between atoms: N_3  and  O_4
REMARK    3  A    between atoms: O_4  and  C_5
REMARK    4  A    between atoms: C_5  and  C_6
REMARK    5  A    between atoms: C_17  and  S_18
REMARK    6  A    between atoms: S_18  and  N_21
REMARK                            x       y       z     vdW  Elec       q    Type
REMARK                         _______ _______ _______ _____ _____    ______ ____
ROOT
ATOM      1  C   UNL     1       1.746   8.074  19.458  0.00  0.00    +0.000 A 
ATOM      2  C   UNL     1       1.610   7.381  20.658  0.00  0.00    +0.000 A 
ATOM      3  C   UNL     1       0.932   7.980  21.724  0.00  0.00    +0.000 A 
ATOM      4  C   UNL     1       0.416   9.289  21.616  0.00  0.00    +0.000 A 
ATOM      5 CL   UNL     1      -0.250   9.934  23.055  0.00  0.00    +0.000 Cl
ATOM      6  C   UNL     1       0.521   9.965  20.399  0.00  0.00    +0.000 A 
ATOM      7  C   UNL     1       1.150   9.333  19.314  0.00  0.00    +0.000 A 
ENDROOT
BRANCH   1   9
ATOM      8  O   UNL     1       3.091   8.272  17.555  0.00  0.00    +0.000 OA
ATOM      9  C   UNL     1       2.602   7.515  18.367  0.00  0.00    +0.000 C 
ATOM     10  N   UNL     1       2.703   6.147  18.381  0.00  0.00    +0.000 N 
ATOM     11  H   UNL     1       2.105   5.548  18.938  0.00  0.00    +0.000 HD
BRANCH  10  12
ATOM     12  O   UNL     1       3.405   5.551  17.308  0.00  0.00    +0.000 OA
BRANCH  12  13
ATOM     13  C   UNL     1       4.437   4.707  17.828  0.00  0.00    +0.000 C 
BRANCH  13  14
ATOM     14  C   UNL     1       5.722   5.466  18.087  0.00  0.00    +0.000 A 
ATOM     15  C   UNL     1       6.558   5.159  19.165  0.00  0.00    +0.000 A 
ATOM     16  C   UNL     1       7.735   5.885  19.376  0.00  0.00    +0.000 A 
ATOM     17  C   UNL     1       8.082   6.916  18.509  0.00  0.00    +0.000 A 
ATOM     18  C   UNL     1       7.260   7.227  17.430  0.00  0.00    +0.000 A 
ATOM     19  C   UNL     1       6.083   6.502  17.220  0.00  0.00    +0.000 A 
ENDBRANCH  13  14
ENDBRANCH  12  13
ENDBRANCH  10  12
ENDBRANCH   1   9
BRANCH   6  20
ATOM     20  S   UNL     1       0.216  11.707  20.166  0.00  0.00    +0.000 S 
ATOM     21  O   UNL     1       0.749  12.337  21.356  0.00  0.00    +0.000 OA
ATOM     22  O   UNL     1       0.783  12.032  18.879  0.00  0.00    +0.000 OA
BRANCH  20  23
ATOM     23  N   UNL     1      -1.394  12.005  20.078  0.00  0.00    +0.000 N 
ATOM     24  C   UNL     1      -2.175  12.563  21.210  0.00  0.00    +0.000 C 
ATOM     25  C   UNL     1      -3.339  13.263  20.508  0.00  0.00    +0.000 C 
ATOM     26  C   UNL     1      -3.540  12.274  19.398  0.00  0.00    +0.000 A 
ATOM     27  C   UNL     1      -4.719  11.796  18.872  0.00  0.00    +0.000 A 
ATOM     28  C   UNL     1      -4.630  10.796  17.904  0.00  0.00    +0.000 A 
ATOM     29  C   UNL     1      -3.380  10.375  17.412  0.00  0.00    +0.000 A 
ATOM     30  C   UNL     1      -2.188  10.848  17.970  0.00  0.00    +0.000 A 
ATOM     31  C   UNL     1      -2.303  11.722  19.028  0.00  0.00    +0.000 A 
ENDBRANCH  20  23
ENDBRANCH   6  20
TORSDOF 6
ENDMDL
MODEL 4
REMARK VINA RESULT:      -8.3      3.345      8.744
REMARK  Name = 
REMARK  6 active torsions:
REMARK  status: ('A' for Active; 'I' for Inactive)
REMARK    1  A    between atoms: C_2  and  C_12
REMARK    2  A    between atoms: N_3  and  O_4
REMARK    3  A    between atoms: O_4  and  C_5
REMARK    4  A    between atoms: C_5  and  C_6
REMARK    5  A    between atoms: C_17  and  S_18
REMARK    6  A    between atoms: S_18  and  N_21
REMARK                            x       y       z     vdW  Elec       q    Type
REMARK                         _______ _______ _______ _____ _____    ______ ____
ROOT
ATOM      1  C   UNL     1       1.901   6.045  20.124  0.00  0.00    +0.000 A 
ATOM      2  C   UNL     1       1.011   5.230  20.816  0.00  0.00    +0.000 A 
ATOM      3  C   UNL     1       1.008   3.853  20.573  0.00  0.00    +0.000 A 
ATOM      4  C   UNL     1       1.867   3.282  19.610  0.00  0.00    +0.000 A 
ATOM      5 CL   UNL     1       1.636   1.610  19.322  0.00  0.00    +0.000 Cl
ATOM      6  C   UNL     1       2.785   4.097  18.946  0.00  0.00    +0.000 A 
ATOM      7  C   UNL     1       2.823   5.470  19.240  0.00  0.00    +0.000 A 
ENDROOT
BRANCH   1   9
ATOM      8  O   UNL     1       2.100   8.227  19.304  0.00  0.00    +0.000 OA
ATOM      9  C   UNL     1       1.807   7.531  20.254  0.00  0.00    +0.000 C 
ATOM     10  N   UNL     1       1.431   7.960  21.502  0.00  0.00    +0.000 N 
ATOM     11  H   UNL     1       1.412   7.359  22.317  0.00  0.00    +0.000 HD
BRANCH  10  12
ATOM     12  O   UNL     1       1.435   9.357  21.721  0.00  0.00    +0.000 OA
BRANCH  12  13
ATOM     13  C   UNL     1       0.503   9.676  22.759  0.00  0.00    +0.000 C 
BRANCH  13  14
ATOM     14  C   UNL     1      -0.535  10.683  22.306  0.00  0.00    +0.000 A 
ATOM     15  C   UNL     1      -0.571  11.170  20.996  0.00  0.00    +0.000 A 
ATOM     16  C   UNL     1      -1.542  12.103  20.616  0.00  0.00    +0.000 A 
ATOM     17  C   UNL     1      -2.482  12.548  21.540  0.00  0.00    +0.000 A 
ATOM     18  C   UNL     1      -2.458  12.066  22.846  0.00  0.00    +0.000 A 
ATOM     19  C   UNL     1      -1.487  11.134  23.226  0.00  0.00    +0.000 A 
ENDBRANCH  13  14
ENDBRANCH  12  13
ENDBRANCH  10  12
ENDBRANCH   1   9
BRANCH   6  20
ATOM     20  S   UNL     1       3.717   3.623  17.500  0.00  0.00    +0.000 S 
ATOM     21  O   UNL     1       4.458   2.448  17.908  0.00  0.00    +0.000 OA
ATOM     22  O   UNL     1       2.750   3.516  16.433  0.00  0.00    +0.000 OA
BRANCH  20  23
ATOM     23  N   UNL     1       4.774   4.805  17.081  0.00  0.00    +0.000 N 
ATOM     24  C   UNL     1       4.989   5.234  15.677  0.00  0.00    +0.000 C 
ATOM     25  C   UNL     1       5.465   6.679  15.832  0.00  0.00    +0.000 C 
ATOM     26  C   UNL     1       6.281   6.497  17.078  0.00  0.00    +0.000 A 
ATOM     27  C   UNL     1       7.511   7.032  17.388  0.00  0.00    +0.000 A 
ATOM     28  C   UNL     1       8.107   6.622  18.580  0.00  0.00    +0.000 A 
ATOM     29  C   UNL     1       7.423   5.778  19.477  0.00  0.00    +0.000 A 
ATOM     30  C   UNL     1       6.185   5.221  19.142  0.00  0.00    +0.000 A 
ATOM     31  C   UNL     1       5.688   5.521  17.893  0.00  0.00    +0.000 A 
ENDBRANCH  20  23
ENDBRANCH   6  20
TORSDOF 6
ENDMDL
MODEL 5
REMARK VINA RESULT:      -8.2      3.366      8.486
REMARK  Name = 
REMARK  6 active torsions:
REMARK  status: ('A' for Active; 'I' for Inactive)
REMARK    1  A    between atoms: C_2  and  C_12
REMARK    2  A    between atoms: N_3  and  O_4
REMARK    3  A    between atoms: O_4  and  C_5
REMARK    4  A    between atoms: C_5  and  C_6
REMARK    5  A    between atoms: C_17  and  S_18
REMARK    6  A    between atoms: S_18  and  N_21
REMARK                            x       y       z     vdW  Elec       q    Type
REMARK                         _______ _______ _______ _____ _____    ______ ____
ROOT
ATOM      1  C   UNL     1       1.871   5.959  20.217  0.00  0.00    +0.000 A 
ATOM      2  C   UNL     1       0.820   5.144  20.627  0.00  0.00    +0.000 A 
ATOM      3  C   UNL     1       0.913   3.760  20.450  0.00  0.00    +0.000 A 
ATOM      4  C   UNL     1       2.039   3.180  19.827  0.00  0.00    +0.000 A 
ATOM      5 CL   UNL     1       1.933   1.494  19.547  0.00  0.00    +0.000 Cl
ATOM      6  C   UNL     1       3.108   3.997  19.452  0.00  0.00    +0.000 A 
ATOM      7  C   UNL     1       3.031   5.379  19.690  0.00  0.00    +0.000 A 
ENDROOT
BRANCH   1   9
ATOM      8  O   UNL     1       1.322   7.974  21.270  0.00  0.00    +0.000 OA
ATOM      9  C   UNL     1       1.720   7.446  20.253  0.00  0.00    +0.000 C 
ATOM     10  N   UNL     1       2.012   8.066  19.065  0.00  0.00    +0.000 N 
ATOM     11  H   UNL     1       2.125   7.570  18.188  0.00  0.00    +0.000 HD
BRANCH  10  12
ATOM     12  O   UNL     1       1.778   9.459  19.001  0.00  0.00    +0.000 OA
BRANCH  12  13
ATOM     13  C   UNL     1       0.709   9.718  18.085  0.00  0.00    +0.000 C 
BRANCH  13  14
ATOM     14  C   UNL     1      -0.377  10.577  18.699  0.00  0.00    +0.000 A 
ATOM     15  C   UNL     1      -0.258  11.110  19.986  0.00  0.00    +0.000 A 
ATOM     16  C   UNL     1      -1.284  11.897  20.523  0.00  0.00    +0.000 A 
ATOM     17  C   UNL     1      -2.428  12.156  19.774  0.00  0.00    +0.000 A 
ATOM     18  C   UNL     1      -2.554  11.634  18.489  0.00  0.00    +0.000 A 
ATOM     19  C   UNL     1      -1.529  10.848  17.954  0.00  0.00    +0.000 A 
ENDBRANCH  13  14
ENDBRANCH  12  13
ENDBRANCH  10  12
ENDBRANCH   1   9
BRANCH   6  20
ATOM     20  S   UNL     1       4.452   3.500  18.391  0.00  0.00    +0.000 S 
ATOM     21  O   UNL     1       5.411   2.875  19.278  0.00  0.00    +0.000 OA
ATOM     22  O   UNL     1       3.847   2.718  17.338  0.00  0.00    +0.000 OA
BRANCH  20  23
ATOM     23  N   UNL     1       5.147   4.808  17.687  0.00  0.00    +0.000 N 
ATOM     24  C   UNL     1       4.956   5.151  16.256  0.00  0.00    +0.000 C 
ATOM     25  C   UNL     1       5.175   6.664  16.237  0.00  0.00    +0.000 C 
ATOM     26  C   UNL     1       6.269   6.730  17.261  0.00  0.00    +0.000 A 
ATOM     27  C   UNL     1       7.415   7.494  17.250  0.00  0.00    +0.000 A 
ATOM     28  C   UNL     1       8.330   7.293  18.282  0.00  0.00    +0.000 A 
ATOM     29  C   UNL     1       8.036   6.420  19.348  0.00  0.00    +0.000 A 
ATOM     30  C   UNL     1       6.882   5.630  19.338  0.00  0.00    +0.000 A 
ATOM     31  C   UNL     1       6.069   5.736  18.231  0.00  0.00    +0.000 A 
ENDBRANCH  20  23
ENDBRANCH   6  20
TORSDOF 6
ENDMDL
MODEL 6
REMARK VINA RESULT:      -8.2      1.918      2.593
REMARK  Name = 
REMARK  6 active torsions:
REMARK  status: ('A' for Active; 'I' for Inactive)
REMARK    1  A    between atoms: C_2  and  C_12
REMARK    2  A    between atoms: N_3  and  O_4
REMARK    3  A    between atoms: O_4  and  C_5
REMARK    4  A    between atoms: C_5  and  C_6
REMARK    5  A    between atoms: C_17  and  S_18
REMARK    6  A    between atoms: S_18  and  N_21
REMARK                            x       y       z     vdW  Elec       q    Type
REMARK                         _______ _______ _______ _____ _____    ______ ____
ROOT
ATOM      1  C   UNL     1       0.627   9.538  19.936  0.00  0.00    +0.000 A 
ATOM      2  C   UNL     1       0.688   9.051  21.239  0.00  0.00    +0.000 A 
ATOM      3  C   UNL     1      -0.044   9.687  22.246  0.00  0.00    +0.000 A 
ATOM      4  C   UNL     1      -0.813  10.837  21.971  0.00  0.00    +0.000 A 
ATOM      5 CL   UNL     1      -1.526  11.586  23.336  0.00  0.00    +0.000 Cl
ATOM      6  C   UNL     1      -0.903  11.300  20.656  0.00  0.00    +0.000 A 
ATOM      7  C   UNL     1      -0.213  10.618  19.640  0.00  0.00    +0.000 A 
ENDROOT
BRANCH   1   9
ATOM      8  O   UNL     1       1.534   9.474  17.782  0.00  0.00    +0.000 OA
ATOM      9  C   UNL     1       1.525   8.970  18.885  0.00  0.00    +0.000 C 
ATOM     10  N   UNL     1       2.231   7.865  19.290  0.00  0.00    +0.000 N 
ATOM     11  H   UNL     1       2.027   7.353  20.140  0.00  0.00    +0.000 HD
BRANCH  10  12
ATOM     12  O   UNL     1       3.010   7.214  18.306  0.00  0.00    +0.000 OA
BRANCH  12  13
ATOM     13  C   UNL     1       3.624   6.055  18.879  0.00  0.00    +0.000 C 
BRANCH  13  14
ATOM     14  C   UNL     1       2.625   4.944  19.133  0.00  0.00    +0.000 A 
ATOM     15  C   UNL     1       2.106   4.164  18.096  0.00  0.00    +0.000 A 
ATOM     16  C   UNL     1       1.181   3.149  18.368  0.00  0.00    +0.000 A 
ATOM     17  C   UNL     1       0.776   2.909  19.677  0.00  0.00    +0.000 A 
ATOM     18  C   UNL     1       1.290   3.677  20.719  0.00  0.00    +0.000 A 
ATOM     19  C   UNL     1       2.213   4.691  20.446  0.00  0.00    +0.000 A 
ENDBRANCH  13  14
ENDBRANCH  12  13
ENDBRANCH  10  12
ENDBRANCH   1   9
BRANCH   6  20
ATOM     20  S   UNL     1      -1.559  12.887  20.172  0.00  0.00    +0.000 S 
ATOM     21  O   UNL     1      -1.027  13.817  21.146  0.00  0.00    +0.000 OA
ATOM     22  O   UNL     1      -1.209  13.042  18.779  0.00  0.00    +0.000 OA
BRANCH  20  23
ATOM     23  N   UNL     1      -3.195  12.889  20.267  0.00  0.00    +0.000 N 
ATOM     24  C   UNL     1      -3.934  13.383  21.455  0.00  0.00    +0.000 C 
ATOM     25  C   UNL     1      -5.278  13.813  20.866  0.00  0.00    +0.000 C 
ATOM     26  C   UNL     1      -5.416  12.724  19.843  0.00  0.00    +0.000 A 
ATOM     27  C   UNL     1      -6.538  12.008  19.492  0.00  0.00    +0.000 A 
ATOM     28  C   UNL     1      -6.376  10.970  18.575  0.00  0.00    +0.000 A 
ATOM     29  C   UNL     1      -5.132  10.741  17.955  0.00  0.00    +0.000 A 
ATOM     30  C   UNL     1      -3.993  11.457  18.337  0.00  0.00    +0.000 A 
ATOM     31  C   UNL     1      -4.148  12.373  19.354  0.00  0.00    +0.000 A 
ENDBRANCH  20  23
ENDBRANCH   6  20
TORSDOF 6
ENDMDL
MODEL 7
REMARK VINA RESULT:      -8.1      1.550      1.916
REMARK  Name = 
REMARK  6 active torsions:
REMARK  status: ('A' for Active; 'I' for Inactive)
REMARK    1  A    between atoms: C_2  and  C_12
REMARK    2  A    between atoms: N_3  and  O_4
REMARK    3  A    between atoms: O_4  and  C_5
REMARK    4  A    between atoms: C_5  and  C_6
REMARK    5  A    between atoms: C_17  and  S_18
REMARK    6  A    between atoms: S_18  and  N_21
REMARK                            x       y       z     vdW  Elec       q    Type
REMARK                         _______ _______ _______ _____ _____    ______ ____
ROOT
ATOM      1  C   UNL     1       1.085   9.195  19.543  0.00  0.00    +0.000 A 
ATOM      2  C   UNL     1       1.118   8.488  20.742  0.00  0.00    +0.000 A 
ATOM      3  C   UNL     1       0.394   8.962  21.839  0.00  0.00    +0.000 A 
ATOM      4  C   UNL     1      -0.339  10.166  21.764  0.00  0.00    +0.000 A 
ATOM      5 CL   UNL     1      -1.044  10.688  23.234  0.00  0.00    +0.000 Cl
ATOM      6  C   UNL     1      -0.401  10.851  20.549  0.00  0.00    +0.000 A 
ATOM      7  C   UNL     1       0.280  10.335  19.434  0.00  0.00    +0.000 A 
ENDROOT
BRANCH   1   9
ATOM      8  O   UNL     1       2.055   9.506  17.438  0.00  0.00    +0.000 OA
ATOM      9  C   UNL     1       1.978   8.790  18.414  0.00  0.00    +0.000 C 
ATOM     10  N   UNL     1       2.597   7.580  18.597  0.00  0.00    +0.000 N 
ATOM     11  H   UNL     1       2.333   6.921  19.321  0.00  0.00    +0.000 HD
BRANCH  10  12
ATOM     12  O   UNL     1       3.363   7.088  17.516  0.00  0.00    +0.000 OA
BRANCH  12  13
ATOM     13  C   UNL     1       4.224   6.044  17.981  0.00  0.00    +0.000 C 
BRANCH  13  14
ATOM     14  C   UNL     1       3.508   4.713  18.081  0.00  0.00    +0.000 A 
ATOM     15  C   UNL     1       4.184   3.532  18.402  0.00  0.00    +0.000 A 
ATOM     16  C   UNL     1       3.489   2.319  18.481  0.00  0.00    +0.000 A 
ATOM     17  C   UNL     1       2.119   2.284  18.244  0.00  0.00    +0.000 A 
ATOM     18  C   UNL     1       1.435   3.455  17.929  0.00  0.00    +0.000 A 
ATOM     19  C   UNL     1       2.130   4.667  17.849  0.00  0.00    +0.000 A 
ENDBRANCH  13  14
ENDBRANCH  12  13
ENDBRANCH  10  12
ENDBRANCH   1   9
BRANCH   6  20
ATOM     20  S   UNL     1      -1.005  12.518  20.343  0.00  0.00    +0.000 S 
ATOM     21  O   UNL     1      -0.509  13.234  21.499  0.00  0.00    +0.000 OA
ATOM     22  O   UNL     1      -0.582  12.923  19.023  0.00  0.00    +0.000 OA
BRANCH  20  23
ATOM     23  N   UNL     1      -2.644  12.544  20.359  0.00  0.00    +0.000 N 
ATOM     24  C   UNL     1      -3.434  12.890  21.566  0.00  0.00    +0.000 C 
ATOM     25  C   UNL     1      -4.739  13.426  20.977  0.00  0.00    +0.000 C 
ATOM     26  C   UNL     1      -4.843  12.487  19.811  0.00  0.00    +0.000 A 
ATOM     27  C   UNL     1      -5.957  11.850  19.313  0.00  0.00    +0.000 A 
ATOM     28  C   UNL     1      -5.765  10.942  18.273  0.00  0.00    +0.000 A 
ATOM     29  C   UNL     1      -4.495  10.769  17.688  0.00  0.00    +0.000 A 
ATOM     30  C   UNL     1      -3.366  11.402  18.217  0.00  0.00    +0.000 A 
ATOM     31  C   UNL     1      -3.558  12.176  19.340  0.00  0.00    +0.000 A 
ENDBRANCH  20  23
ENDBRANCH   6  20
TORSDOF 6
ENDMDL
MODEL 8
REMARK VINA RESULT:      -8.0      2.809      3.580
REMARK  Name = 
REMARK  6 active torsions:
REMARK  status: ('A' for Active; 'I' for Inactive)
REMARK    1  A    between atoms: C_2  and  C_12
REMARK    2  A    between atoms: N_3  and  O_4
REMARK    3  A    between atoms: O_4  and  C_5
REMARK    4  A    between atoms: C_5  and  C_6
REMARK    5  A    between atoms: C_17  and  S_18
REMARK    6  A    between atoms: S_18  and  N_21
REMARK                            x       y       z     vdW  Elec       q    Type
REMARK                         _______ _______ _______ _____ _____    ______ ____
ROOT
ATOM      1  C   UNL     1       1.017   9.265  19.391  0.00  0.00    +0.000 A 
ATOM      2  C   UNL     1       1.181   8.960  20.740  0.00  0.00    +0.000 A 
ATOM      3  C   UNL     1       0.430   9.648  21.697  0.00  0.00    +0.000 A 
ATOM      4  C   UNL     1      -0.464  10.674  21.322  0.00  0.00    +0.000 A 
ATOM      5 CL   UNL     1      -1.193  11.521  22.619  0.00  0.00    +0.000 Cl
ATOM      6  C   UNL     1      -0.655  10.950  19.966  0.00  0.00    +0.000 A 
ATOM      7  C   UNL     1       0.059  10.212  19.008  0.00  0.00    +0.000 A 
ENDROOT
BRANCH   1   9
ATOM      8  O   UNL     1       2.010   9.166  17.277  0.00  0.00    +0.000 OA
ATOM      9  C   UNL     1       1.924   8.654  18.373  0.00  0.00    +0.000 C 
ATOM     10  N   UNL     1       2.545   7.506  18.794  0.00  0.00    +0.000 N 
ATOM     11  H   UNL     1       2.275   6.999  19.629  0.00  0.00    +0.000 HD
BRANCH  10  12
ATOM     12  O   UNL     1       3.326   6.817  17.837  0.00  0.00    +0.000 OA
BRANCH  12  13
ATOM     13  C   UNL     1       3.867   5.632  18.431  0.00  0.00    +0.000 C 
BRANCH  13  14
ATOM     14  C   UNL     1       2.787   4.723  18.980  0.00  0.00    +0.000 A 
ATOM     15  C   UNL     1       2.492   4.665  20.346  0.00  0.00    +0.000 A 
ATOM     16  C   UNL     1       1.490   3.809  20.818  0.00  0.00    +0.000 A 
ATOM     17  C   UNL     1       0.778   3.013  19.927  0.00  0.00    +0.000 A 
ATOM     18  C   UNL     1       1.060   3.066  18.564  0.00  0.00    +0.000 A 
ATOM     19  C   UNL     1       2.061   3.921  18.094  0.00  0.00    +0.000 A 
ENDBRANCH  13  14
ENDBRANCH  12  13
ENDBRANCH  10  12
ENDBRANCH   1   9
BRANCH   6  20
ATOM     20  S   UNL     1      -1.488  12.391  19.323  0.00  0.00    +0.000 S 
ATOM     21  O   UNL     1      -1.478  12.210  17.886  0.00  0.00    +0.000 OA
ATOM     22  O   UNL     1      -2.750  12.453  20.021  0.00  0.00    +0.000 OA
BRANCH  20  23
ATOM     23  N   UNL     1      -0.657  13.754  19.697  0.00  0.00    +0.000 N 
ATOM     24  C   UNL     1      -1.301  14.954  20.287  0.00  0.00    +0.000 C 
ATOM     25  C   UNL     1      -0.151  15.619  21.045  0.00  0.00    +0.000 C 
ATOM     26  C   UNL     1       0.948  15.310  20.071  0.00  0.00    +0.000 A 
ATOM     27  C   UNL     1       1.980  16.118  19.651  0.00  0.00    +0.000 A 
ATOM     28  C   UNL     1       2.817  15.623  18.652  0.00  0.00    +0.000 A 
ATOM     29  C   UNL     1       2.672  14.306  18.174  0.00  0.00    +0.000 A 
ATOM     30  C   UNL     1       1.605  13.502  18.588  0.00  0.00    +0.000 A 
ATOM     31  C   UNL     1       0.704  14.069  19.462  0.00  0.00    +0.000 A 
ENDBRANCH  20  23
ENDBRANCH   6  20
TORSDOF 6
ENDMDL
MODEL 9
REMARK VINA RESULT:      -8.0      3.451      8.677
REMARK  Name = 
REMARK  6 active torsions:
REMARK  status: ('A' for Active; 'I' for Inactive)
REMARK    1  A    between atoms: C_2  and  C_12
REMARK    2  A    between atoms: N_3  and  O_4
REMARK    3  A    between atoms: O_4  and  C_5
REMARK    4  A    between atoms: C_5  and  C_6
REMARK    5  A    between atoms: C_17  and  S_18
REMARK    6  A    between atoms: S_18  and  N_21
REMARK                            x       y       z     vdW  Elec       q    Type
REMARK                         _______ _______ _______ _____ _____    ______ ____
ROOT
ATOM      1  C   UNL     1       1.916   6.057  20.208  0.00  0.00    +0.000 A 
ATOM      2  C   UNL     1       0.830   5.281  20.602  0.00  0.00    +0.000 A 
ATOM      3  C   UNL     1       0.869   3.897  20.412  0.00  0.00    +0.000 A 
ATOM      4  C   UNL     1       1.975   3.278  19.791  0.00  0.00    +0.000 A 
ATOM      5 CL   UNL     1       1.804   1.600  19.494  0.00  0.00    +0.000 Cl
ATOM      6  C   UNL     1       3.078   4.054  19.432  0.00  0.00    +0.000 A 
ATOM      7  C   UNL     1       3.056   5.436  19.682  0.00  0.00    +0.000 A 
ENDROOT
BRANCH   1   9
ATOM      8  O   UNL     1       2.142   8.192  19.280  0.00  0.00    +0.000 OA
ATOM      9  C   UNL     1       1.824   7.548  20.257  0.00  0.00    +0.000 C 
ATOM     10  N   UNL     1       1.419   8.043  21.471  0.00  0.00    +0.000 N 
ATOM     11  H   UNL     1       1.379   7.486  22.316  0.00  0.00    +0.000 HD
BRANCH  10  12
ATOM     12  O   UNL     1       1.423   9.450  21.617  0.00  0.00    +0.000 OA
BRANCH  12  13
ATOM     13  C   UNL     1       0.076   9.932  21.593  0.00  0.00    +0.000 C 
BRANCH  13  14
ATOM     14  C   UNL     1      -0.122  11.028  20.565  0.00  0.00    +0.000 A 
ATOM     15  C   UNL     1      -1.345  11.687  20.412  0.00  0.00    +0.000 A 
ATOM     16  C   UNL     1      -1.492  12.691  19.449  0.00  0.00    +0.000 A 
ATOM     17  C   UNL     1      -0.417  13.043  18.640  0.00  0.00    +0.000 A 
ATOM     18  C   UNL     1       0.808  12.397  18.787  0.00  0.00    +0.000 A 
ATOM     19  C   UNL     1       0.954  11.392  19.749  0.00  0.00    +0.000 A 
ENDBRANCH  13  14
ENDBRANCH  12  13
ENDBRANCH  10  12
ENDBRANCH   1   9
BRANCH   6  20
ATOM     20  S   UNL     1       4.410   3.514  18.375  0.00  0.00    +0.000 S 
ATOM     21  O   UNL     1       5.349   2.867  19.267  0.00  0.00    +0.000 OA
ATOM     22  O   UNL     1       3.784   2.744  17.325  0.00  0.00    +0.000 OA
BRANCH  20  23
ATOM     23  N   UNL     1       5.142   4.798  17.665  0.00  0.00    +0.000 N 
ATOM     24  C   UNL     1       4.991   5.118  16.224  0.00  0.00    +0.000 C 
ATOM     25  C   UNL     1       5.234   6.627  16.183  0.00  0.00    +0.000 C 
ATOM     26  C   UNL     1       6.304   6.695  17.232  0.00  0.00    +0.000 A 
ATOM     27  C   UNL     1       7.462   7.441  17.236  0.00  0.00    +0.000 A 
ATOM     28  C   UNL     1       8.348   7.245  18.294  0.00  0.00    +0.000 A 
ATOM     29  C   UNL     1       8.015   6.396  19.368  0.00  0.00    +0.000 A 
ATOM     30  C   UNL     1       6.849   5.624  19.343  0.00  0.00    +0.000 A 
ATOM     31  C   UNL     1       6.065   5.722  18.215  0.00  0.00    +0.000 A 
ENDBRANCH  20  23
ENDBRANCH   6  20
TORSDOF 6
ENDMDL
