MODEL 1
REMARK VINA RESULT:      -7.6      0.000      0.000
REMARK  Name = 
REMARK  6 active torsions:
REMARK  status: ('A' for Active; 'I' for Inactive)
REMARK    1  A    between atoms: C_2  and  C_3
REMARK    2  A    between atoms: C_3  and  C_4
REMARK    3  A    between atoms: C_8  and  N_9
REMARK    4  A    between atoms: C_14  and  C_15
REMARK    5  A    between atoms: C_15  and  N_16
REMARK    6  A    between atoms: C_21  and  C_22
REMARK                            x       y       z     vdW  Elec       q    Type
REMARK                         _______ _______ _______ _____ _____    ______ ____
ROOT
ATOM      1  N   UNL     1       0.758   8.333  21.137  0.00  0.00    +0.000 N 
ATOM      2  C   UNL     1      -0.506   8.623  20.396  0.00  0.00    +0.000 C 
ATOM      3  C   UNL     1      -0.377  10.094  20.124  0.00  0.00    +0.000 A 
ATOM      4  C   UNL     1       0.453  10.623  21.116  0.00  0.00    +0.000 A 
ATOM      5  C   UNL     1       0.990  11.904  21.059  0.00  0.00    +0.000 A 
ATOM      6  C   UNL     1       0.633  12.709  19.969  0.00  0.00    +0.000 A 
ATOM      7  C   UNL     1      -0.222  12.184  18.967  0.00  0.00    +0.000 A 
ATOM      8  C   UNL     1      -0.734  10.862  19.019  0.00  0.00    +0.000 A 
ATOM      9  C   UNL     1       1.011   9.500  21.900  0.00  0.00    +0.000 C 
ATOM     10  O   UNL     1       1.721   9.628  22.874  0.00  0.00    +0.000 OA
ENDROOT
BRANCH   1  15
ATOM     11  C   UNL     1       2.352   5.975  18.946  0.00  0.00    +0.000 A 
ATOM     12  C   UNL     1       2.256   6.756  17.774  0.00  0.00    +0.000 A 
ATOM     13  C   UNL     1       2.146   8.143  17.823  0.00  0.00    +0.000 A 
ATOM     14  C   UNL     1       2.008   8.774  19.050  0.00  0.00    +0.000 A 
ATOM     15  C   UNL     1       1.828   7.991  20.198  0.00  0.00    +0.000 A 
ATOM     16  C   UNL     1       2.222   6.655  20.169  0.00  0.00    +0.000 A 
BRANCH  11  17
ATOM     17  C   UNL     1       2.527   4.389  18.901  0.00  0.00    +0.000 C 
ATOM     18  C   UNL     1       1.303   3.515  19.299  0.00  0.00    +0.000 C 
ATOM     19  O   UNL     1       0.989   3.259  17.909  0.00  0.00    +0.000 OA
ATOM     20  C   UNL     1       2.317   3.694  17.529  0.00  0.00    +0.000 C 
BRANCH  17  22
ATOM     21  O   UNL     1       4.597   3.095  19.437  0.00  0.00    +0.000 OA
ATOM     22  C   UNL     1       3.864   4.060  19.645  0.00  0.00    +0.000 C 
ENDBRANCH  17  22
ENDBRANCH  11  17
ENDBRANCH   1  15
BRANCH   8  23
ATOM     23  C   UNL     1      -1.539  10.330  17.861  0.00  0.00    +0.000 C 
ATOM     24  F   UNL     1      -1.930  11.283  16.973  0.00  0.00    +0.000 F 
ATOM     25  F   UNL     1      -0.843   9.413  17.132  0.00  0.00    +0.000 F 
ATOM     26  F   UNL     1      -2.677   9.701  18.264  0.00  0.00    +0.000 F 
ENDBRANCH   8  23
BRANCH   6  27
ATOM     27  C   UNL     1       1.153  14.133  19.891  0.00  0.00    +0.000 C 
BRANCH  27  28
ATOM     28  N   UNL     1       1.652  14.563  18.573  0.00  0.00    +0.000 NA
ATOM     29  C   UNL     1       2.946  13.878  18.327  0.00  0.00    +0.000 C 
ATOM     30  C   UNL     1       3.602  15.226  18.030  0.00  0.00    +0.000 C 
ATOM     31  C   UNL     1       2.344  15.867  18.633  0.00  0.00    +0.000 C 
ENDBRANCH  27  28
ENDBRANCH   6  27
TORSDOF 6
ENDMDL
MODEL 2
REMARK VINA RESULT:      -7.5      0.790      1.428
REMARK  Name = 
REMARK  6 active torsions:
REMARK  status: ('A' for Active; 'I' for Inactive)
REMARK    1  A    between atoms: C_2  and  C_3
REMARK    2  A    between atoms: C_3  and  C_4
REMARK    3  A    between atoms: C_8  and  N_9
REMARK    4  A    between atoms: C_14  and  C_15
REMARK    5  A    between atoms: C_15  and  N_16
REMARK    6  A    between atoms: C_21  and  C_22
REMARK                            x       y       z     vdW  Elec       q    Type
REMARK                         _______ _______ _______ _____ _____    ______ ____
ROOT
ATOM      1  N   UNL     1       0.657   8.318  21.231  0.00  0.00    +0.000 N 
ATOM      2  C   UNL     1      -0.580   8.635  20.455  0.00  0.00    +0.000 C 
ATOM      3  C   UNL     1      -0.387  10.091  20.142  0.00  0.00    +0.000 A 
ATOM      4  C   UNL     1       0.443  10.617  21.136  0.00  0.00    +0.000 A 
ATOM      5  C   UNL     1       1.032  11.874  21.051  0.00  0.00    +0.000 A 
ATOM      6  C   UNL     1       0.730  12.658  19.931  0.00  0.00    +0.000 A 
ATOM      7  C   UNL     1      -0.126  12.137  18.927  0.00  0.00    +0.000 A 
ATOM      8  C   UNL     1      -0.691  10.838  19.008  0.00  0.00    +0.000 A 
ATOM      9  C   UNL     1       0.941   9.498  21.964  0.00  0.00    +0.000 C 
ATOM     10  O   UNL     1       1.635   9.628  22.949  0.00  0.00    +0.000 OA
ENDROOT
BRANCH   1  15
ATOM     11  C   UNL     1       2.186   5.843  19.126  0.00  0.00    +0.000 A 
ATOM     12  C   UNL     1       2.156   6.603  17.936  0.00  0.00    +0.000 A 
ATOM     13  C   UNL     1       2.113   7.995  17.957  0.00  0.00    +0.000 A 
ATOM     14  C   UNL     1       1.976   8.657  19.168  0.00  0.00    +0.000 A 
ATOM     15  C   UNL     1       1.731   7.907  20.325  0.00  0.00    +0.000 A 
ATOM     16  C   UNL     1       2.060   6.553  20.331  0.00  0.00    +0.000 A 
BRANCH  11  17
ATOM     17  C   UNL     1       2.285   4.250  19.114  0.00  0.00    +0.000 C 
ATOM     18  C   UNL     1       2.983   3.561  20.323  0.00  0.00    +0.000 C 
ATOM     19  O   UNL     1       1.706   3.217  20.911  0.00  0.00    +0.000 OA
ATOM     20  C   UNL     1       1.055   3.461  19.640  0.00  0.00    +0.000 C 
BRANCH  17  22
ATOM     21  O   UNL     1       2.234   3.136  16.877  0.00  0.00    +0.000 OA
ATOM     22  C   UNL     1       2.817   3.840  17.701  0.00  0.00    +0.000 C 
ENDBRANCH  17  22
ENDBRANCH  11  17
ENDBRANCH   1  15
BRANCH   8  23
ATOM     23  C   UNL     1      -1.493  10.303  17.848  0.00  0.00    +0.000 C 
ATOM     24  F   UNL     1      -0.840   9.367  17.108  0.00  0.00    +0.000 F 
ATOM     25  F   UNL     1      -2.648   9.708  18.256  0.00  0.00    +0.000 F 
ATOM     26  F   UNL     1      -1.862  11.282  16.978  0.00  0.00    +0.000 F 
ENDBRANCH   8  23
BRANCH   6  27
ATOM     27  C   UNL     1       1.306  14.058  19.822  0.00  0.00    +0.000 C 
BRANCH  27  28
ATOM     28  N   UNL     1       2.762  14.138  19.604  0.00  0.00    +0.000 NA
ATOM     29  C   UNL     1       3.088  15.527  19.195  0.00  0.00    +0.000 C 
ATOM     30  C   UNL     1       3.827  14.991  17.969  0.00  0.00    +0.000 C 
ATOM     31  C   UNL     1       3.158  13.643  18.270  0.00  0.00    +0.000 C 
ENDBRANCH  27  28
ENDBRANCH   6  27
TORSDOF 6
ENDMDL
MODEL 3
REMARK VINA RESULT:      -7.5      0.583      1.475
REMARK  Name = 
REMARK  6 active torsions:
REMARK  status: ('A' for Active; 'I' for Inactive)
REMARK    1  A    between atoms: C_2  and  C_3
REMARK    2  A    between atoms: C_3  and  C_4
REMARK    3  A    between atoms: C_8  and  N_9
REMARK    4  A    between atoms: C_14  and  C_15
REMARK    5  A    between atoms: C_15  and  N_16
REMARK    6  A    between atoms: C_21  and  C_22
REMARK                            x       y       z     vdW  Elec       q    Type
REMARK                         _______ _______ _______ _____ _____    ______ ____
ROOT
ATOM      1  N   UNL     1       0.775   8.306  21.156  0.00  0.00    +0.000 N 
ATOM      2  C   UNL     1      -0.494   8.595  20.421  0.00  0.00    +0.000 C 
ATOM      3  C   UNL     1      -0.358  10.061  20.128  0.00  0.00    +0.000 A 
ATOM      4  C   UNL     1       0.483  10.598  21.107  0.00  0.00    +0.000 A 
ATOM      5  C   UNL     1       1.027  11.875  21.028  0.00  0.00    +0.000 A 
ATOM      6  C   UNL     1       0.667  12.667  19.930  0.00  0.00    +0.000 A 
ATOM      7  C   UNL     1      -0.200  12.135  18.942  0.00  0.00    +0.000 A 
ATOM      8  C   UNL     1      -0.719  10.816  19.016  0.00  0.00    +0.000 A 
ATOM      9  C   UNL     1       1.040   9.482  21.901  0.00  0.00    +0.000 C 
ATOM     10  O   UNL     1       1.759   9.619  22.868  0.00  0.00    +0.000 OA
ENDROOT
BRANCH   1  15
ATOM     11  C   UNL     1       2.314   5.923  18.953  0.00  0.00    +0.000 A 
ATOM     12  C   UNL     1       2.232   6.710  17.783  0.00  0.00    +0.000 A 
ATOM     13  C   UNL     1       2.151   8.099  17.838  0.00  0.00    +0.000 A 
ATOM     14  C   UNL     1       2.028   8.728  19.067  0.00  0.00    +0.000 A 
ATOM     15  C   UNL     1       1.835   7.946  20.212  0.00  0.00    +0.000 A 
ATOM     16  C   UNL     1       2.201   6.602  20.178  0.00  0.00    +0.000 A 
BRANCH  11  17
ATOM     17  C   UNL     1       2.457   4.334  18.902  0.00  0.00    +0.000 C 
ATOM     18  C   UNL     1       2.600   3.667  17.503  0.00  0.00    +0.000 C 
ATOM     19  O   UNL     1       4.031   3.529  17.676  0.00  0.00    +0.000 OA
ATOM     20  C   UNL     1       3.879   3.746  19.101  0.00  0.00    +0.000 C 
BRANCH  17  22
ATOM     21  O   UNL     1       0.609   2.787  19.564  0.00  0.00    +0.000 OA
ATOM     22  C   UNL     1       1.332   3.749  19.819  0.00  0.00    +0.000 C 
ENDBRANCH  17  22
ENDBRANCH  11  17
ENDBRANCH   1  15
BRANCH   8  23
ATOM     23  C   UNL     1      -1.536  10.274  17.871  0.00  0.00    +0.000 C 
ATOM     24  F   UNL     1      -2.672   9.632  18.255  0.00  0.00    +0.000 F 
ATOM     25  F   UNL     1      -1.940  11.258  17.019  0.00  0.00    +0.000 F 
ATOM     26  F   UNL     1      -0.839   9.385  17.112  0.00  0.00    +0.000 F 
ENDBRANCH   8  23
BRANCH   6  27
ATOM     27  C   UNL     1       1.194  14.087  19.829  0.00  0.00    +0.000 C 
BRANCH  27  28
ATOM     28  N   UNL     1       2.647  14.219  19.618  0.00  0.00    +0.000 NA
ATOM     29  C   UNL     1       2.918  15.604  19.154  0.00  0.00    +0.000 C 
ATOM     30  C   UNL     1       3.689  15.050  17.957  0.00  0.00    +0.000 C 
ATOM     31  C   UNL     1       3.075  13.688  18.308  0.00  0.00    +0.000 C 
ENDBRANCH  27  28
ENDBRANCH   6  27
TORSDOF 6
ENDMDL
MODEL 4
REMARK VINA RESULT:      -7.5      1.218      1.587
REMARK  Name = 
REMARK  6 active torsions:
REMARK  status: ('A' for Active; 'I' for Inactive)
REMARK    1  A    between atoms: C_2  and  C_3
REMARK    2  A    between atoms: C_3  and  C_4
REMARK    3  A    between atoms: C_8  and  N_9
REMARK    4  A    between atoms: C_14  and  C_15
REMARK    5  A    between atoms: C_15  and  N_16
REMARK    6  A    between atoms: C_21  and  C_22
REMARK                            x       y       z     vdW  Elec       q    Type
REMARK                         _______ _______ _______ _____ _____    ______ ____
ROOT
ATOM      1  N   UNL     1       0.026   9.162  20.965  0.00  0.00    +0.000 N 
ATOM      2  C   UNL     1      -1.133   9.150  20.021  0.00  0.00    +0.000 C 
ATOM      3  C   UNL     1      -1.153  10.570  19.536  0.00  0.00    +0.000 A 
ATOM      4  C   UNL     1      -0.566  11.353  20.534  0.00  0.00    +0.000 A 
ATOM      5  C   UNL     1      -0.197  12.680  20.344  0.00  0.00    +0.000 A 
ATOM      6  C   UNL     1      -0.477  13.260  19.100  0.00  0.00    +0.000 A 
ATOM      7  C   UNL     1      -1.089  12.477  18.089  0.00  0.00    +0.000 A 
ATOM      8  C   UNL     1      -1.428  11.113  18.284  0.00  0.00    +0.000 A 
ATOM      9  C   UNL     1       0.002  10.449  21.557  0.00  0.00    +0.000 C 
ATOM     10  O   UNL     1       0.526  10.819  22.585  0.00  0.00    +0.000 OA
ENDROOT
BRANCH   1  15
ATOM     11  C   UNL     1       2.222   6.794  19.395  0.00  0.00    +0.000 A 
ATOM     12  C   UNL     1       2.223   7.398  18.118  0.00  0.00    +0.000 A 
ATOM     13  C   UNL     1       1.940   8.751  17.947  0.00  0.00    +0.000 A 
ATOM     14  C   UNL     1       1.531   9.506  19.035  0.00  0.00    +0.000 A 
ATOM     15  C   UNL     1       1.265   8.858  20.248  0.00  0.00    +0.000 A 
ATOM     16  C   UNL     1       1.817   7.599  20.472  0.00  0.00    +0.000 A 
BRANCH  11  17
ATOM     17  C   UNL     1       2.593   5.256  19.609  0.00  0.00    +0.000 C 
ATOM     18  C   UNL     1       2.255   4.616  20.987  0.00  0.00    +0.000 C 
ATOM     19  O   UNL     1       1.070   3.986  20.444  0.00  0.00    +0.000 OA
ATOM     20  C   UNL     1       1.569   4.205  19.101  0.00  0.00    +0.000 C 
BRANCH  17  22
ATOM     21  O   UNL     1       5.080   5.486  19.688  0.00  0.00    +0.000 OA
ATOM     22  C   UNL     1       4.069   5.074  19.122  0.00  0.00    +0.000 C 
ENDBRANCH  17  22
ENDBRANCH  11  17
ENDBRANCH   1  15
BRANCH   8  23
ATOM     23  C   UNL     1      -1.963  10.308  17.127  0.00  0.00    +0.000 C 
ATOM     24  F   UNL     1      -3.134   9.669  17.391  0.00  0.00    +0.000 F 
ATOM     25  F   UNL     1      -2.206  11.083  16.033  0.00  0.00    +0.000 F 
ATOM     26  F   UNL     1      -1.092   9.346  16.717  0.00  0.00    +0.000 F 
ENDBRANCH   8  23
BRANCH   6  27
ATOM     27  C   UNL     1      -0.141  14.722  18.866  0.00  0.00    +0.000 C 
BRANCH  27  28
ATOM     28  N   UNL     1       1.220  15.137  19.250  0.00  0.00    +0.000 NA
ATOM     29  C   UNL     1       1.488  16.458  18.627  0.00  0.00    +0.000 C 
ATOM     30  C   UNL     1       2.781  15.910  18.023  0.00  0.00    +0.000 C 
ATOM     31  C   UNL     1       2.257  14.517  18.400  0.00  0.00    +0.000 C 
ENDBRANCH  27  28
ENDBRANCH   6  27
TORSDOF 6
ENDMDL
MODEL 5
REMARK VINA RESULT:      -7.4      4.998      7.532
REMARK  Name = 
REMARK  6 active torsions:
REMARK  status: ('A' for Active; 'I' for Inactive)
REMARK    1  A    between atoms: C_2  and  C_3
REMARK    2  A    between atoms: C_3  and  C_4
REMARK    3  A    between atoms: C_8  and  N_9
REMARK    4  A    between atoms: C_14  and  C_15
REMARK    5  A    between atoms: C_15  and  N_16
REMARK    6  A    between atoms: C_21  and  C_22
REMARK                            x       y       z     vdW  Elec       q    Type
REMARK                         _______ _______ _______ _____ _____    ______ ____
ROOT
ATOM      1  N   UNL     1      -0.309  11.359  18.580  0.00  0.00    +0.000 N 
ATOM      2  C   UNL     1       0.468  10.680  19.662  0.00  0.00    +0.000 C 
ATOM      3  C   UNL     1      -0.134  11.278  20.900  0.00  0.00    +0.000 A 
ATOM      4  C   UNL     1      -0.645  12.530  20.544  0.00  0.00    +0.000 A 
ATOM      5  C   UNL     1      -1.481  13.275  21.367  0.00  0.00    +0.000 A 
ATOM      6  C   UNL     1      -1.778  12.753  22.633  0.00  0.00    +0.000 A 
ATOM      7  C   UNL     1      -1.249  11.492  23.008  0.00  0.00    +0.000 A 
ATOM      8  C   UNL     1      -0.426  10.725  22.143  0.00  0.00    +0.000 A 
ATOM      9  C   UNL     1      -0.558  12.664  19.073  0.00  0.00    +0.000 C 
ATOM     10  O   UNL     1      -0.864  13.660  18.455  0.00  0.00    +0.000 OA
ENDROOT
BRANCH   1  15
ATOM     11  C   UNL     1      -3.848  11.230  17.989  0.00  0.00    +0.000 A 
ATOM     12  C   UNL     1      -3.775  10.673  16.694  0.00  0.00    +0.000 A 
ATOM     13  C   UNL     1      -2.674   9.928  16.277  0.00  0.00    +0.000 A 
ATOM     14  C   UNL     1      -1.567   9.825  17.105  0.00  0.00    +0.000 A 
ATOM     15  C   UNL     1      -1.520  10.596  18.273  0.00  0.00    +0.000 A 
ATOM     16  C   UNL     1      -2.711  11.089  18.801  0.00  0.00    +0.000 A 
BRANCH  11  17
ATOM     17  C   UNL     1      -5.126  12.044  18.495  0.00  0.00    +0.000 C 
ATOM     18  C   UNL     1      -6.060  11.352  19.530  0.00  0.00    +0.000 C 
ATOM     19  O   UNL     1      -5.473  12.107  20.617  0.00  0.00    +0.000 OA
ATOM     20  C   UNL     1      -4.911  13.042  19.664  0.00  0.00    +0.000 C 
BRANCH  17  22
ATOM     21  O   UNL     1      -7.043  12.772  17.066  0.00  0.00    +0.000 OA
ATOM     22  C   UNL     1      -5.833  12.613  17.220  0.00  0.00    +0.000 C 
ENDBRANCH  17  22
ENDBRANCH  11  17
ENDBRANCH   1  15
BRANCH   8  23
ATOM     23  C   UNL     1       0.002   9.340  22.560  0.00  0.00    +0.000 C 
ATOM     24  F   UNL     1      -0.695   8.340  21.957  0.00  0.00    +0.000 F 
ATOM     25  F   UNL     1       1.311   9.101  22.272  0.00  0.00    +0.000 F 
ATOM     26  F   UNL     1      -0.130   9.138  23.899  0.00  0.00    +0.000 F 
ENDBRANCH   8  23
BRANCH   6  27
ATOM     27  C   UNL     1      -2.643  13.557  23.587  0.00  0.00    +0.000 C 
BRANCH  27  28
ATOM     28  N   UNL     1      -3.710  14.361  22.965  0.00  0.00    +0.000 NA
ATOM     29  C   UNL     1      -3.586  15.753  23.467  0.00  0.00    +0.000 C 
ATOM     30  C   UNL     1      -5.058  15.733  23.878  0.00  0.00    +0.000 C 
ATOM     31  C   UNL     1      -5.004  14.215  23.664  0.00  0.00    +0.000 C 
ENDBRANCH  27  28
ENDBRANCH   6  27
TORSDOF 6
ENDMDL
MODEL 6
REMARK VINA RESULT:      -7.4      1.304      1.916
REMARK  Name = 
REMARK  6 active torsions:
REMARK  status: ('A' for Active; 'I' for Inactive)
REMARK    1  A    between atoms: C_2  and  C_3
REMARK    2  A    between atoms: C_3  and  C_4
REMARK    3  A    between atoms: C_8  and  N_9
REMARK    4  A    between atoms: C_14  and  C_15
REMARK    5  A    between atoms: C_15  and  N_16
REMARK    6  A    between atoms: C_21  and  C_22
REMARK                            x       y       z     vdW  Elec       q    Type
REMARK                         _______ _______ _______ _____ _____    ______ ____
ROOT
ATOM      1  N   UNL     1       0.021   9.261  20.898  0.00  0.00    +0.000 N 
ATOM      2  C   UNL     1      -1.141   9.227  19.958  0.00  0.00    +0.000 C 
ATOM      3  C   UNL     1      -1.211  10.654  19.497  0.00  0.00    +0.000 A 
ATOM      4  C   UNL     1      -0.646  11.439  20.506  0.00  0.00    +0.000 A 
ATOM      5  C   UNL     1      -0.323  12.780  20.338  0.00  0.00    +0.000 A 
ATOM      6  C   UNL     1      -0.628  13.372  19.106  0.00  0.00    +0.000 A 
ATOM      7  C   UNL     1      -1.218  12.586  18.083  0.00  0.00    +0.000 A 
ATOM      8  C   UNL     1      -1.509  11.208  18.256  0.00  0.00    +0.000 A 
ATOM      9  C   UNL     1      -0.044  10.537  21.512  0.00  0.00    +0.000 C 
ATOM     10  O   UNL     1       0.472  10.907  22.544  0.00  0.00    +0.000 OA
ENDROOT
BRANCH   1  15
ATOM     11  C   UNL     1       2.274   7.001  19.252  0.00  0.00    +0.000 A 
ATOM     12  C   UNL     1       2.257   7.644  17.995  0.00  0.00    +0.000 A 
ATOM     13  C   UNL     1       1.941   8.994  17.867  0.00  0.00    +0.000 A 
ATOM     14  C   UNL     1       1.515   9.705  18.978  0.00  0.00    +0.000 A 
ATOM     15  C   UNL     1       1.267   9.012  20.170  0.00  0.00    +0.000 A 
ATOM     16  C   UNL     1       1.850   7.761  20.354  0.00  0.00    +0.000 A 
BRANCH  11  17
ATOM     17  C   UNL     1       2.683   5.466  19.417  0.00  0.00    +0.000 C 
ATOM     18  C   UNL     1       2.714   4.585  18.134  0.00  0.00    +0.000 C 
ATOM     19  O   UNL     1       4.156   4.691  18.053  0.00  0.00    +0.000 OA
ATOM     20  C   UNL     1       4.200   5.137  19.430  0.00  0.00    +0.000 C 
BRANCH  17  22
ATOM     21  O   UNL     1       0.889   4.125  20.525  0.00  0.00    +0.000 OA
ATOM     22  C   UNL     1       1.842   4.899  20.607  0.00  0.00    +0.000 C 
ENDBRANCH  17  22
ENDBRANCH  11  17
ENDBRANCH   1  15
BRANCH   8  23
ATOM     23  C   UNL     1      -2.023  10.405  17.087  0.00  0.00    +0.000 C 
ATOM     24  F   UNL     1      -3.198   9.765  17.328  0.00  0.00    +0.000 F 
ATOM     25  F   UNL     1      -2.245  11.183  15.991  0.00  0.00    +0.000 F 
ATOM     26  F   UNL     1      -1.144   9.444  16.692  0.00  0.00    +0.000 F 
ENDBRANCH   8  23
BRANCH   6  27
ATOM     27  C   UNL     1      -0.342  14.848  18.895  0.00  0.00    +0.000 C 
BRANCH  27  28
ATOM     28  N   UNL     1       0.945  15.334  19.422  0.00  0.00    +0.000 NA
ATOM     29  C   UNL     1       1.111  16.746  18.994  0.00  0.00    +0.000 C 
ATOM     30  C   UNL     1       2.485  16.408  18.416  0.00  0.00    +0.000 C 
ATOM     31  C   UNL     1       2.087  14.934  18.574  0.00  0.00    +0.000 C 
ENDBRANCH  27  28
ENDBRANCH   6  27
TORSDOF 6
ENDMDL
MODEL 7
REMARK VINA RESULT:      -7.4      4.953      7.309
REMARK  Name = 
REMARK  6 active torsions:
REMARK  status: ('A' for Active; 'I' for Inactive)
REMARK    1  A    between atoms: C_2  and  C_3
REMARK    2  A    between atoms: C_3  and  C_4
REMARK    3  A    between atoms: C_8  and  N_9
REMARK    4  A    between atoms: C_14  and  C_15
REMARK    5  A    between atoms: C_15  and  N_16
REMARK    6  A    between atoms: C_21  and  C_22
REMARK                            x       y       z     vdW  Elec       q    Type
REMARK                         _______ _______ _______ _____ _____    ______ ____
ROOT
ATOM      1  N   UNL     1      -0.267  11.224  18.497  0.00  0.00    +0.000 N 
ATOM      2  C   UNL     1       0.496  10.555  19.594  0.00  0.00    +0.000 C 
ATOM      3  C   UNL     1      -0.071  11.217  20.817  0.00  0.00    +0.000 A 
ATOM      4  C   UNL     1      -0.541  12.473  20.423  0.00  0.00    +0.000 A 
ATOM      5  C   UNL     1      -1.341  13.275  21.228  0.00  0.00    +0.000 A 
ATOM      6  C   UNL     1      -1.643  12.808  22.514  0.00  0.00    +0.000 A 
ATOM      7  C   UNL     1      -1.154  11.543  22.927  0.00  0.00    +0.000 A 
ATOM      8  C   UNL     1      -0.369  10.717  22.081  0.00  0.00    +0.000 A 
ATOM      9  C   UNL     1      -0.464  12.553  18.948  0.00  0.00    +0.000 C 
ATOM     10  O   UNL     1      -0.741  13.538  18.298  0.00  0.00    +0.000 OA
ENDROOT
BRANCH   1  15
ATOM     11  C   UNL     1      -3.837  11.178  18.110  0.00  0.00    +0.000 A 
ATOM     12  C   UNL     1      -3.849  10.680  16.789  0.00  0.00    +0.000 A 
ATOM     13  C   UNL     1      -2.788   9.937  16.276  0.00  0.00    +0.000 A 
ATOM     14  C   UNL     1      -1.637   9.778  17.032  0.00  0.00    +0.000 A 
ATOM     15  C   UNL     1      -1.508  10.495  18.228  0.00  0.00    +0.000 A 
ATOM     16  C   UNL     1      -2.657  10.982  18.847  0.00  0.00    +0.000 A 
BRANCH  11  17
ATOM     17  C   UNL     1      -5.068  11.988  18.725  0.00  0.00    +0.000 C 
ATOM     18  C   UNL     1      -5.992  12.758  17.737  0.00  0.00    +0.000 C 
ATOM     19  O   UNL     1      -6.988  11.710  17.796  0.00  0.00    +0.000 OA
ATOM     20  C   UNL     1      -6.372  11.191  18.999  0.00  0.00    +0.000 C 
BRANCH  17  22
ATOM     21  O   UNL     1      -5.155  13.291  20.856  0.00  0.00    +0.000 OA
ATOM     22  C   UNL     1      -4.506  12.827  19.920  0.00  0.00    +0.000 C 
ENDBRANCH  17  22
ENDBRANCH  11  17
ENDBRANCH   1  15
BRANCH   8  23
ATOM     23  C   UNL     1       0.014   9.333  22.541  0.00  0.00    +0.000 C 
ATOM     24  F   UNL     1      -0.762   8.343  22.024  0.00  0.00    +0.000 F 
ATOM     25  F   UNL     1       1.293   9.015  22.197  0.00  0.00    +0.000 F 
ATOM     26  F   UNL     1      -0.055   9.199  23.894  0.00  0.00    +0.000 F 
ENDBRANCH   8  23
BRANCH   6  27
ATOM     27  C   UNL     1      -2.468  13.674  23.448  0.00  0.00    +0.000 C 
BRANCH  27  28
ATOM     28  N   UNL     1      -1.708  14.599  24.306  0.00  0.00    +0.000 NA
ATOM     29  C   UNL     1      -2.586  15.005  25.433  0.00  0.00    +0.000 C 
ATOM     30  C   UNL     1      -2.309  16.474  25.117  0.00  0.00    +0.000 C 
ATOM     31  C   UNL     1      -1.718  15.983  23.789  0.00  0.00    +0.000 C 
ENDBRANCH  27  28
ENDBRANCH   6  27
TORSDOF 6
ENDMDL
MODEL 8
REMARK VINA RESULT:      -7.4      0.569      1.062
REMARK  Name = 
REMARK  6 active torsions:
REMARK  status: ('A' for Active; 'I' for Inactive)
REMARK    1  A    between atoms: C_2  and  C_3
REMARK    2  A    between atoms: C_3  and  C_4
REMARK    3  A    between atoms: C_8  and  N_9
REMARK    4  A    between atoms: C_14  and  C_15
REMARK    5  A    between atoms: C_15  and  N_16
REMARK    6  A    between atoms: C_21  and  C_22
REMARK                            x       y       z     vdW  Elec       q    Type
REMARK                         _______ _______ _______ _____ _____    ______ ____
ROOT
ATOM      1  N   UNL     1       0.698   8.374  21.159  0.00  0.00    +0.000 N 
ATOM      2  C   UNL     1      -0.557   8.670  20.403  0.00  0.00    +0.000 C 
ATOM      3  C   UNL     1      -0.437  10.147  20.165  0.00  0.00    +0.000 A 
ATOM      4  C   UNL     1       0.370  10.662  21.184  0.00  0.00    +0.000 A 
ATOM      5  C   UNL     1       0.896  11.949  21.163  0.00  0.00    +0.000 A 
ATOM      6  C   UNL     1       0.551  12.774  20.085  0.00  0.00    +0.000 A 
ATOM      7  C   UNL     1      -0.283  12.264  19.057  0.00  0.00    +0.000 A 
ATOM      8  C   UNL     1      -0.783  10.936  19.072  0.00  0.00    +0.000 A 
ATOM      9  C   UNL     1       0.926   9.527  21.952  0.00  0.00    +0.000 C 
ATOM     10  O   UNL     1       1.618   9.640  22.941  0.00  0.00    +0.000 OA
ENDROOT
BRANCH   1  15
ATOM     11  C   UNL     1       2.364   6.073  18.963  0.00  0.00    +0.000 A 
ATOM     12  C   UNL     1       2.272   6.867  17.798  0.00  0.00    +0.000 A 
ATOM     13  C   UNL     1       2.136   8.251  17.864  0.00  0.00    +0.000 A 
ATOM     14  C   UNL     1       1.969   8.864  19.096  0.00  0.00    +0.000 A 
ATOM     15  C   UNL     1       1.787   8.064  20.231  0.00  0.00    +0.000 A 
ATOM     16  C   UNL     1       2.205   6.736  20.191  0.00  0.00    +0.000 A 
BRANCH  11  17
ATOM     17  C   UNL     1       2.569   4.491  18.900  0.00  0.00    +0.000 C 
ATOM     18  C   UNL     1       1.369   3.590  19.311  0.00  0.00    +0.000 C 
ATOM     19  O   UNL     1       1.036   3.340  17.925  0.00  0.00    +0.000 OA
ATOM     20  C   UNL     1       2.349   3.804  17.526  0.00  0.00    +0.000 C 
BRANCH  17  22
ATOM     21  O   UNL     1       4.898   3.612  19.127  0.00  0.00    +0.000 OA
ATOM     22  C   UNL     1       3.925   4.182  19.618  0.00  0.00    +0.000 C 
ENDBRANCH  17  22
ENDBRANCH  11  17
ENDBRANCH   1  15
BRANCH   8  23
ATOM     23  C   UNL     1      -1.562  10.423  17.888  0.00  0.00    +0.000 C 
ATOM     24  F   UNL     1      -0.888   9.515  17.132  0.00  0.00    +0.000 F 
ATOM     25  F   UNL     1      -2.716   9.804  18.264  0.00  0.00    +0.000 F 
ATOM     26  F   UNL     1      -1.932  11.420  17.039  0.00  0.00    +0.000 F 
ENDBRANCH   8  23
BRANCH   6  27
ATOM     27  C   UNL     1       1.057  14.204  20.048  0.00  0.00    +0.000 C 
BRANCH  27  28
ATOM     28  N   UNL     1       0.863  14.921  18.776  0.00  0.00    +0.000 NA
ATOM     29  C   UNL     1       2.056  15.775  18.544  0.00  0.00    +0.000 C 
ATOM     30  C   UNL     1       1.147  16.988  18.345  0.00  0.00    +0.000 C 
ATOM     31  C   UNL     1       0.021  16.125  18.932  0.00  0.00    +0.000 C 
ENDBRANCH  27  28
ENDBRANCH   6  27
TORSDOF 6
ENDMDL
MODEL 9
REMARK VINA RESULT:      -7.4      1.019      1.553
REMARK  Name = 
REMARK  6 active torsions:
REMARK  status: ('A' for Active; 'I' for Inactive)
REMARK    1  A    between atoms: C_2  and  C_3
REMARK    2  A    between atoms: C_3  and  C_4
REMARK    3  A    between atoms: C_8  and  N_9
REMARK    4  A    between atoms: C_14  and  C_15
REMARK    5  A    between atoms: C_15  and  N_16
REMARK    6  A    between atoms: C_21  and  C_22
REMARK                            x       y       z     vdW  Elec       q    Type
REMARK                         _______ _______ _______ _____ _____    ______ ____
ROOT
ATOM      1  N   UNL     1       0.557   8.301  21.328  0.00  0.00    +0.000 N 
ATOM      2  C   UNL     1      -0.642   8.620  20.496  0.00  0.00    +0.000 C 
ATOM      3  C   UNL     1      -0.415  10.067  20.163  0.00  0.00    +0.000 A 
ATOM      4  C   UNL     1       0.381  10.601  21.180  0.00  0.00    +0.000 A 
ATOM      5  C   UNL     1       0.991  11.847  21.096  0.00  0.00    +0.000 A 
ATOM      6  C   UNL     1       0.746  12.613  19.949  0.00  0.00    +0.000 A 
ATOM      7  C   UNL     1      -0.076  12.085  18.921  0.00  0.00    +0.000 A 
ATOM      8  C   UNL     1      -0.662  10.795  19.004  0.00  0.00    +0.000 A 
ATOM      9  C   UNL     1       0.828   9.491  22.050  0.00  0.00    +0.000 C 
ATOM     10  O   UNL     1       1.484   9.631  23.059  0.00  0.00    +0.000 OA
ENDROOT
BRANCH   1  15
ATOM     11  C   UNL     1       2.231   5.711  19.489  0.00  0.00    +0.000 A 
ATOM     12  C   UNL     1       2.179   6.348  18.230  0.00  0.00    +0.000 A 
ATOM     13  C   UNL     1       2.067   7.732  18.112  0.00  0.00    +0.000 A 
ATOM     14  C   UNL     1       1.882   8.501  19.251  0.00  0.00    +0.000 A 
ATOM     15  C   UNL     1       1.661   7.858  20.475  0.00  0.00    +0.000 A 
ATOM     16  C   UNL     1       2.056   6.529  20.617  0.00  0.00    +0.000 A 
BRANCH  11  17
ATOM     17  C   UNL     1       2.409   4.131  19.636  0.00  0.00    +0.000 C 
ATOM     18  C   UNL     1       2.084   3.249  18.396  0.00  0.00    +0.000 C 
ATOM     19  O   UNL     1       3.489   3.116  18.077  0.00  0.00    +0.000 OA
ATOM     20  C   UNL     1       3.834   3.557  19.413  0.00  0.00    +0.000 C 
BRANCH  17  22
ATOM     21  O   UNL     1       2.211   3.129  21.917  0.00  0.00    +0.000 OA
ATOM     22  C   UNL     1       1.698   3.718  20.966  0.00  0.00    +0.000 C 
ENDBRANCH  17  22
ENDBRANCH  11  17
ENDBRANCH   1  15
BRANCH   8  23
ATOM     23  C   UNL     1      -1.424  10.249  17.823  0.00  0.00    +0.000 C 
ATOM     24  F   UNL     1      -0.735   9.329  17.096  0.00  0.00    +0.000 F 
ATOM     25  F   UNL     1      -2.578   9.630  18.200  0.00  0.00    +0.000 F 
ATOM     26  F   UNL     1      -1.791  11.223  16.946  0.00  0.00    +0.000 F 
ENDBRANCH   8  23
BRANCH   6  27
ATOM     27  C   UNL     1       1.347  14.003  19.837  0.00  0.00    +0.000 C 
BRANCH  27  28
ATOM     28  N   UNL     1       0.876  14.817  18.703  0.00  0.00    +0.000 NA
ATOM     29  C   UNL     1       1.778  15.989  18.574  0.00  0.00    +0.000 C 
ATOM     30  C   UNL     1       0.567  16.922  18.601  0.00  0.00    +0.000 C 
ATOM     31  C   UNL     1      -0.242  15.708  19.077  0.00  0.00    +0.000 C 
ENDBRANCH  27  28
ENDBRANCH   6  27
TORSDOF 6
ENDMDL
