MODEL 1
REMARK VINA RESULT:      -9.0      0.000      0.000
REMARK  Name = 
REMARK  5 active torsions:
REMARK  status: ('A' for Active; 'I' for Inactive)
REMARK    1  A    between atoms: C_1  and  C_2
REMARK    2  A    between atoms: N_4  and  C_5
REMARK    3  A    between atoms: C_7  and  C_8
REMARK    4  A    between atoms: N_19  and  C_20
REMARK    5  A    between atoms: C_27  and  C_28
REMARK                            x       y       z     vdW  Elec       q    Type
REMARK                         _______ _______ _______ _____ _____    ______ ____
ROOT
ATOM      1  C   UNL     1       1.679   8.542  19.334  0.00  0.00    +0.000 C 
ATOM      2  O   UNL     1       2.015   8.024  20.396  0.00  0.00    +0.000 OA
ATOM      3  N   UNL     1       2.200   8.214  18.096  0.00  0.00    +0.000 N 
ATOM      4  C   UNL     1       3.239   7.318  17.980  0.00  0.00    +0.000 A 
ATOM      5  N   UNL     1       4.286   7.585  17.233  0.00  0.00    +0.000 NA
ATOM      6  C   UNL     1       5.141   6.531  17.405  0.00  0.00    +0.000 A 
ATOM      7  C   UNL     1       6.448   6.360  16.920  0.00  0.00    +0.000 A 
ATOM      8  C   UNL     1       7.125   5.167  17.197  0.00  0.00    +0.000 A 
ATOM      9  C   UNL     1       6.506   4.154  17.925  0.00  0.00    +0.000 A 
ATOM     10  C   UNL     1       5.208   4.310  18.420  0.00  0.00    +0.000 A 
ATOM     11  C   UNL     1       4.552   5.526  18.167  0.00  0.00    +0.000 A 
ATOM     12  N   UNL     1       3.310   6.040  18.508  0.00  0.00    +0.000 N 
ATOM     13  H   UNL     1       2.223   8.922  17.375  0.00  0.00    +0.000 HD
ENDROOT
BRANCH   1  16
ATOM     14  C   UNL     1      -1.171  10.910  18.328  0.00  0.00    +0.000 A 
ATOM     15  C   UNL     1      -0.116   9.987  18.233  0.00  0.00    +0.000 A 
ATOM     16  C   UNL     1       0.611   9.595  19.362  0.00  0.00    +0.000 A 
ATOM     17  C   UNL     1       0.315  10.186  20.596  0.00  0.00    +0.000 A 
ATOM     18  C   UNL     1      -0.705  11.133  20.697  0.00  0.00    +0.000 A 
ATOM     19  C   UNL     1      -1.462  11.499  19.576  0.00  0.00    +0.000 A 
ATOM     20  C   UNL     1      -2.570  12.501  19.764  0.00  0.00    +0.000 C 
BRANCH  14  24
ATOM     21  C   UNL     1      -3.582  11.162  15.427  0.00  0.00    +0.000 C 
ATOM     22  C   UNL     1      -2.986  10.512  16.647  0.00  0.00    +0.000 C 
ATOM     23  O   UNL     1      -3.419   9.442  17.061  0.00  0.00    +0.000 OA
ATOM     24  N   UNL     1      -1.956  11.260  17.199  0.00  0.00    +0.000 N 
ATOM     25  H   UNL     1      -1.824  12.190  16.821  0.00  0.00    +0.000 HD
ENDBRANCH  14  24
ENDBRANCH   1  16
BRANCH  12  26
ATOM     26  C   UNL     1       2.230   5.298  19.138  0.00  0.00    +0.000 C 
ATOM     27  C   UNL     1       2.572   4.695  20.501  0.00  0.00    +0.000 C 
ATOM     28  C   UNL     1       1.638   3.503  20.676  0.00  0.00    +0.000 C 
ATOM     29  C   UNL     1       0.986   3.239  19.322  0.00  0.00    +0.000 C 
ATOM     30  C   UNL     1       1.721   4.110  18.314  0.00  0.00    +0.000 C 
ENDBRANCH  12  26
TORSDOF 3
ENDMDL
MODEL 2
REMARK VINA RESULT:      -8.6      2.472      2.647
REMARK  Name = 
REMARK  5 active torsions:
REMARK  status: ('A' for Active; 'I' for Inactive)
REMARK    1  A    between atoms: C_1  and  C_2
REMARK    2  A    between atoms: N_4  and  C_5
REMARK    3  A    between atoms: C_7  and  C_8
REMARK    4  A    between atoms: N_19  and  C_20
REMARK    5  A    between atoms: C_27  and  C_28
REMARK                            x       y       z     vdW  Elec       q    Type
REMARK                         _______ _______ _______ _____ _____    ______ ____
ROOT
ATOM      1  C   UNL     1       1.886   7.815  20.242  0.00  0.00    +0.000 C 
ATOM      2  O   UNL     1       2.368   6.939  20.955  0.00  0.00    +0.000 OA
ATOM      3  N   UNL     1       2.056   7.899  18.872  0.00  0.00    +0.000 N 
ATOM      4  C   UNL     1       2.888   7.027  18.206  0.00  0.00    +0.000 A 
ATOM      5  N   UNL     1       3.767   7.461  17.332  0.00  0.00    +0.000 NA
ATOM      6  C   UNL     1       4.463   6.354  16.928  0.00  0.00    +0.000 A 
ATOM      7  C   UNL     1       5.582   6.268  16.085  0.00  0.00    +0.000 A 
ATOM      8  C   UNL     1       6.108   5.009  15.779  0.00  0.00    +0.000 A 
ATOM      9  C   UNL     1       5.519   3.853  16.286  0.00  0.00    +0.000 A 
ATOM     10  C   UNL     1       4.408   3.921  17.132  0.00  0.00    +0.000 A 
ATOM     11  C   UNL     1       3.911   5.192  17.461  0.00  0.00    +0.000 A 
ATOM     12  N   UNL     1       2.874   5.644  18.264  0.00  0.00    +0.000 N 
ATOM     13  H   UNL     1       2.025   8.810  18.433  0.00  0.00    +0.000 HD
ENDROOT
BRANCH   1  16
ATOM     14  C   UNL     1      -0.172  10.994  20.874  0.00  0.00    +0.000 A 
ATOM     15  C   UNL     1       0.710  10.082  20.270  0.00  0.00    +0.000 A 
ATOM     16  C   UNL     1       1.031   8.866  20.884  0.00  0.00    +0.000 A 
ATOM     17  C   UNL     1       0.508   8.591  22.153  0.00  0.00    +0.000 A 
ATOM     18  C   UNL     1      -0.338   9.506  22.781  0.00  0.00    +0.000 A 
ATOM     19  C   UNL     1      -0.694  10.707  22.151  0.00  0.00    +0.000 A 
ATOM     20  C   UNL     1      -1.639  11.632  22.872  0.00  0.00    +0.000 C 
BRANCH  14  24
ATOM     21  C   UNL     1      -0.522  14.453  19.389  0.00  0.00    +0.000 C 
ATOM     22  C   UNL     1       0.206  13.350  20.108  0.00  0.00    +0.000 C 
ATOM     23  O   UNL     1       1.352  13.516  20.512  0.00  0.00    +0.000 OA
ATOM     24  N   UNL     1      -0.555  12.197  20.225  0.00  0.00    +0.000 N 
ATOM     25  H   UNL     1      -1.425  12.178  19.706  0.00  0.00    +0.000 HD
ENDBRANCH  14  24
ENDBRANCH   1  16
BRANCH  12  26
ATOM     26  C   UNL     1       1.863   4.808  18.889  0.00  0.00    +0.000 C 
ATOM     27  C   UNL     1       2.347   4.003  20.096  0.00  0.00    +0.000 C 
ATOM     28  C   UNL     1       1.423   2.795  20.189  0.00  0.00    +0.000 C 
ATOM     29  C   UNL     1       0.620   2.741  18.893  0.00  0.00    +0.000 C 
ATOM     30  C   UNL     1       1.248   3.760  17.955  0.00  0.00    +0.000 C 
ENDBRANCH  12  26
TORSDOF 3
ENDMDL
MODEL 3
REMARK VINA RESULT:      -8.5      1.438      1.808
REMARK  Name = 
REMARK  5 active torsions:
REMARK  status: ('A' for Active; 'I' for Inactive)
REMARK    1  A    between atoms: C_1  and  C_2
REMARK    2  A    between atoms: N_4  and  C_5
REMARK    3  A    between atoms: C_7  and  C_8
REMARK    4  A    between atoms: N_19  and  C_20
REMARK    5  A    between atoms: C_27  and  C_28
REMARK                            x       y       z     vdW  Elec       q    Type
REMARK                         _______ _______ _______ _____ _____    ______ ____
ROOT
ATOM      1  C   UNL     1       2.025   7.644  20.076  0.00  0.00    +0.000 C 
ATOM      2  O   UNL     1       2.529   6.790  20.802  0.00  0.00    +0.000 OA
ATOM      3  N   UNL     1       2.188   7.709  18.704  0.00  0.00    +0.000 N 
ATOM      4  C   UNL     1       3.036   6.844  18.049  0.00  0.00    +0.000 A 
ATOM      5  N   UNL     1       3.902   7.281  17.165  0.00  0.00    +0.000 NA
ATOM      6  C   UNL     1       4.620   6.184  16.776  0.00  0.00    +0.000 A 
ATOM      7  C   UNL     1       5.738   6.108  15.931  0.00  0.00    +0.000 A 
ATOM      8  C   UNL     1       6.290   4.855  15.643  0.00  0.00    +0.000 A 
ATOM      9  C   UNL     1       5.728   3.696  16.172  0.00  0.00    +0.000 A 
ATOM     10  C   UNL     1       4.619   3.753  17.021  0.00  0.00    +0.000 A 
ATOM     11  C   UNL     1       4.096   5.019  17.330  0.00  0.00    +0.000 A 
ATOM     12  N   UNL     1       3.052   5.461  18.130  0.00  0.00    +0.000 N 
ATOM     13  H   UNL     1       2.136   8.611  18.251  0.00  0.00    +0.000 HD
ENDROOT
BRANCH   1  16
ATOM     14  C   UNL     1      -0.533  10.457  20.608  0.00  0.00    +0.000 A 
ATOM     15  C   UNL     1       0.340   9.560  19.970  0.00  0.00    +0.000 A 
ATOM     16  C   UNL     1       1.150   8.686  20.705  0.00  0.00    +0.000 A 
ATOM     17  C   UNL     1       1.127   8.759  22.102  0.00  0.00    +0.000 A 
ATOM     18  C   UNL     1       0.293   9.672  22.748  0.00  0.00    +0.000 A 
ATOM     19  C   UNL     1      -0.548  10.521  22.016  0.00  0.00    +0.000 A 
ATOM     20  C   UNL     1      -1.448  11.457  22.779  0.00  0.00    +0.000 C 
BRANCH  14  24
ATOM     21  C   UNL     1      -2.935  12.089  18.187  0.00  0.00    +0.000 C 
ATOM     22  C   UNL     1      -2.141  10.940  18.747  0.00  0.00    +0.000 C 
ATOM     23  O   UNL     1      -2.191   9.831  18.227  0.00  0.00    +0.000 OA
ATOM     24  N   UNL     1      -1.406  11.297  19.868  0.00  0.00    +0.000 N 
ATOM     25  H   UNL     1      -1.592  12.214  20.254  0.00  0.00    +0.000 HD
ENDBRANCH  14  24
ENDBRANCH   1  16
BRANCH  12  26
ATOM     26  C   UNL     1       2.061   4.615  18.773  0.00  0.00    +0.000 C 
ATOM     27  C   UNL     1       2.607   3.706  19.876  0.00  0.00    +0.000 C 
ATOM     28  C   UNL     1       1.647   2.525  19.956  0.00  0.00    +0.000 C 
ATOM     29  C   UNL     1       0.743   2.595  18.728  0.00  0.00    +0.000 C 
ATOM     30  C   UNL     1       1.335   3.661  17.818  0.00  0.00    +0.000 C 
ENDBRANCH  12  26
TORSDOF 3
ENDMDL
MODEL 4
REMARK VINA RESULT:      -8.4      1.710      2.809
REMARK  Name = 
REMARK  5 active torsions:
REMARK  status: ('A' for Active; 'I' for Inactive)
REMARK    1  A    between atoms: C_1  and  C_2
REMARK    2  A    between atoms: N_4  and  C_5
REMARK    3  A    between atoms: C_7  and  C_8
REMARK    4  A    between atoms: N_19  and  C_20
REMARK    5  A    between atoms: C_27  and  C_28
REMARK                            x       y       z     vdW  Elec       q    Type
REMARK                         _______ _______ _______ _____ _____    ______ ____
ROOT
ATOM      1  C   UNL     1       1.466   8.578  19.402  0.00  0.00    +0.000 C 
ATOM      2  O   UNL     1       1.858   8.120  20.473  0.00  0.00    +0.000 OA
ATOM      3  N   UNL     1       1.962   8.220  18.162  0.00  0.00    +0.000 N 
ATOM      4  C   UNL     1       3.036   7.366  18.048  0.00  0.00    +0.000 A 
ATOM      5  N   UNL     1       4.046   7.647  17.256  0.00  0.00    +0.000 NA
ATOM      6  C   UNL     1       4.953   6.639  17.443  0.00  0.00    +0.000 A 
ATOM      7  C   UNL     1       6.250   6.505  16.923  0.00  0.00    +0.000 A 
ATOM      8  C   UNL     1       6.988   5.356  17.225  0.00  0.00    +0.000 A 
ATOM      9  C   UNL     1       6.439   4.349  18.015  0.00  0.00    +0.000 A 
ATOM     10  C   UNL     1       5.151   4.469  18.547  0.00  0.00    +0.000 A 
ATOM     11  C   UNL     1       4.434   5.643  18.265  0.00  0.00    +0.000 A 
ATOM     12  N   UNL     1       3.181   6.116  18.626  0.00  0.00    +0.000 N 
ATOM     13  H   UNL     1       1.930   8.897  17.411  0.00  0.00    +0.000 HD
ENDROOT
BRANCH   1  16
ATOM     14  C   UNL     1      -1.018  11.286  20.516  0.00  0.00    +0.000 A 
ATOM     15  C   UNL     1      -0.031  10.287  20.569  0.00  0.00    +0.000 A 
ATOM     16  C   UNL     1       0.353   9.583  19.422  0.00  0.00    +0.000 A 
ATOM     17  C   UNL     1      -0.309   9.843  18.216  0.00  0.00    +0.000 A 
ATOM     18  C   UNL     1      -1.317  10.806  18.159  0.00  0.00    +0.000 A 
ATOM     19  C   UNL     1      -1.676  11.541  19.296  0.00  0.00    +0.000 A 
ATOM     20  C   UNL     1      -2.749  12.589  19.154  0.00  0.00    +0.000 C 
BRANCH  14  24
ATOM     21  C   UNL     1      -1.239  13.612  23.488  0.00  0.00    +0.000 C 
ATOM     22  C   UNL     1      -0.583  13.025  22.268  0.00  0.00    +0.000 C 
ATOM     23  O   UNL     1       0.518  13.418  21.898  0.00  0.00    +0.000 OA
ATOM     24  N   UNL     1      -1.362  12.051  21.661  0.00  0.00    +0.000 N 
ATOM     25  H   UNL     1      -2.308  11.952  22.008  0.00  0.00    +0.000 HD
ENDBRANCH  14  24
ENDBRANCH   1  16
BRANCH  12  26
ATOM     26  C   UNL     1       2.156   5.355  19.321  0.00  0.00    +0.000 C 
ATOM     27  C   UNL     1       2.578   4.799  20.682  0.00  0.00    +0.000 C 
ATOM     28  C   UNL     1       1.695   3.581  20.927  0.00  0.00    +0.000 C 
ATOM     29  C   UNL     1       0.993   3.262  19.611  0.00  0.00    +0.000 C 
ATOM     30  C   UNL     1       1.651   4.131  18.550  0.00  0.00    +0.000 C 
ENDBRANCH  12  26
TORSDOF 3
ENDMDL
MODEL 5
REMARK VINA RESULT:      -8.4      2.059      8.440
REMARK  Name = 
REMARK  5 active torsions:
REMARK  status: ('A' for Active; 'I' for Inactive)
REMARK    1  A    between atoms: C_1  and  C_2
REMARK    2  A    between atoms: N_4  and  C_5
REMARK    3  A    between atoms: C_7  and  C_8
REMARK    4  A    between atoms: N_19  and  C_20
REMARK    5  A    between atoms: C_27  and  C_28
REMARK                            x       y       z     vdW  Elec       q    Type
REMARK                         _______ _______ _______ _____ _____    ______ ____
ROOT
ATOM      1  C   UNL     1       1.397   9.115  19.154  0.00  0.00    +0.000 C 
ATOM      2  O   UNL     1       1.508  10.046  18.360  0.00  0.00    +0.000 OA
ATOM      3  N   UNL     1       0.527   9.094  20.229  0.00  0.00    +0.000 N 
ATOM      4  C   UNL     1      -0.232  10.197  20.548  0.00  0.00    +0.000 A 
ATOM      5  N   UNL     1      -0.307  10.637  21.783  0.00  0.00    +0.000 NA
ATOM      6  C   UNL     1      -1.069  11.772  21.726  0.00  0.00    +0.000 A 
ATOM      7  C   UNL     1      -1.371  12.690  22.744  0.00  0.00    +0.000 A 
ATOM      8  C   UNL     1      -2.213  13.770  22.458  0.00  0.00    +0.000 A 
ATOM      9  C   UNL     1      -2.762  13.923  21.187  0.00  0.00    +0.000 A 
ATOM     10  C   UNL     1      -2.467  13.021  20.160  0.00  0.00    +0.000 A 
ATOM     11  C   UNL     1      -1.592  11.961  20.450  0.00  0.00    +0.000 A 
ATOM     12  N   UNL     1      -1.063  10.917  19.705  0.00  0.00    +0.000 N 
ATOM     13  H   UNL     1       0.776   8.551  21.045  0.00  0.00    +0.000 HD
ENDROOT
BRANCH   1  16
ATOM     14  C   UNL     1       3.004   5.649  19.538  0.00  0.00    +0.000 A 
ATOM     15  C   UNL     1       2.265   6.809  19.826  0.00  0.00    +0.000 A 
ATOM     16  C   UNL     1       2.244   7.896  18.945  0.00  0.00    +0.000 A 
ATOM     17  C   UNL     1       3.029   7.841  17.787  0.00  0.00    +0.000 A 
ATOM     18  C   UNL     1       3.798   6.711  17.509  0.00  0.00    +0.000 A 
ATOM     19  C   UNL     1       3.790   5.605  18.369  0.00  0.00    +0.000 A 
ATOM     20  C   UNL     1       4.616   4.405  17.989  0.00  0.00    +0.000 C 
BRANCH  14  24
ATOM     21  C   UNL     1       2.187   2.613  21.637  0.00  0.00    +0.000 C 
ATOM     22  C   UNL     1       1.880   3.703  20.647  0.00  0.00    +0.000 C 
ATOM     23  O   UNL     1       0.764   3.797  20.145  0.00  0.00    +0.000 OA
ATOM     24  N   UNL     1       2.974   4.517  20.394  0.00  0.00    +0.000 N 
ATOM     25  H   UNL     1       3.860   4.211  20.777  0.00  0.00    +0.000 HD
ENDBRANCH  14  24
ENDBRANCH   1  16
BRANCH  12  26
ATOM     26  C   UNL     1      -1.460  10.555  18.355  0.00  0.00    +0.000 C 
ATOM     27  C   UNL     1      -1.655  11.734  17.401  0.00  0.00    +0.000 C 
ATOM     28  C   UNL     1      -2.631  11.251  16.335  0.00  0.00    +0.000 C 
ATOM     29  C   UNL     1      -3.220   9.932  16.828  0.00  0.00    +0.000 C 
ATOM     30  C   UNL     1      -2.778   9.778  18.275  0.00  0.00    +0.000 C 
ENDBRANCH  12  26
TORSDOF 3
ENDMDL
MODEL 6
REMARK VINA RESULT:      -8.3      2.499      4.343
REMARK  Name = 
REMARK  5 active torsions:
REMARK  status: ('A' for Active; 'I' for Inactive)
REMARK    1  A    between atoms: C_1  and  C_2
REMARK    2  A    between atoms: N_4  and  C_5
REMARK    3  A    between atoms: C_7  and  C_8
REMARK    4  A    between atoms: N_19  and  C_20
REMARK    5  A    between atoms: C_27  and  C_28
REMARK                            x       y       z     vdW  Elec       q    Type
REMARK                         _______ _______ _______ _____ _____    ______ ____
ROOT
ATOM      1  C   UNL     1       1.993   8.263  18.462  0.00  0.00    +0.000 C 
ATOM      2  O   UNL     1       2.217   7.987  17.286  0.00  0.00    +0.000 OA
ATOM      3  N   UNL     1       2.099   7.374  19.516  0.00  0.00    +0.000 N 
ATOM      4  C   UNL     1       2.378   6.044  19.295  0.00  0.00    +0.000 A 
ATOM      5  N   UNL     1       1.679   5.097  19.878  0.00  0.00    +0.000 NA
ATOM      6  C   UNL     1       2.169   3.919  19.383  0.00  0.00    +0.000 A 
ATOM      7  C   UNL     1       1.708   2.609  19.592  0.00  0.00    +0.000 A 
ATOM      8  C   UNL     1       2.399   1.544  19.005  0.00  0.00    +0.000 A 
ATOM      9  C   UNL     1       3.540   1.775  18.240  0.00  0.00    +0.000 A 
ATOM     10  C   UNL     1       4.008   3.073  18.017  0.00  0.00    +0.000 A 
ATOM     11  C   UNL     1       3.285   4.137  18.581  0.00  0.00    +0.000 A 
ATOM     12  N   UNL     1       3.425   5.516  18.557  0.00  0.00    +0.000 N 
ATOM     13  H   UNL     1       1.515   7.512  20.330  0.00  0.00    +0.000 HD
ENDROOT
BRANCH   1  16
ATOM     14  C   UNL     1       0.320  11.322  20.071  0.00  0.00    +0.000 A 
ATOM     15  C   UNL     1       0.590   9.989  19.718  0.00  0.00    +0.000 A 
ATOM     16  C   UNL     1       1.597   9.670  18.800  0.00  0.00    +0.000 A 
ATOM     17  C   UNL     1       2.301  10.709  18.181  0.00  0.00    +0.000 A 
ATOM     18  C   UNL     1       2.015  12.039  18.493  0.00  0.00    +0.000 A 
ATOM     19  C   UNL     1       1.035  12.361  19.442  0.00  0.00    +0.000 A 
ATOM     20  C   UNL     1       0.804  13.815  19.756  0.00  0.00    +0.000 C 
BRANCH  14  24
ATOM     21  C   UNL     1      -1.865  11.729  23.130  0.00  0.00    +0.000 C 
ATOM     22  C   UNL     1      -0.663  11.229  22.375  0.00  0.00    +0.000 C 
ATOM     23  O   UNL     1       0.184  10.538  22.931  0.00  0.00    +0.000 OA
ATOM     24  N   UNL     1      -0.653  11.647  21.052  0.00  0.00    +0.000 N 
ATOM     25  H   UNL     1      -1.349  12.335  20.793  0.00  0.00    +0.000 HD
ENDBRANCH  14  24
ENDBRANCH   1  16
BRANCH  12  26
ATOM     26  C   UNL     1       4.560   6.243  18.015  0.00  0.00    +0.000 C 
ATOM     27  C   UNL     1       4.826   6.008  16.527  0.00  0.00    +0.000 C 
ATOM     28  C   UNL     1       6.309   6.289  16.319  0.00  0.00    +0.000 C 
ATOM     29  C   UNL     1       6.948   6.388  17.701  0.00  0.00    +0.000 C 
ATOM     30  C   UNL     1       5.895   5.921  18.696  0.00  0.00    +0.000 C 
ENDBRANCH  12  26
TORSDOF 3
ENDMDL
MODEL 7
REMARK VINA RESULT:      -8.1      2.797      4.553
REMARK  Name = 
REMARK  5 active torsions:
REMARK  status: ('A' for Active; 'I' for Inactive)
REMARK    1  A    between atoms: C_1  and  C_2
REMARK    2  A    between atoms: N_4  and  C_5
REMARK    3  A    between atoms: C_7  and  C_8
REMARK    4  A    between atoms: N_19  and  C_20
REMARK    5  A    between atoms: C_27  and  C_28
REMARK                            x       y       z     vdW  Elec       q    Type
REMARK                         _______ _______ _______ _____ _____    ______ ____
ROOT
ATOM      1  C   UNL     1       2.115   8.401  18.345  0.00  0.00    +0.000 C 
ATOM      2  O   UNL     1       2.351   8.141  17.167  0.00  0.00    +0.000 OA
ATOM      3  N   UNL     1       2.185   7.491  19.383  0.00  0.00    +0.000 N 
ATOM      4  C   UNL     1       2.441   6.160  19.143  0.00  0.00    +0.000 A 
ATOM      5  N   UNL     1       1.713   5.217  19.698  0.00  0.00    +0.000 NA
ATOM      6  C   UNL     1       2.186   4.038  19.189  0.00  0.00    +0.000 A 
ATOM      7  C   UNL     1       1.696   2.735  19.368  0.00  0.00    +0.000 A 
ATOM      8  C   UNL     1       2.374   1.666  18.773  0.00  0.00    +0.000 A 
ATOM      9  C   UNL     1       3.532   1.887  18.030  0.00  0.00    +0.000 A 
ATOM     10  C   UNL     1       4.030   3.179  17.837  0.00  0.00    +0.000 A 
ATOM     11  C   UNL     1       3.320   4.247  18.409  0.00  0.00    +0.000 A 
ATOM     12  N   UNL     1       3.488   5.624  18.412  0.00  0.00    +0.000 N 
ATOM     13  H   UNL     1       1.591   7.627  20.190  0.00  0.00    +0.000 HD
ENDROOT
BRANCH   1  16
ATOM     14  C   UNL     1       1.861  12.232  18.399  0.00  0.00    +0.000 A 
ATOM     15  C   UNL     1       2.311  10.936  18.097  0.00  0.00    +0.000 A 
ATOM     16  C   UNL     1       1.742   9.809  18.702  0.00  0.00    +0.000 A 
ATOM     17  C   UNL     1       0.749   9.992  19.671  0.00  0.00    +0.000 A 
ATOM     18  C   UNL     1       0.321  11.277  20.008  0.00  0.00    +0.000 A 
ATOM     19  C   UNL     1       0.860  12.405  19.376  0.00  0.00    +0.000 A 
ATOM     20  C   UNL     1       0.326  13.758  19.763  0.00  0.00    +0.000 C 
BRANCH  14  24
ATOM     21  C   UNL     1       3.617  15.395  17.298  0.00  0.00    +0.000 C 
ATOM     22  C   UNL     1       3.302  14.278  18.256  0.00  0.00    +0.000 C 
ATOM     23  O   UNL     1       3.839  14.228  19.358  0.00  0.00    +0.000 OA
ATOM     24  N   UNL     1       2.388  13.373  17.738  0.00  0.00    +0.000 N 
ATOM     25  H   UNL     1       2.156  13.480  16.758  0.00  0.00    +0.000 HD
ENDBRANCH  14  24
ENDBRANCH   1  16
BRANCH  12  26
ATOM     26  C   UNL     1       4.647   6.337  17.901  0.00  0.00    +0.000 C 
ATOM     27  C   UNL     1       4.943   6.106  16.418  0.00  0.00    +0.000 C 
ATOM     28  C   UNL     1       6.435   6.366  16.245  0.00  0.00    +0.000 C 
ATOM     29  C   UNL     1       7.043   6.447  17.643  0.00  0.00    +0.000 C 
ATOM     30  C   UNL     1       5.961   5.990  18.610  0.00  0.00    +0.000 C 
ENDBRANCH  12  26
TORSDOF 3
ENDMDL
MODEL 8
REMARK VINA RESULT:      -8.0      1.970      8.294
REMARK  Name = 
REMARK  5 active torsions:
REMARK  status: ('A' for Active; 'I' for Inactive)
REMARK    1  A    between atoms: C_1  and  C_2
REMARK    2  A    between atoms: N_4  and  C_5
REMARK    3  A    between atoms: C_7  and  C_8
REMARK    4  A    between atoms: N_19  and  C_20
REMARK    5  A    between atoms: C_27  and  C_28
REMARK                            x       y       z     vdW  Elec       q    Type
REMARK                         _______ _______ _______ _____ _____    ______ ____
ROOT
ATOM      1  C   UNL     1       1.623   8.940  18.434  0.00  0.00    +0.000 C 
ATOM      2  O   UNL     1       1.628   9.902  17.670  0.00  0.00    +0.000 OA
ATOM      3  N   UNL     1       0.879   8.859  19.597  0.00  0.00    +0.000 N 
ATOM      4  C   UNL     1       0.141   9.933  20.042  0.00  0.00    +0.000 A 
ATOM      5  N   UNL     1       0.197  10.325  21.294  0.00  0.00    +0.000 NA
ATOM      6  C   UNL     1      -0.587  11.443  21.368  0.00  0.00    +0.000 A 
ATOM      7  C   UNL     1      -0.789  12.316  22.448  0.00  0.00    +0.000 A 
ATOM      8  C   UNL     1      -1.676  13.387  22.301  0.00  0.00    +0.000 A 
ATOM      9  C   UNL     1      -2.366  13.575  21.105  0.00  0.00    +0.000 A 
ATOM     10  C   UNL     1      -2.172  12.719  20.017  0.00  0.00    +0.000 A 
ATOM     11  C   UNL     1      -1.252  11.669  20.166  0.00  0.00    +0.000 A 
ATOM     12  N   UNL     1      -0.791  10.666  19.326  0.00  0.00    +0.000 N 
ATOM     13  H   UNL     1       1.227   8.292  20.359  0.00  0.00    +0.000 HD
ENDROOT
BRANCH   1  16
ATOM     14  C   UNL     1       2.849   5.341  17.893  0.00  0.00    +0.000 A 
ATOM     15  C   UNL     1       2.068   6.427  18.325  0.00  0.00    +0.000 A 
ATOM     16  C   UNL     1       2.463   7.748  18.084  0.00  0.00    +0.000 A 
ATOM     17  C   UNL     1       3.691   7.982  17.455  0.00  0.00    +0.000 A 
ATOM     18  C   UNL     1       4.494   6.913  17.056  0.00  0.00    +0.000 A 
ATOM     19  C   UNL     1       4.083   5.589  17.259  0.00  0.00    +0.000 A 
ATOM     20  C   UNL     1       4.983   4.484  16.772  0.00  0.00    +0.000 C 
BRANCH  14  24
ATOM     21  C   UNL     1       1.981   1.857  19.075  0.00  0.00    +0.000 C 
ATOM     22  C   UNL     1       2.490   3.262  19.246  0.00  0.00    +0.000 C 
ATOM     23  O   UNL     1       2.900   3.653  20.334  0.00  0.00    +0.000 OA
ATOM     24  N   UNL     1       2.420   4.000  18.073  0.00  0.00    +0.000 N 
ATOM     25  H   UNL     1       1.918   3.574  17.304  0.00  0.00    +0.000 HD
ENDBRANCH  14  24
ENDBRANCH   1  16
BRANCH  12  26
ATOM     26  C   UNL     1      -1.330  10.345  18.015  0.00  0.00    +0.000 C 
ATOM     27  C   UNL     1      -1.556  11.549  17.099  0.00  0.00    +0.000 C 
ATOM     28  C   UNL     1      -2.650  11.131  16.123  0.00  0.00    +0.000 C 
ATOM     29  C   UNL     1      -3.254   9.834  16.653  0.00  0.00    +0.000 C 
ATOM     30  C   UNL     1      -2.687   9.634  18.050  0.00  0.00    +0.000 C 
ENDBRANCH  12  26
TORSDOF 3
ENDMDL
MODEL 9
REMARK VINA RESULT:      -7.7      2.177      8.442
REMARK  Name = 
REMARK  5 active torsions:
REMARK  status: ('A' for Active; 'I' for Inactive)
REMARK    1  A    between atoms: C_1  and  C_2
REMARK    2  A    between atoms: N_4  and  C_5
REMARK    3  A    between atoms: C_7  and  C_8
REMARK    4  A    between atoms: N_19  and  C_20
REMARK    5  A    between atoms: C_27  and  C_28
REMARK                            x       y       z     vdW  Elec       q    Type
REMARK                         _______ _______ _______ _____ _____    ______ ____
ROOT
ATOM      1  C   UNL     1       1.793   8.360  18.627  0.00  0.00    +0.000 C 
ATOM      2  O   UNL     1       1.708   8.582  19.833  0.00  0.00    +0.000 OA
ATOM      3  N   UNL     1       0.997   8.945  17.660  0.00  0.00    +0.000 N 
ATOM      4  C   UNL     1      -0.048   9.773  18.006  0.00  0.00    +0.000 A 
ATOM      5  N   UNL     1      -1.237   9.628  17.468  0.00  0.00    +0.000 NA
ATOM      6  C   UNL     1      -2.037  10.550  18.086  0.00  0.00    +0.000 A 
ATOM      7  C   UNL     1      -3.422  10.748  17.963  0.00  0.00    +0.000 A 
ATOM      8  C   UNL     1      -4.025  11.790  18.674  0.00  0.00    +0.000 A 
ATOM      9  C   UNL     1      -3.262  12.634  19.477  0.00  0.00    +0.000 A 
ATOM     10  C   UNL     1      -1.884  12.447  19.616  0.00  0.00    +0.000 A 
ATOM     11  C   UNL     1      -1.295  11.375  18.926  0.00  0.00    +0.000 A 
ATOM     12  N   UNL     1      -0.004  10.877  18.841  0.00  0.00    +0.000 N 
ATOM     13  H   UNL     1       0.813   8.434  16.807  0.00  0.00    +0.000 HD
ENDROOT
BRANCH   1  16
ATOM     14  C   UNL     1       3.870   5.189  18.018  0.00  0.00    +0.000 A 
ATOM     15  C   UNL     1       2.921   6.070  18.564  0.00  0.00    +0.000 A 
ATOM     16  C   UNL     1       2.846   7.405  18.152  0.00  0.00    +0.000 A 
ATOM     17  C   UNL     1       3.780   7.878  17.222  0.00  0.00    +0.000 A 
ATOM     18  C   UNL     1       4.752   7.023  16.701  0.00  0.00    +0.000 A 
ATOM     19  C   UNL     1       4.804   5.676  17.082  0.00  0.00    +0.000 A 
ATOM     20  C   UNL     1       5.857   4.802  16.454  0.00  0.00    +0.000 C 
BRANCH  14  24
ATOM     21  C   UNL     1       3.366   1.477  18.527  0.00  0.00    +0.000 C 
ATOM     22  C   UNL     1       3.081   2.813  17.897  0.00  0.00    +0.000 C 
ATOM     23  O   UNL     1       2.206   2.931  17.045  0.00  0.00    +0.000 OA
ATOM     24  N   UNL     1       3.906   3.818  18.382  0.00  0.00    +0.000 N 
ATOM     25  H   UNL     1       4.673   3.522  18.973  0.00  0.00    +0.000 HD
ENDBRANCH  14  24
ENDBRANCH   1  16
BRANCH  12  26
ATOM     26  C   UNL     1       1.186  11.512  19.382  0.00  0.00    +0.000 C 
ATOM     27  C   UNL     1       1.021  12.109  20.781  0.00  0.00    +0.000 C 
ATOM     28  C   UNL     1       2.063  13.215  20.889  0.00  0.00    +0.000 C 
ATOM     29  C   UNL     1       2.611  13.457  19.485  0.00  0.00    +0.000 C 
ATOM     30  C   UNL     1       1.718  12.673  18.534  0.00  0.00    +0.000 C 
ENDBRANCH  12  26
TORSDOF 3
ENDMDL
