MODEL 1
REMARK VINA RESULT:      -9.8      0.000      0.000
REMARK  Name = 
REMARK  4 active torsions:
REMARK  status: ('A' for Active; 'I' for Inactive)
REMARK    1  A    between atoms: C_2  and  C_3
REMARK    2  A    between atoms: C_3  and  N_4
REMARK    3  A    between atoms: C_8  and  C_9
REMARK    4  A    between atoms: N_23  and  C_24
REMARK                            x       y       z     vdW  Elec       q    Type
REMARK                         _______ _______ _______ _____ _____    ______ ____
ROOT
ATOM      1  C   UNL     1       4.908   3.591  18.970  0.00  0.00    +0.000 C 
ENDROOT
BRANCH   1   3
ATOM      2  O   UNL     1       6.380   5.346  19.847  0.00  0.00    +0.000 OA
ATOM      3  C   UNL     1       5.924   4.768  18.855  0.00  0.00    +0.000 C 
ATOM      4  N   UNL     1       6.406   5.190  17.637  0.00  0.00    +0.000 N 
ATOM      5  C   UNL     1       6.203   4.606  16.425  0.00  0.00    +0.000 C 
ATOM      6  O   UNL     1       5.506   3.603  16.287  0.00  0.00    +0.000 OA
ATOM      7  N   UNL     1       6.847   5.194  15.364  0.00  0.00    +0.000 N 
ATOM      8  H   UNL     1       7.038   5.972  17.708  0.00  0.00    +0.000 HD
ATOM      9  H   UNL     1       7.729   5.667  15.542  0.00  0.00    +0.000 HD
BRANCH   7  10
ATOM     10  C   UNL     1       6.663   4.706  14.043  0.00  0.00    +0.000 A 
ATOM     11  C   UNL     1       5.571   3.892  13.683  0.00  0.00    +0.000 A 
ATOM     12  C   UNL     1       5.518   3.260  12.449  0.00  0.00    +0.000 A 
ATOM     13  C   UNL     1       6.516   3.496  11.514  0.00  0.00    +0.000 A 
ATOM     14  C   UNL     1       7.551   4.388  11.811  0.00  0.00    +0.000 A 
ATOM     15  C   UNL     1       7.616   4.988  13.067  0.00  0.00    +0.000 A 
ATOM     16  F   UNL     1       8.642   5.803  13.358  0.00  0.00    +0.000 F 
ENDBRANCH   7  10
ENDBRANCH   1   3
BRANCH   1  17
ATOM     17  N   UNL     1       3.562   4.024  19.428  0.00  0.00    +0.000 NA
ATOM     18  C   UNL     1       2.643   2.887  19.551  0.00  0.00    +0.000 C 
ATOM     19  C   UNL     1       2.044   2.710  18.175  0.00  0.00    +0.000 C 
ATOM     20  C   UNL     1       1.844   4.135  17.704  0.00  0.00    +0.000 C 
ATOM     21  C   UNL     1       2.947   4.939  18.414  0.00  0.00    +0.000 C 
BRANCH  21  22
ATOM     22  C   UNL     1       2.413   6.225  19.036  0.00  0.00    +0.000 A 
ATOM     23  C   UNL     1       2.073   6.269  20.400  0.00  0.00    +0.000 A 
ATOM     24  C   UNL     1       1.590   7.444  20.983  0.00  0.00    +0.000 A 
ATOM     25  C   UNL     1       1.401   8.580  20.200  0.00  0.00    +0.000 A 
ATOM     26  C   UNL     1       1.744   8.562  18.850  0.00  0.00    +0.000 A 
ATOM     27  C   UNL     1       2.267   7.402  18.278  0.00  0.00    +0.000 A 
ATOM     28  O   UNL     1       1.652   9.674  18.056  0.00  0.00    +0.000 OA
ATOM     29  C   UNL     1       0.290  10.062  17.860  0.00  0.00    +0.000 C 
ATOM     30  C   UNL     1      -0.262  10.874  19.025  0.00  0.00    +0.000 C 
ATOM     31  C   UNL     1      -0.372  10.040  20.295  0.00  0.00    +0.000 C 
ATOM     32  O   UNL     1       0.913   9.698  20.819  0.00  0.00    +0.000 OA
ENDBRANCH  21  22
ENDBRANCH   1  17
TORSDOF 4
ENDMDL
MODEL 2
REMARK VINA RESULT:      -9.7      4.713      6.884
REMARK  Name = 
REMARK  4 active torsions:
REMARK  status: ('A' for Active; 'I' for Inactive)
REMARK    1  A    between atoms: C_2  and  C_3
REMARK    2  A    between atoms: C_3  and  N_4
REMARK    3  A    between atoms: C_8  and  C_9
REMARK    4  A    between atoms: N_23  and  C_24
REMARK                            x       y       z     vdW  Elec       q    Type
REMARK                         _______ _______ _______ _____ _____    ______ ____
ROOT
ATOM      1  C   UNL     1       7.281   6.315  17.243  0.00  0.00    +0.000 C 
ENDROOT
BRANCH   1   3
ATOM      2  O   UNL     1       8.061   5.348  19.358  0.00  0.00    +0.000 OA
ATOM      3  C   UNL     1       7.944   6.356  18.653  0.00  0.00    +0.000 C 
ATOM      4  N   UNL     1       8.483   7.514  19.165  0.00  0.00    +0.000 N 
ATOM      5  C   UNL     1       8.644   8.702  18.521  0.00  0.00    +0.000 C 
ATOM      6  O   UNL     1       8.277   8.874  17.361  0.00  0.00    +0.000 OA
ATOM      7  N   UNL     1       9.266   9.692  19.241  0.00  0.00    +0.000 N 
ATOM      8  H   UNL     1       8.860   7.402  20.094  0.00  0.00    +0.000 HD
ATOM      9  H   UNL     1       9.946   9.417  19.944  0.00  0.00    +0.000 HD
BRANCH   7  10
ATOM     10  C   UNL     1       9.436  10.991  18.691  0.00  0.00    +0.000 A 
ATOM     11  C   UNL     1       8.360  11.739  18.173  0.00  0.00    +0.000 A 
ATOM     12  C   UNL     1       8.574  12.909  17.459  0.00  0.00    +0.000 A 
ATOM     13  C   UNL     1       9.863  13.402  17.320  0.00  0.00    +0.000 A 
ATOM     14  C   UNL     1      10.933  12.733  17.921  0.00  0.00    +0.000 A 
ATOM     15  C   UNL     1      10.713  11.538  18.604  0.00  0.00    +0.000 A 
ATOM     16  F   UNL     1      11.755  10.879  19.134  0.00  0.00    +0.000 F 
ENDBRANCH   7  10
ENDBRANCH   1   3
BRANCH   1  17
ATOM     17  N   UNL     1       6.644   5.008  16.936  0.00  0.00    +0.000 NA
ATOM     18  C   UNL     1       7.281   4.355  15.786  0.00  0.00    +0.000 C 
ATOM     19  C   UNL     1       6.573   4.909  14.572  0.00  0.00    +0.000 C 
ATOM     20  C   UNL     1       5.131   4.994  15.025  0.00  0.00    +0.000 C 
ATOM     21  C   UNL     1       5.213   5.217  16.545  0.00  0.00    +0.000 C 
BRANCH  21  22
ATOM     22  C   UNL     1       4.259   4.308  17.313  0.00  0.00    +0.000 A 
ATOM     23  C   UNL     1       3.263   3.583  16.633  0.00  0.00    +0.000 A 
ATOM     24  C   UNL     1       2.388   2.740  17.324  0.00  0.00    +0.000 A 
ATOM     25  C   UNL     1       2.469   2.644  18.711  0.00  0.00    +0.000 A 
ATOM     26  C   UNL     1       3.456   3.342  19.403  0.00  0.00    +0.000 A 
ATOM     27  C   UNL     1       4.357   4.149  18.708  0.00  0.00    +0.000 A 
ATOM     28  O   UNL     1       3.628   3.220  20.756  0.00  0.00    +0.000 OA
ATOM     29  C   UNL     1       2.521   3.772  21.473  0.00  0.00    +0.000 C 
ATOM     30  C   UNL     1       1.340   2.813  21.558  0.00  0.00    +0.000 C 
ATOM     31  C   UNL     1       0.714   2.565  20.192  0.00  0.00    +0.000 C 
ATOM     32  O   UNL     1       1.579   1.815  19.338  0.00  0.00    +0.000 OA
ENDBRANCH  21  22
ENDBRANCH   1  17
TORSDOF 4
ENDMDL
MODEL 3
REMARK VINA RESULT:      -9.5      4.911      7.136
REMARK  Name = 
REMARK  4 active torsions:
REMARK  status: ('A' for Active; 'I' for Inactive)
REMARK    1  A    between atoms: C_2  and  C_3
REMARK    2  A    between atoms: C_3  and  N_4
REMARK    3  A    between atoms: C_8  and  C_9
REMARK    4  A    between atoms: N_23  and  C_24
REMARK                            x       y       z     vdW  Elec       q    Type
REMARK                         _______ _______ _______ _____ _____    ______ ____
ROOT
ATOM      1  C   UNL     1       7.222   6.534  17.454  0.00  0.00    +0.000 C 
ENDROOT
BRANCH   1   3
ATOM      2  O   UNL     1       8.210   5.437  19.412  0.00  0.00    +0.000 OA
ATOM      3  C   UNL     1       8.030   6.487  18.786  0.00  0.00    +0.000 C 
ATOM      4  N   UNL     1       8.630   7.609  19.308  0.00  0.00    +0.000 N 
ATOM      5  C   UNL     1       8.735   8.834  18.724  0.00  0.00    +0.000 C 
ATOM      6  O   UNL     1       8.250   9.078  17.621  0.00  0.00    +0.000 OA
ATOM      7  N   UNL     1       9.439   9.776  19.433  0.00  0.00    +0.000 N 
ATOM      8  H   UNL     1       9.101   7.439  20.183  0.00  0.00    +0.000 HD
ATOM      9  H   UNL     1      10.186   9.456  20.043  0.00  0.00    +0.000 HD
BRANCH   7  10
ATOM     10  C   UNL     1       9.564  11.105  18.948  0.00  0.00    +0.000 A 
ATOM     11  C   UNL     1      10.176  11.406  17.715  0.00  0.00    +0.000 A 
ATOM     12  C   UNL     1      10.471  12.713  17.356  0.00  0.00    +0.000 A 
ATOM     13  C   UNL     1      10.084  13.756  18.186  0.00  0.00    +0.000 A 
ATOM     14  C   UNL     1       9.377  13.485  19.361  0.00  0.00    +0.000 A 
ATOM     15  C   UNL     1       9.119  12.167  19.731  0.00  0.00    +0.000 A 
ATOM     16  F   UNL     1       8.484  11.917  20.887  0.00  0.00    +0.000 F 
ENDBRANCH   7  10
ENDBRANCH   1   3
BRANCH   1  17
ATOM     17  N   UNL     1       6.612   5.228  17.094  0.00  0.00    +0.000 NA
ATOM     18  C   UNL     1       7.300   4.607  15.956  0.00  0.00    +0.000 C 
ATOM     19  C   UNL     1       6.633   5.181  14.728  0.00  0.00    +0.000 C 
ATOM     20  C   UNL     1       5.174   5.240  15.127  0.00  0.00    +0.000 C 
ATOM     21  C   UNL     1       5.195   5.430  16.653  0.00  0.00    +0.000 C 
BRANCH  21  22
ATOM     22  C   UNL     1       4.223   4.494  17.365  0.00  0.00    +0.000 A 
ATOM     23  C   UNL     1       3.205   3.844  16.644  0.00  0.00    +0.000 A 
ATOM     24  C   UNL     1       2.313   2.977  17.283  0.00  0.00    +0.000 A 
ATOM     25  C   UNL     1       2.401   2.782  18.659  0.00  0.00    +0.000 A 
ATOM     26  C   UNL     1       3.411   3.405  19.389  0.00  0.00    +0.000 A 
ATOM     27  C   UNL     1       4.328   4.235  18.744  0.00  0.00    +0.000 A 
ATOM     28  O   UNL     1       3.589   3.184  20.729  0.00  0.00    +0.000 OA
ATOM     29  C   UNL     1       2.502   3.713  21.493  0.00  0.00    +0.000 C 
ATOM     30  C   UNL     1       1.297   2.780  21.521  0.00  0.00    +0.000 C 
ATOM     31  C   UNL     1       0.655   2.644  20.147  0.00  0.00    +0.000 C 
ATOM     32  O   UNL     1       1.495   1.934  19.234  0.00  0.00    +0.000 OA
ENDBRANCH  21  22
ENDBRANCH   1  17
TORSDOF 4
ENDMDL
MODEL 4
REMARK VINA RESULT:      -9.3      5.017      6.909
REMARK  Name = 
REMARK  4 active torsions:
REMARK  status: ('A' for Active; 'I' for Inactive)
REMARK    1  A    between atoms: C_2  and  C_3
REMARK    2  A    between atoms: C_3  and  N_4
REMARK    3  A    between atoms: C_8  and  C_9
REMARK    4  A    between atoms: N_23  and  C_24
REMARK                            x       y       z     vdW  Elec       q    Type
REMARK                         _______ _______ _______ _____ _____    ______ ____
ROOT
ATOM      1  C   UNL     1       7.396   7.125  17.383  0.00  0.00    +0.000 C 
ENDROOT
BRANCH   1   3
ATOM      2  O   UNL     1       8.397   6.104  19.376  0.00  0.00    +0.000 OA
ATOM      3  C   UNL     1       8.205   7.131  18.716  0.00  0.00    +0.000 C 
ATOM      4  N   UNL     1       8.793   8.276  19.199  0.00  0.00    +0.000 N 
ATOM      5  C   UNL     1       8.885   9.482  18.575  0.00  0.00    +0.000 C 
ATOM      6  O   UNL     1       8.396   9.685  17.465  0.00  0.00    +0.000 OA
ATOM      7  N   UNL     1       9.579  10.454  19.252  0.00  0.00    +0.000 N 
ATOM      8  H   UNL     1       9.267   8.140  20.080  0.00  0.00    +0.000 HD
ATOM      9  H   UNL     1      10.330  10.163  19.872  0.00  0.00    +0.000 HD
BRANCH   7  10
ATOM     10  C   UNL     1       9.688  11.768  18.724  0.00  0.00    +0.000 A 
ATOM     11  C   UNL     1       8.685  12.742  18.904  0.00  0.00    +0.000 A 
ATOM     12  C   UNL     1       8.715  13.943  18.212  0.00  0.00    +0.000 A 
ATOM     13  C   UNL     1       9.793  14.235  17.389  0.00  0.00    +0.000 A 
ATOM     14  C   UNL     1      10.852  13.329  17.283  0.00  0.00    +0.000 A 
ATOM     15  C   UNL     1      10.796  12.108  17.951  0.00  0.00    +0.000 A 
ATOM     16  F   UNL     1      11.796  11.225  17.801  0.00  0.00    +0.000 F 
ENDBRANCH   7  10
ENDBRANCH   1   3
BRANCH   1  17
ATOM     17  N   UNL     1       6.520   5.934  17.237  0.00  0.00    +0.000 NA
ATOM     18  C   UNL     1       7.077   4.971  16.280  0.00  0.00    +0.000 C 
ATOM     19  C   UNL     1       6.578   5.420  14.927  0.00  0.00    +0.000 C 
ATOM     20  C   UNL     1       5.160   5.865  15.216  0.00  0.00    +0.000 C 
ATOM     21  C   UNL     1       5.191   6.342  16.678  0.00  0.00    +0.000 C 
BRANCH  21  22
ATOM     22  C   UNL     1       4.023   5.792  17.489  0.00  0.00    +0.000 A 
ATOM     23  C   UNL     1       3.459   6.550  18.531  0.00  0.00    +0.000 A 
ATOM     24  C   UNL     1       2.383   6.060  19.277  0.00  0.00    +0.000 A 
ATOM     25  C   UNL     1       1.884   4.787  19.019  0.00  0.00    +0.000 A 
ATOM     26  C   UNL     1       2.418   4.024  17.982  0.00  0.00    +0.000 A 
ATOM     27  C   UNL     1       3.463   4.531  17.210  0.00  0.00    +0.000 A 
ATOM     28  O   UNL     1       1.910   2.800  17.636  0.00  0.00    +0.000 OA
ATOM     29  C   UNL     1       2.135   1.833  18.666  0.00  0.00    +0.000 C 
ATOM     30  C   UNL     1       1.106   1.920  19.786  0.00  0.00    +0.000 C 
ATOM     31  C   UNL     1       1.230   3.221  20.569  0.00  0.00    +0.000 C 
ATOM     32  O   UNL     1       0.839   4.351  19.787  0.00  0.00    +0.000 OA
ENDBRANCH  21  22
ENDBRANCH   1  17
TORSDOF 4
ENDMDL
MODEL 5
REMARK VINA RESULT:      -9.2      5.209      7.107
REMARK  Name = 
REMARK  4 active torsions:
REMARK  status: ('A' for Active; 'I' for Inactive)
REMARK    1  A    between atoms: C_2  and  C_3
REMARK    2  A    between atoms: C_3  and  N_4
REMARK    3  A    between atoms: C_8  and  C_9
REMARK    4  A    between atoms: N_23  and  C_24
REMARK                            x       y       z     vdW  Elec       q    Type
REMARK                         _______ _______ _______ _____ _____    ______ ____
ROOT
ATOM      1  C   UNL     1       7.371   7.133  17.415  0.00  0.00    +0.000 C 
ENDROOT
BRANCH   1   3
ATOM      2  O   UNL     1       8.401   6.101  19.387  0.00  0.00    +0.000 OA
ATOM      3  C   UNL     1       8.202   7.131  18.733  0.00  0.00    +0.000 C 
ATOM      4  N   UNL     1       8.805   8.272  19.210  0.00  0.00    +0.000 N 
ATOM      5  C   UNL     1       8.891   9.479  18.588  0.00  0.00    +0.000 C 
ATOM      6  O   UNL     1       8.385   9.687  17.487  0.00  0.00    +0.000 OA
ATOM      7  N   UNL     1       9.601  10.446  19.256  0.00  0.00    +0.000 N 
ATOM      8  H   UNL     1       9.292   8.131  20.082  0.00  0.00    +0.000 HD
ATOM      9  H   UNL     1      10.361  10.149  19.862  0.00  0.00    +0.000 HD
BRANCH   7  10
ATOM     10  C   UNL     1       9.708  11.761  18.729  0.00  0.00    +0.000 A 
ATOM     11  C   UNL     1      10.417  12.046  17.545  0.00  0.00    +0.000 A 
ATOM     12  C   UNL     1      10.683  13.352  17.161  0.00  0.00    +0.000 A 
ATOM     13  C   UNL     1      10.173  14.404  17.908  0.00  0.00    +0.000 A 
ATOM     14  C   UNL     1       9.374  14.142  19.024  0.00  0.00    +0.000 A 
ATOM     15  C   UNL     1       9.144  12.827  19.424  0.00  0.00    +0.000 A 
ATOM     16  F   UNL     1       8.416  12.590  20.527  0.00  0.00    +0.000 F 
ENDBRANCH   7  10
ENDBRANCH   1   3
BRANCH   1  17
ATOM     17  N   UNL     1       6.504   5.935  17.269  0.00  0.00    +0.000 NA
ATOM     18  C   UNL     1       7.075   4.968  16.325  0.00  0.00    +0.000 C 
ATOM     19  C   UNL     1       6.586   5.405  14.964  0.00  0.00    +0.000 C 
ATOM     20  C   UNL     1       5.163   5.843  15.236  0.00  0.00    +0.000 C 
ATOM     21  C   UNL     1       5.178   6.331  16.695  0.00  0.00    +0.000 C 
BRANCH  21  22
ATOM     22  C   UNL     1       4.005   5.779  17.500  0.00  0.00    +0.000 A 
ATOM     23  C   UNL     1       3.424   6.545  18.527  0.00  0.00    +0.000 A 
ATOM     24  C   UNL     1       2.344   6.053  19.267  0.00  0.00    +0.000 A 
ATOM     25  C   UNL     1       1.858   4.772  19.017  0.00  0.00    +0.000 A 
ATOM     26  C   UNL     1       2.411   4.003  17.996  0.00  0.00    +0.000 A 
ATOM     27  C   UNL     1       3.460   4.511  17.229  0.00  0.00    +0.000 A 
ATOM     28  O   UNL     1       1.918   2.770  17.658  0.00  0.00    +0.000 OA
ATOM     29  C   UNL     1       2.140   1.818  18.702  0.00  0.00    +0.000 C 
ATOM     30  C   UNL     1       1.098   1.908  19.810  0.00  0.00    +0.000 C 
ATOM     31  C   UNL     1       1.201   3.219  20.579  0.00  0.00    +0.000 C 
ATOM     32  O   UNL     1       0.809   4.337  19.780  0.00  0.00    +0.000 OA
ENDBRANCH  21  22
ENDBRANCH   1  17
TORSDOF 4
ENDMDL
MODEL 6
REMARK VINA RESULT:      -9.2      4.795      8.076
REMARK  Name = 
REMARK  4 active torsions:
REMARK  status: ('A' for Active; 'I' for Inactive)
REMARK    1  A    between atoms: C_2  and  C_3
REMARK    2  A    between atoms: C_3  and  N_4
REMARK    3  A    between atoms: C_8  and  C_9
REMARK    4  A    between atoms: N_23  and  C_24
REMARK                            x       y       z     vdW  Elec       q    Type
REMARK                         _______ _______ _______ _____ _____    ______ ____
ROOT
ATOM      1  C   UNL     1       0.636  10.508  20.729  0.00  0.00    +0.000 C 
ENDROOT
BRANCH   1   3
ATOM      2  O   UNL     1       0.606   9.995  23.127  0.00  0.00    +0.000 OA
ATOM      3  C   UNL     1       0.897   9.623  21.985  0.00  0.00    +0.000 C 
ATOM      4  N   UNL     1       1.420   8.355  21.881  0.00  0.00    +0.000 N 
ATOM      5  C   UNL     1       1.651   7.651  20.739  0.00  0.00    +0.000 C 
ATOM      6  O   UNL     1       1.429   8.119  19.624  0.00  0.00    +0.000 OA
ATOM      7  N   UNL     1       2.126   6.374  20.910  0.00  0.00    +0.000 N 
ATOM      8  H   UNL     1       1.555   7.905  22.773  0.00  0.00    +0.000 HD
ATOM      9  H   UNL     1       1.857   5.872  21.752  0.00  0.00    +0.000 HD
BRANCH   7  10
ATOM     10  C   UNL     1       2.458   5.568  19.789  0.00  0.00    +0.000 A 
ATOM     11  C   UNL     1       3.604   5.802  19.002  0.00  0.00    +0.000 A 
ATOM     12  C   UNL     1       3.800   5.139  17.800  0.00  0.00    +0.000 A 
ATOM     13  C   UNL     1       2.898   4.164  17.399  0.00  0.00    +0.000 A 
ATOM     14  C   UNL     1       1.815   3.838  18.220  0.00  0.00    +0.000 A 
ATOM     15  C   UNL     1       1.604   4.536  19.407  0.00  0.00    +0.000 A 
ATOM     16  F   UNL     1       0.532   4.249  20.162  0.00  0.00    +0.000 F 
ENDBRANCH   7  10
ENDBRANCH   1   3
BRANCH   1  17
ATOM     17  N   UNL     1      -0.807  10.762  20.483  0.00  0.00    +0.000 NA
ATOM     18  C   UNL     1      -1.186  10.430  19.105  0.00  0.00    +0.000 C 
ATOM     19  C   UNL     1      -0.898  11.678  18.303  0.00  0.00    +0.000 C 
ATOM     20  C   UNL     1      -1.324  12.791  19.236  0.00  0.00    +0.000 C 
ATOM     21  C   UNL     1      -1.104  12.221  20.648  0.00  0.00    +0.000 C 
BRANCH  21  22
ATOM     22  C   UNL     1      -2.296  12.475  21.565  0.00  0.00    +0.000 A 
ATOM     23  C   UNL     1      -2.219  12.165  22.935  0.00  0.00    +0.000 A 
ATOM     24  C   UNL     1      -3.302  12.400  23.787  0.00  0.00    +0.000 A 
ATOM     25  C   UNL     1      -4.492  12.908  23.273  0.00  0.00    +0.000 A 
ATOM     26  C   UNL     1      -4.585  13.235  21.921  0.00  0.00    +0.000 A 
ATOM     27  C   UNL     1      -3.489  13.041  21.080  0.00  0.00    +0.000 A 
ATOM     28  O   UNL     1      -5.704  13.811  21.382  0.00  0.00    +0.000 OA
ATOM     29  C   UNL     1      -6.812  12.907  21.396  0.00  0.00    +0.000 C 
ATOM     30  C   UNL     1      -7.514  12.859  22.748  0.00  0.00    +0.000 C 
ATOM     31  C   UNL     1      -6.624  12.254  23.826  0.00  0.00    +0.000 C 
ATOM     32  O   UNL     1      -5.524  13.106  24.149  0.00  0.00    +0.000 OA
ENDBRANCH  21  22
ENDBRANCH   1  17
TORSDOF 4
ENDMDL
MODEL 7
REMARK VINA RESULT:      -9.2      4.322      5.666
REMARK  Name = 
REMARK  4 active torsions:
REMARK  status: ('A' for Active; 'I' for Inactive)
REMARK    1  A    between atoms: C_2  and  C_3
REMARK    2  A    between atoms: C_3  and  N_4
REMARK    3  A    between atoms: C_8  and  C_9
REMARK    4  A    between atoms: N_23  and  C_24
REMARK                            x       y       z     vdW  Elec       q    Type
REMARK                         _______ _______ _______ _____ _____    ______ ____
ROOT
ATOM      1  C   UNL     1       6.239   6.097  17.597  0.00  0.00    +0.000 C 
ENDROOT
BRANCH   1   3
ATOM      2  O   UNL     1       8.007   4.649  18.487  0.00  0.00    +0.000 OA
ATOM      3  C   UNL     1       7.579   5.798  18.334  0.00  0.00    +0.000 C 
ATOM      4  N   UNL     1       8.384   6.808  18.809  0.00  0.00    +0.000 N 
ATOM      5  C   UNL     1       8.232   8.145  18.608  0.00  0.00    +0.000 C 
ATOM      6  O   UNL     1       7.289   8.610  17.971  0.00  0.00    +0.000 OA
ATOM      7  N   UNL     1       9.212   8.945  19.143  0.00  0.00    +0.000 N 
ATOM      8  H   UNL     1       9.209   6.471  19.282  0.00  0.00    +0.000 HD
ATOM      9  H   UNL     1      10.150   8.563  19.224  0.00  0.00    +0.000 HD
BRANCH   7  10
ATOM     10  C   UNL     1       9.127  10.359  19.047  0.00  0.00    +0.000 A 
ATOM     11  C   UNL     1       9.022  11.028  17.810  0.00  0.00    +0.000 A 
ATOM     12  C   UNL     1       9.147  12.406  17.724  0.00  0.00    +0.000 A 
ATOM     13  C   UNL     1       9.295  13.156  18.882  0.00  0.00    +0.000 A 
ATOM     14  C   UNL     1       9.290  12.521  20.127  0.00  0.00    +0.000 A 
ATOM     15  C   UNL     1       9.202  11.133  20.202  0.00  0.00    +0.000 A 
ATOM     16  F   UNL     1       9.250  10.531  21.401  0.00  0.00    +0.000 F 
ENDBRANCH   7  10
ENDBRANCH   1   3
BRANCH   1  17
ATOM     17  N   UNL     1       5.058   6.073  18.499  0.00  0.00    +0.000 NA
ATOM     18  C   UNL     1       4.956   4.798  19.220  0.00  0.00    +0.000 C 
ATOM     19  C   UNL     1       4.186   3.882  18.298  0.00  0.00    +0.000 C 
ATOM     20  C   UNL     1       3.142   4.798  17.698  0.00  0.00    +0.000 C 
ATOM     21  C   UNL     1       3.799   6.189  17.696  0.00  0.00    +0.000 C 
BRANCH  21  22
ATOM     22  C   UNL     1       2.864   7.270  18.230  0.00  0.00    +0.000 A 
ATOM     23  C   UNL     1       2.550   8.393  17.443  0.00  0.00    +0.000 A 
ATOM     24  C   UNL     1       1.689   9.386  17.919  0.00  0.00    +0.000 A 
ATOM     25  C   UNL     1       1.162   9.289  19.204  0.00  0.00    +0.000 A 
ATOM     26  C   UNL     1       1.448   8.178  19.994  0.00  0.00    +0.000 A 
ATOM     27  C   UNL     1       2.273   7.167  19.503  0.00  0.00    +0.000 A 
ATOM     28  O   UNL     1       0.892   7.998  21.233  0.00  0.00    +0.000 OA
ATOM     29  C   UNL     1       1.368   8.973  22.164  0.00  0.00    +0.000 C 
ATOM     30  C   UNL     1       0.631  10.302  22.051  0.00  0.00    +0.000 C 
ATOM     31  C   UNL     1       0.916  10.995  20.725  0.00  0.00    +0.000 C 
ATOM     32  O   UNL     1       0.334  10.296  19.623  0.00  0.00    +0.000 OA
ENDBRANCH  21  22
ENDBRANCH   1  17
TORSDOF 4
ENDMDL
MODEL 8
REMARK VINA RESULT:      -9.0      1.562      2.015
REMARK  Name = 
REMARK  4 active torsions:
REMARK  status: ('A' for Active; 'I' for Inactive)
REMARK    1  A    between atoms: C_2  and  C_3
REMARK    2  A    between atoms: C_3  and  N_4
REMARK    3  A    between atoms: C_8  and  C_9
REMARK    4  A    between atoms: N_23  and  C_24
REMARK                            x       y       z     vdW  Elec       q    Type
REMARK                         _______ _______ _______ _____ _____    ______ ____
ROOT
ATOM      1  C   UNL     1       6.036   4.747  17.742  0.00  0.00    +0.000 C 
ENDROOT
BRANCH   1   3
ATOM      2  O   UNL     1       6.196   7.127  17.172  0.00  0.00    +0.000 OA
ATOM      3  C   UNL     1       6.111   5.963  16.768  0.00  0.00    +0.000 C 
ATOM      4  N   UNL     1       6.139   5.795  15.403  0.00  0.00    +0.000 N 
ATOM      5  C   UNL     1       6.241   4.623  14.720  0.00  0.00    +0.000 C 
ATOM      6  O   UNL     1       6.292   3.534  15.288  0.00  0.00    +0.000 OA
ATOM      7  N   UNL     1       6.308   4.732  13.353  0.00  0.00    +0.000 N 
ATOM      8  H   UNL     1       6.167   6.666  14.895  0.00  0.00    +0.000 HD
ATOM      9  H   UNL     1       6.729   5.569  12.959  0.00  0.00    +0.000 HD
BRANCH   7  10
ATOM     10  C   UNL     1       6.357   3.573  12.534  0.00  0.00    +0.000 A 
ATOM     11  C   UNL     1       7.572   3.015  12.086  0.00  0.00    +0.000 A 
ATOM     12  C   UNL     1       7.594   2.014  11.126  0.00  0.00    +0.000 A 
ATOM     13  C   UNL     1       6.400   1.489  10.654  0.00  0.00    +0.000 A 
ATOM     14  C   UNL     1       5.185   1.952  11.167  0.00  0.00    +0.000 A 
ATOM     15  C   UNL     1       5.172   2.984  12.103  0.00  0.00    +0.000 A 
ATOM     16  F   UNL     1       3.997   3.455  12.551  0.00  0.00    +0.000 F 
ENDBRANCH   7  10
ENDBRANCH   1   3
BRANCH   1  17
ATOM     17  N   UNL     1       4.808   4.744  18.578  0.00  0.00    +0.000 NA
ATOM     18  C   UNL     1       4.397   3.378  18.925  0.00  0.00    +0.000 C 
ATOM     19  C   UNL     1       3.533   2.920  17.774  0.00  0.00    +0.000 C 
ATOM     20  C   UNL     1       2.744   4.163  17.421  0.00  0.00    +0.000 C 
ATOM     21  C   UNL     1       3.665   5.332  17.810  0.00  0.00    +0.000 C 
BRANCH  21  22
ATOM     22  C   UNL     1       2.927   6.411  18.596  0.00  0.00    +0.000 A 
ATOM     23  C   UNL     1       2.534   6.179  19.927  0.00  0.00    +0.000 A 
ATOM     24  C   UNL     1       1.863   7.163  20.660  0.00  0.00    +0.000 A 
ATOM     25  C   UNL     1       1.540   8.376  20.059  0.00  0.00    +0.000 A 
ATOM     26  C   UNL     1       1.932   8.631  18.746  0.00  0.00    +0.000 A 
ATOM     27  C   UNL     1       2.639   7.666  18.029  0.00  0.00    +0.000 A 
ATOM     28  O   UNL     1       1.708   9.837  18.136  0.00  0.00    +0.000 OA
ATOM     29  C   UNL     1       0.312  10.061  17.923  0.00  0.00    +0.000 C 
ATOM     30  C   UNL     1      -0.395  10.583  19.167  0.00  0.00    +0.000 C 
ATOM     31  C   UNL     1      -0.429   9.542  20.278  0.00  0.00    +0.000 C 
ATOM     32  O   UNL     1       0.872   9.297  20.818  0.00  0.00    +0.000 OA
ENDBRANCH  21  22
ENDBRANCH   1  17
TORSDOF 4
ENDMDL
MODEL 9
REMARK VINA RESULT:      -9.0      0.951      1.656
REMARK  Name = 
REMARK  4 active torsions:
REMARK  status: ('A' for Active; 'I' for Inactive)
REMARK    1  A    between atoms: C_2  and  C_3
REMARK    2  A    between atoms: C_3  and  N_4
REMARK    3  A    between atoms: C_8  and  C_9
REMARK    4  A    between atoms: N_23  and  C_24
REMARK                            x       y       z     vdW  Elec       q    Type
REMARK                         _______ _______ _______ _____ _____    ______ ____
ROOT
ATOM      1  C   UNL     1       5.480   4.031  19.168  0.00  0.00    +0.000 C 
ENDROOT
BRANCH   1   3
ATOM      2  O   UNL     1       6.955   5.880  19.817  0.00  0.00    +0.000 OA
ATOM      3  C   UNL     1       6.445   5.225  18.901  0.00  0.00    +0.000 C 
ATOM      4  N   UNL     1       6.821   5.579  17.626  0.00  0.00    +0.000 N 
ATOM      5  C   UNL     1       6.549   4.912  16.472  0.00  0.00    +0.000 C 
ATOM      6  O   UNL     1       5.877   3.883  16.452  0.00  0.00    +0.000 OA
ATOM      7  N   UNL     1       7.093   5.446  15.330  0.00  0.00    +0.000 N 
ATOM      8  H   UNL     1       7.432   6.382  17.599  0.00  0.00    +0.000 HD
ATOM      9  H   UNL     1       7.970   5.954  15.410  0.00  0.00    +0.000 HD
BRANCH   7  10
ATOM     10  C   UNL     1       6.828   4.868  14.061  0.00  0.00    +0.000 A 
ATOM     11  C   UNL     1       5.704   4.052  13.822  0.00  0.00    +0.000 A 
ATOM     12  C   UNL     1       5.573   3.333  12.642  0.00  0.00    +0.000 A 
ATOM     13  C   UNL     1       6.521   3.481  11.640  0.00  0.00    +0.000 A 
ATOM     14  C   UNL     1       7.585   4.370  11.814  0.00  0.00    +0.000 A 
ATOM     15  C   UNL     1       7.729   5.058  13.016  0.00  0.00    +0.000 A 
ATOM     16  F   UNL     1       8.783   5.872  13.190  0.00  0.00    +0.000 F 
ENDBRANCH   7  10
ENDBRANCH   1   3
BRANCH   1  17
ATOM     17  N   UNL     1       4.117   4.461  19.575  0.00  0.00    +0.000 NA
ATOM     18  C   UNL     1       3.330   3.336  20.094  0.00  0.00    +0.000 C 
ATOM     19  C   UNL     1       2.694   2.702  18.879  0.00  0.00    +0.000 C 
ATOM     20  C   UNL     1       2.324   3.895  18.024  0.00  0.00    +0.000 C 
ATOM     21  C   UNL     1       3.365   4.969  18.383  0.00  0.00    +0.000 C 
BRANCH  21  22
ATOM     22  C   UNL     1       2.725   6.331  18.634  0.00  0.00    +0.000 A 
ATOM     23  C   UNL     1       2.865   7.368  17.694  0.00  0.00    +0.000 A 
ATOM     24  C   UNL     1       2.277   8.618  17.909  0.00  0.00    +0.000 A 
ATOM     25  C   UNL     1       1.576   8.861  19.087  0.00  0.00    +0.000 A 
ATOM     26  C   UNL     1       1.414   7.844  20.025  0.00  0.00    +0.000 A 
ATOM     27  C   UNL     1       1.964   6.584  19.791  0.00  0.00    +0.000 A 
ATOM     28  O   UNL     1       0.668   8.008  21.162  0.00  0.00    +0.000 OA
ATOM     29  C   UNL     1       1.279   8.942  22.056  0.00  0.00    +0.000 C 
ATOM     30  C   UNL     1       0.988  10.390  21.681  0.00  0.00    +0.000 C 
ATOM     31  C   UNL     1       1.640  10.774  20.360  0.00  0.00    +0.000 C 
ATOM     32  O   UNL     1       1.033  10.106  19.252  0.00  0.00    +0.000 OA
ENDBRANCH  21  22
ENDBRANCH   1  17
TORSDOF 4
ENDMDL
