MODEL 1
REMARK VINA RESULT:      -8.3      0.000      0.000
REMARK  Name = 
REMARK  5 active torsions:
REMARK  status: ('A' for Active; 'I' for Inactive)
REMARK    1  A    between atoms: C_1  and  C_2
REMARK    2  A    between atoms: C_4  and  N_5
REMARK    3  A    between atoms: C_8  and  N_9
REMARK    4  A    between atoms: C_10  and  C_12
REMARK    5  A    between atoms: N_23  and  C_24
REMARK                            x       y       z     vdW  Elec       q    Type
REMARK                         _______ _______ _______ _____ _____    ______ ____
ROOT
ATOM      1  N   UNL     1       2.621   6.992  19.246  0.00  0.00    +0.000 N 
ATOM      2  C   UNL     1       1.787   7.015  20.343  0.00  0.00    +0.000 C 
ATOM      3  O   UNL     1       1.619   6.034  21.060  0.00  0.00    +0.000 OA
ATOM      4  H   UNL     1       2.935   7.880  18.858  0.00  0.00    +0.000 HD
ENDROOT
BRANCH   2   5
ATOM      5  C   UNL     1       1.095   8.297  20.620  0.00  0.00    +0.000 A 
ATOM      6  C   UNL     1       1.116   9.343  19.688  0.00  0.00    +0.000 A 
ATOM      7  C   UNL     1       0.484  10.556  19.970  0.00  0.00    +0.000 A 
ATOM      8  C   UNL     1      -0.177  10.718  21.201  0.00  0.00    +0.000 A 
ATOM      9  C   UNL     1      -0.886  11.795  21.798  0.00  0.00    +0.000 A 
ATOM     10  C   UNL     1      -1.322  11.374  23.029  0.00  0.00    +0.000 A 
ATOM     11  N   UNL     1      -0.921  10.075  23.199  0.00  0.00    +0.000 N 
ATOM     12  C   UNL     1      -0.206   9.654  22.098  0.00  0.00    +0.000 A 
ATOM     13  C   UNL     1       0.409   8.426  21.836  0.00  0.00    +0.000 A 
ATOM     14  H   UNL     1      -1.112   9.507  24.015  0.00  0.00    +0.000 HD
ENDBRANCH   2   5
BRANCH   1  18
ATOM     15  N   UNL     1       4.532   4.868  17.065  0.00  0.00    +0.000 N 
ATOM     16  C   UNL     1       3.524   3.886  17.451  0.00  0.00    +0.000 C 
ATOM     17  C   UNL     1       2.536   4.723  18.252  0.00  0.00    +0.000 C 
ATOM     18  C   UNL     1       3.384   5.801  18.941  0.00  0.00    +0.000 C 
ATOM     19  C   UNL     1       4.483   6.019  17.917  0.00  0.00    +0.000 C 
ATOM     20  O   UNL     1       5.236   6.964  17.807  0.00  0.00    +0.000 OA
BRANCH  15  24
ATOM     21  C   UNL     1       6.791   4.207  12.687  0.00  0.00    +0.000 C 
ATOM     22  C   UNL     1       6.484   4.427  14.121  0.00  0.00    +0.000 A 
ATOM     23  C   UNL     1       5.219   4.596  14.736  0.00  0.00    +0.000 A 
ATOM     24  C   UNL     1       5.485   4.695  16.082  0.00  0.00    +0.000 A 
ATOM     25  N   UNL     1       6.845   4.560  16.206  0.00  0.00    +0.000 N 
ATOM     26  C   UNL     1       7.645   4.582  17.406  0.00  0.00    +0.000 C 
ATOM     27  N   UNL     1       7.475   4.465  15.019  0.00  0.00    +0.000 NA
ENDBRANCH  15  24
ENDBRANCH   1  18
TORSDOF 3
ENDMDL
MODEL 2
REMARK VINA RESULT:      -8.3      1.472      1.936
REMARK  Name = 
REMARK  5 active torsions:
REMARK  status: ('A' for Active; 'I' for Inactive)
REMARK    1  A    between atoms: C_1  and  C_2
REMARK    2  A    between atoms: C_4  and  N_5
REMARK    3  A    between atoms: C_8  and  N_9
REMARK    4  A    between atoms: C_10  and  C_12
REMARK    5  A    between atoms: N_23  and  C_24
REMARK                            x       y       z     vdW  Elec       q    Type
REMARK                         _______ _______ _______ _____ _____    ______ ____
ROOT
ATOM      1  N   UNL     1       2.346   7.415  18.787  0.00  0.00    +0.000 N 
ATOM      2  C   UNL     1       1.757   7.730  19.993  0.00  0.00    +0.000 C 
ATOM      3  O   UNL     1       1.837   6.996  20.973  0.00  0.00    +0.000 OA
ATOM      4  H   UNL     1       2.487   8.162  18.108  0.00  0.00    +0.000 HD
ENDROOT
BRANCH   2   5
ATOM      5  C   UNL     1       1.017   9.014  20.052  0.00  0.00    +0.000 A 
ATOM      6  C   UNL     1       0.314   9.387  21.206  0.00  0.00    +0.000 A 
ATOM      7  C   UNL     1      -0.403  10.585  21.242  0.00  0.00    +0.000 A 
ATOM      8  C   UNL     1      -0.409  11.417  20.108  0.00  0.00    +0.000 A 
ATOM      9  C   UNL     1      -1.030  12.660  19.807  0.00  0.00    +0.000 A 
ATOM     10  C   UNL     1      -0.676  13.004  18.527  0.00  0.00    +0.000 A 
ATOM     11  N   UNL     1       0.152  12.026  18.040  0.00  0.00    +0.000 N 
ATOM     12  C   UNL     1       0.320  11.036  18.985  0.00  0.00    +0.000 A 
ATOM     13  C   UNL     1       1.054   9.847  18.926  0.00  0.00    +0.000 A 
ATOM     14  H   UNL     1       0.572  12.023  17.119  0.00  0.00    +0.000 HD
ENDBRANCH   2   5
BRANCH   1  18
ATOM     15  N   UNL     1       4.369   5.074  16.957  0.00  0.00    +0.000 N 
ATOM     16  C   UNL     1       3.366   4.127  17.434  0.00  0.00    +0.000 C 
ATOM     17  C   UNL     1       2.337   5.037  18.091  0.00  0.00    +0.000 C 
ATOM     18  C   UNL     1       3.141   6.212  18.661  0.00  0.00    +0.000 C 
ATOM     19  C   UNL     1       4.270   6.323  17.652  0.00  0.00    +0.000 C 
ATOM     20  O   UNL     1       5.008   7.264  17.445  0.00  0.00    +0.000 OA
BRANCH  15  24
ATOM     21  C   UNL     1       6.793   4.031  12.744  0.00  0.00    +0.000 C 
ATOM     22  C   UNL     1       6.431   4.360  14.145  0.00  0.00    +0.000 A 
ATOM     23  C   UNL     1       5.148   4.617  14.687  0.00  0.00    +0.000 A 
ATOM     24  C   UNL     1       5.356   4.800  16.034  0.00  0.00    +0.000 A 
ATOM     25  N   UNL     1       6.703   4.623  16.231  0.00  0.00    +0.000 N 
ATOM     26  C   UNL     1       7.449   4.697  17.463  0.00  0.00    +0.000 C 
ATOM     27  N   UNL     1       7.381   4.423  15.084  0.00  0.00    +0.000 NA
ENDBRANCH  15  24
ENDBRANCH   1  18
TORSDOF 3
ENDMDL
MODEL 3
REMARK VINA RESULT:      -7.7      3.331      9.499
REMARK  Name = 
REMARK  5 active torsions:
REMARK  status: ('A' for Active; 'I' for Inactive)
REMARK    1  A    between atoms: C_1  and  C_2
REMARK    2  A    between atoms: C_4  and  N_5
REMARK    3  A    between atoms: C_8  and  N_9
REMARK    4  A    between atoms: C_10  and  C_12
REMARK    5  A    between atoms: N_23  and  C_24
REMARK                            x       y       z     vdW  Elec       q    Type
REMARK                         _______ _______ _______ _____ _____    ______ ____
ROOT
ATOM      1  N   UNL     1       1.351   8.916  19.455  0.00  0.00    +0.000 N 
ATOM      2  C   UNL     1       2.119   8.442  18.413  0.00  0.00    +0.000 C 
ATOM      3  O   UNL     1       2.342   9.108  17.407  0.00  0.00    +0.000 OA
ATOM      4  H   UNL     1       1.425   8.454  20.360  0.00  0.00    +0.000 HD
ENDROOT
BRANCH   2   5
ATOM      5  C   UNL     1       2.672   7.075  18.569  0.00  0.00    +0.000 A 
ATOM      6  C   UNL     1       3.583   6.557  17.639  0.00  0.00    +0.000 A 
ATOM      7  C   UNL     1       4.077   5.258  17.780  0.00  0.00    +0.000 A 
ATOM      8  C   UNL     1       3.652   4.474  18.867  0.00  0.00    +0.000 A 
ATOM      9  C   UNL     1       3.935   3.147  19.289  0.00  0.00    +0.000 A 
ATOM     10  C   UNL     1       3.225   2.914  20.439  0.00  0.00    +0.000 A 
ATOM     11  N   UNL     1       2.533   4.057  20.747  0.00  0.00    +0.000 N 
ATOM     12  C   UNL     1       2.767   5.023  19.791  0.00  0.00    +0.000 A 
ATOM     13  C   UNL     1       2.266   6.323  19.680  0.00  0.00    +0.000 A 
ATOM     14  H   UNL     1       1.929   4.174  21.551  0.00  0.00    +0.000 HD
ENDBRANCH   2   5
BRANCH   1  18
ATOM     15  N   UNL     1      -0.661  11.625  20.696  0.00  0.00    +0.000 N 
ATOM     16  C   UNL     1      -1.219  11.575  19.349  0.00  0.00    +0.000 C 
ATOM     17  C   UNL     1      -0.562  10.333  18.764  0.00  0.00    +0.000 C 
ATOM     18  C   UNL     1       0.827  10.265  19.413  0.00  0.00    +0.000 C 
ATOM     19  C   UNL     1       0.548  10.860  20.782  0.00  0.00    +0.000 C 
ATOM     20  O   UNL     1       1.208  10.764  21.796  0.00  0.00    +0.000 OA
BRANCH  15  24
ATOM     21  C   UNL     1      -3.489  13.366  24.395  0.00  0.00    +0.000 C 
ATOM     22  C   UNL     1      -2.408  13.133  23.406  0.00  0.00    +0.000 A 
ATOM     23  C   UNL     1      -2.301  12.099  22.444  0.00  0.00    +0.000 A 
ATOM     24  C   UNL     1      -1.153  12.380  21.741  0.00  0.00    +0.000 A 
ATOM     25  N   UNL     1      -0.659  13.542  22.279  0.00  0.00    +0.000 N 
ATOM     26  C   UNL     1       0.524  14.275  21.903  0.00  0.00    +0.000 C 
ATOM     27  N   UNL     1      -1.372  13.976  23.337  0.00  0.00    +0.000 NA
ENDBRANCH  15  24
ENDBRANCH   1  18
TORSDOF 3
ENDMDL
MODEL 4
REMARK VINA RESULT:      -7.5      2.474      9.920
REMARK  Name = 
REMARK  5 active torsions:
REMARK  status: ('A' for Active; 'I' for Inactive)
REMARK    1  A    between atoms: C_1  and  C_2
REMARK    2  A    between atoms: C_4  and  N_5
REMARK    3  A    between atoms: C_8  and  N_9
REMARK    4  A    between atoms: C_10  and  C_12
REMARK    5  A    between atoms: N_23  and  C_24
REMARK                            x       y       z     vdW  Elec       q    Type
REMARK                         _______ _______ _______ _____ _____    ______ ____
ROOT
ATOM      1  N   UNL     1       1.131   9.314  19.454  0.00  0.00    +0.000 N 
ATOM      2  C   UNL     1       1.938   8.955  18.395  0.00  0.00    +0.000 C 
ATOM      3  O   UNL     1       2.102   9.681  17.420  0.00  0.00    +0.000 OA
ATOM      4  H   UNL     1       1.244   8.819  20.338  0.00  0.00    +0.000 HD
ENDROOT
BRANCH   2   5
ATOM      5  C   UNL     1       2.607   7.635  18.493  0.00  0.00    +0.000 A 
ATOM      6  C   UNL     1       2.364   6.783  19.578  0.00  0.00    +0.000 A 
ATOM      7  C   UNL     1       3.020   5.553  19.674  0.00  0.00    +0.000 A 
ATOM      8  C   UNL     1       3.928   5.178  18.668  0.00  0.00    +0.000 A 
ATOM      9  C   UNL     1       4.754   4.039  18.469  0.00  0.00    +0.000 A 
ATOM     10  C   UNL     1       5.437   4.220  17.293  0.00  0.00    +0.000 A 
ATOM     11  N   UNL     1       5.045   5.418  16.756  0.00  0.00    +0.000 N 
ATOM     12  C   UNL     1       4.131   6.031  17.587  0.00  0.00    +0.000 A 
ATOM     13  C   UNL     1       3.479   7.262  17.461  0.00  0.00    +0.000 A 
ATOM     14  H   UNL     1       5.382   5.806  15.883  0.00  0.00    +0.000 HD
ENDBRANCH   2   5
BRANCH   1  18
ATOM     15  N   UNL     1      -1.047  11.810  20.851  0.00  0.00    +0.000 N 
ATOM     16  C   UNL     1      -1.660  11.740  19.529  0.00  0.00    +0.000 C 
ATOM     17  C   UNL     1      -0.927  10.573  18.884  0.00  0.00    +0.000 C 
ATOM     18  C   UNL     1       0.491  10.612  19.469  0.00  0.00    +0.000 C 
ATOM     19  C   UNL     1       0.226  11.151  20.863  0.00  0.00    +0.000 C 
ATOM     20  O   UNL     1       0.938  11.091  21.844  0.00  0.00    +0.000 OA
BRANCH  15  24
ATOM     21  C   UNL     1      -3.873  13.252  24.677  0.00  0.00    +0.000 C 
ATOM     22  C   UNL     1      -2.806  13.116  23.656  0.00  0.00    +0.000 A 
ATOM     23  C   UNL     1      -2.667  12.127  22.652  0.00  0.00    +0.000 A 
ATOM     24  C   UNL     1      -1.553  12.496  21.935  0.00  0.00    +0.000 A 
ATOM     25  N   UNL     1      -1.109  13.661  22.508  0.00  0.00    +0.000 N 
ATOM     26  C   UNL     1       0.024  14.472  22.135  0.00  0.00    +0.000 C 
ATOM     27  N   UNL     1      -1.818  14.016  23.598  0.00  0.00    +0.000 NA
ENDBRANCH  15  24
ENDBRANCH   1  18
TORSDOF 3
ENDMDL
MODEL 5
REMARK VINA RESULT:      -7.5      3.036      9.637
REMARK  Name = 
REMARK  5 active torsions:
REMARK  status: ('A' for Active; 'I' for Inactive)
REMARK    1  A    between atoms: C_1  and  C_2
REMARK    2  A    between atoms: C_4  and  N_5
REMARK    3  A    between atoms: C_8  and  N_9
REMARK    4  A    between atoms: C_10  and  C_12
REMARK    5  A    between atoms: N_23  and  C_24
REMARK                            x       y       z     vdW  Elec       q    Type
REMARK                         _______ _______ _______ _____ _____    ______ ____
ROOT
ATOM      1  N   UNL     1       1.259   8.388  19.989  0.00  0.00    +0.000 N 
ATOM      2  C   UNL     1       2.091   7.748  19.096  0.00  0.00    +0.000 C 
ATOM      3  O   UNL     1       2.668   8.345  18.193  0.00  0.00    +0.000 OA
ATOM      4  H   UNL     1       1.032   7.916  20.863  0.00  0.00    +0.000 HD
ENDROOT
BRANCH   2   5
ATOM      5  C   UNL     1       2.260   6.286  19.282  0.00  0.00    +0.000 A 
ATOM      6  C   UNL     1       1.893   5.666  20.485  0.00  0.00    +0.000 A 
ATOM      7  C   UNL     1       2.082   4.293  20.659  0.00  0.00    +0.000 A 
ATOM      8  C   UNL     1       2.641   3.537  19.614  0.00  0.00    +0.000 A 
ATOM      9  C   UNL     1       2.976   2.164  19.468  0.00  0.00    +0.000 A 
ATOM     10  C   UNL     1       3.499   1.993  18.212  0.00  0.00    +0.000 A 
ATOM     11  N   UNL     1       3.480   3.208  17.577  0.00  0.00    +0.000 N 
ATOM     12  C   UNL     1       2.971   4.173  18.421  0.00  0.00    +0.000 A 
ATOM     13  C   UNL     1       2.784   5.543  18.215  0.00  0.00    +0.000 A 
ATOM     14  H   UNL     1       3.800   3.378  16.632  0.00  0.00    +0.000 HD
ENDBRANCH   2   5
BRANCH   1  18
ATOM     15  N   UNL     1      -0.325  11.487  20.890  0.00  0.00    +0.000 N 
ATOM     16  C   UNL     1      -0.510  11.591  19.446  0.00  0.00    +0.000 C 
ATOM     17  C   UNL     1      -0.029  10.235  18.951  0.00  0.00    +0.000 C 
ATOM     18  C   UNL     1       1.089   9.824  19.919  0.00  0.00    +0.000 C 
ATOM     19  C   UNL     1       0.610  10.451  21.216  0.00  0.00    +0.000 C 
ATOM     20  O   UNL     1       0.943  10.186  22.352  0.00  0.00    +0.000 OA
BRANCH  15  24
ATOM     21  C   UNL     1      -3.357  13.488  24.283  0.00  0.00    +0.000 C 
ATOM     22  C   UNL     1      -2.230  13.196  23.364  0.00  0.00    +0.000 A 
ATOM     23  C   UNL     1      -2.050  12.075  22.518  0.00  0.00    +0.000 A 
ATOM     24  C   UNL     1      -0.884  12.325  21.832  0.00  0.00    +0.000 A 
ATOM     25  N   UNL     1      -0.451  13.553  22.266  0.00  0.00    +0.000 N 
ATOM     26  C   UNL     1       0.721  14.288  21.861  0.00  0.00    +0.000 C 
ATOM     27  N   UNL     1      -1.220  14.066  23.247  0.00  0.00    +0.000 NA
ENDBRANCH  15  24
ENDBRANCH   1  18
TORSDOF 3
ENDMDL
MODEL 6
REMARK VINA RESULT:      -7.5      1.316      1.702
REMARK  Name = 
REMARK  5 active torsions:
REMARK  status: ('A' for Active; 'I' for Inactive)
REMARK    1  A    between atoms: C_1  and  C_2
REMARK    2  A    between atoms: C_4  and  N_5
REMARK    3  A    between atoms: C_8  and  N_9
REMARK    4  A    between atoms: C_10  and  C_12
REMARK    5  A    between atoms: N_23  and  C_24
REMARK                            x       y       z     vdW  Elec       q    Type
REMARK                         _______ _______ _______ _____ _____    ______ ____
ROOT
ATOM      1  N   UNL     1       2.930   6.287  20.132  0.00  0.00    +0.000 N 
ATOM      2  C   UNL     1       2.285   7.158  19.281  0.00  0.00    +0.000 C 
ATOM      3  O   UNL     1       2.319   7.029  18.061  0.00  0.00    +0.000 OA
ATOM      4  H   UNL     1       2.650   6.271  21.112  0.00  0.00    +0.000 HD
ENDROOT
BRANCH   2   5
ATOM      5  C   UNL     1       1.536   8.269  19.916  0.00  0.00    +0.000 A 
ATOM      6  C   UNL     1       1.174   8.213  21.269  0.00  0.00    +0.000 A 
ATOM      7  C   UNL     1       0.445   9.253  21.851  0.00  0.00    +0.000 A 
ATOM      8  C   UNL     1       0.080  10.361  21.065  0.00  0.00    +0.000 A 
ATOM      9  C   UNL     1      -0.654  11.549  21.327  0.00  0.00    +0.000 A 
ATOM     10  C   UNL     1      -0.695  12.279  20.167  0.00  0.00    +0.000 A 
ATOM     11  N   UNL     1       0.002  11.589  19.209  0.00  0.00    +0.000 N 
ATOM     12  C   UNL     1       0.476  10.404  19.731  0.00  0.00    +0.000 A 
ATOM     13  C   UNL     1       1.214   9.382  19.127  0.00  0.00    +0.000 A 
ATOM     14  H   UNL     1       0.143  11.896  18.254  0.00  0.00    +0.000 HD
ENDBRANCH   2   5
BRANCH   1  18
ATOM     15  N   UNL     1       4.649   4.487  17.538  0.00  0.00    +0.000 N 
ATOM     16  C   UNL     1       3.623   3.487  17.816  0.00  0.00    +0.000 C 
ATOM     17  C   UNL     1       2.709   4.213  18.793  0.00  0.00    +0.000 C 
ATOM     18  C   UNL     1       3.630   5.138  19.599  0.00  0.00    +0.000 C 
ATOM     19  C   UNL     1       4.686   5.486  18.565  0.00  0.00    +0.000 C 
ATOM     20  O   UNL     1       5.469   6.412  18.568  0.00  0.00    +0.000 OA
BRANCH  15  24
ATOM     21  C   UNL     1       6.661   4.204  13.001  0.00  0.00    +0.000 C 
ATOM     22  C   UNL     1       6.430   4.347  14.460  0.00  0.00    +0.000 A 
ATOM     23  C   UNL     1       5.200   4.360  15.161  0.00  0.00    +0.000 A 
ATOM     24  C   UNL     1       5.545   4.447  16.490  0.00  0.00    +0.000 A 
ATOM     25  N   UNL     1       6.916   4.455  16.521  0.00  0.00    +0.000 N 
ATOM     26  C   UNL     1       7.790   4.527  17.666  0.00  0.00    +0.000 C 
ATOM     27  N   UNL     1       7.471   4.464  15.292  0.00  0.00    +0.000 NA
ENDBRANCH  15  24
ENDBRANCH   1  18
TORSDOF 3
ENDMDL
MODEL 7
REMARK VINA RESULT:      -7.4      3.577      9.371
REMARK  Name = 
REMARK  5 active torsions:
REMARK  status: ('A' for Active; 'I' for Inactive)
REMARK    1  A    between atoms: C_1  and  C_2
REMARK    2  A    between atoms: C_4  and  N_5
REMARK    3  A    between atoms: C_8  and  N_9
REMARK    4  A    between atoms: C_10  and  C_12
REMARK    5  A    between atoms: N_23  and  C_24
REMARK                            x       y       z     vdW  Elec       q    Type
REMARK                         _______ _______ _______ _____ _____    ______ ____
ROOT
ATOM      1  N   UNL     1       1.290   8.873  19.500  0.00  0.00    +0.000 N 
ATOM      2  C   UNL     1       2.081   8.265  18.549  0.00  0.00    +0.000 C 
ATOM      3  O   UNL     1       2.464   8.851  17.542  0.00  0.00    +0.000 OA
ATOM      4  H   UNL     1       1.232   8.449  20.424  0.00  0.00    +0.000 HD
ENDROOT
BRANCH   2   5
ATOM      5  C   UNL     1       2.454   6.852  18.804  0.00  0.00    +0.000 A 
ATOM      6  C   UNL     1       3.150   6.106  17.844  0.00  0.00    +0.000 A 
ATOM      7  C   UNL     1       3.473   4.768  18.083  0.00  0.00    +0.000 A 
ATOM      8  C   UNL     1       3.093   4.177  19.301  0.00  0.00    +0.000 A 
ATOM      9  C   UNL     1       3.242   2.872  19.846  0.00  0.00    +0.000 A 
ATOM     10  C   UNL     1       2.669   2.873  21.092  0.00  0.00    +0.000 A 
ATOM     11  N   UNL     1       2.190   4.134  21.337  0.00  0.00    +0.000 N 
ATOM     12  C   UNL     1       2.426   4.947  20.249  0.00  0.00    +0.000 A 
ATOM     13  C   UNL     1       2.100   6.291  20.039  0.00  0.00    +0.000 A 
ATOM     14  H   UNL     1       1.723   4.426  22.186  0.00  0.00    +0.000 HD
ENDBRANCH   2   5
BRANCH   1  18
ATOM     15  N   UNL     1      -0.238  11.929  20.616  0.00  0.00    +0.000 N 
ATOM     16  C   UNL     1      -0.931  11.826  19.337  0.00  0.00    +0.000 C 
ATOM     17  C   UNL     1      -0.494  10.458  18.832  0.00  0.00    +0.000 C 
ATOM     18  C   UNL     1       0.934  10.269  19.360  0.00  0.00    +0.000 C 
ATOM     19  C   UNL     1       0.870  11.022  20.676  0.00  0.00    +0.000 C 
ATOM     20  O   UNL     1       1.612  10.936  21.633  0.00  0.00    +0.000 OA
BRANCH  15  24
ATOM     21  C   UNL     1      -0.444  16.049  23.391  0.00  0.00    +0.000 C 
ATOM     22  C   UNL     1      -0.633  14.688  22.831  0.00  0.00    +0.000 A 
ATOM     23  C   UNL     1      -0.110  14.149  21.630  0.00  0.00    +0.000 A 
ATOM     24  C   UNL     1      -0.526  12.838  21.614  0.00  0.00    +0.000 A 
ATOM     25  N   UNL     1      -1.230  12.654  22.777  0.00  0.00    +0.000 N 
ATOM     26  C   UNL     1      -1.876  11.458  23.258  0.00  0.00    +0.000 C 
ATOM     27  N   UNL     1      -1.364  13.786  23.496  0.00  0.00    +0.000 NA
ENDBRANCH  15  24
ENDBRANCH   1  18
TORSDOF 3
ENDMDL
MODEL 8
REMARK VINA RESULT:      -7.4      3.080      9.497
REMARK  Name = 
REMARK  5 active torsions:
REMARK  status: ('A' for Active; 'I' for Inactive)
REMARK    1  A    between atoms: C_1  and  C_2
REMARK    2  A    between atoms: C_4  and  N_5
REMARK    3  A    between atoms: C_8  and  N_9
REMARK    4  A    between atoms: C_10  and  C_12
REMARK    5  A    between atoms: N_23  and  C_24
REMARK                            x       y       z     vdW  Elec       q    Type
REMARK                         _______ _______ _______ _____ _____    ______ ____
ROOT
ATOM      1  N   UNL     1       1.367   8.507  19.695  0.00  0.00    +0.000 N 
ATOM      2  C   UNL     1       2.198   7.803  18.850  0.00  0.00    +0.000 C 
ATOM      3  O   UNL     1       2.810   8.341  17.934  0.00  0.00    +0.000 OA
ATOM      4  H   UNL     1       1.108   8.083  20.584  0.00  0.00    +0.000 HD
ENDROOT
BRANCH   2   5
ATOM      5  C   UNL     1       2.319   6.347  19.106  0.00  0.00    +0.000 A 
ATOM      6  C   UNL     1       1.990   5.805  20.356  0.00  0.00    +0.000 A 
ATOM      7  C   UNL     1       2.133   4.436  20.595  0.00  0.00    +0.000 A 
ATOM      8  C   UNL     1       2.610   3.605  19.566  0.00  0.00    +0.000 A 
ATOM      9  C   UNL     1       2.884   2.213  19.478  0.00  0.00    +0.000 A 
ATOM     10  C   UNL     1       3.336   1.956  18.209  0.00  0.00    +0.000 A 
ATOM     11  N   UNL     1       3.332   3.136  17.512  0.00  0.00    +0.000 N 
ATOM     12  C   UNL     1       2.904   4.164  18.326  0.00  0.00    +0.000 A 
ATOM     13  C   UNL     1       2.760   5.528  18.056  0.00  0.00    +0.000 A 
ATOM     14  H   UNL     1       3.611   3.244  16.544  0.00  0.00    +0.000 HD
ENDBRANCH   2   5
BRANCH   1  18
ATOM     15  N   UNL     1       0.075  11.728  20.631  0.00  0.00    +0.000 N 
ATOM     16  C   UNL     1      -0.348  11.752  19.235  0.00  0.00    +0.000 C 
ATOM     17  C   UNL     1      -0.008  10.346  18.761  0.00  0.00    +0.000 C 
ATOM     18  C   UNL     1       1.241   9.942  19.556  0.00  0.00    +0.000 C 
ATOM     19  C   UNL     1       1.012  10.670  20.868  0.00  0.00    +0.000 C 
ATOM     20  O   UNL     1       1.522  10.459  21.948  0.00  0.00    +0.000 OA
BRANCH  15  24
ATOM     21  C   UNL     1      -0.368  15.893  23.310  0.00  0.00    +0.000 C 
ATOM     22  C   UNL     1      -0.497  14.518  22.767  0.00  0.00    +0.000 A 
ATOM     23  C   UNL     1       0.100  13.969  21.606  0.00  0.00    +0.000 A 
ATOM     24  C   UNL     1      -0.285  12.648  21.594  0.00  0.00    +0.000 A 
ATOM     25  N   UNL     1      -1.046  12.470  22.723  0.00  0.00    +0.000 N 
ATOM     26  C   UNL     1      -1.690  11.269  23.192  0.00  0.00    +0.000 C 
ATOM     27  N   UNL     1      -1.242  13.612  23.411  0.00  0.00    +0.000 NA
ENDBRANCH  15  24
ENDBRANCH   1  18
TORSDOF 3
ENDMDL
MODEL 9
REMARK VINA RESULT:      -7.3      3.095      9.269
REMARK  Name = 
REMARK  5 active torsions:
REMARK  status: ('A' for Active; 'I' for Inactive)
REMARK    1  A    between atoms: C_1  and  C_2
REMARK    2  A    between atoms: C_4  and  N_5
REMARK    3  A    between atoms: C_8  and  N_9
REMARK    4  A    between atoms: C_10  and  C_12
REMARK    5  A    between atoms: N_23  and  C_24
REMARK                            x       y       z     vdW  Elec       q    Type
REMARK                         _______ _______ _______ _____ _____    ______ ____
ROOT
ATOM      1  N   UNL     1       1.677   7.903  19.140  0.00  0.00    +0.000 N 
ATOM      2  C   UNL     1       2.621   7.323  18.320  0.00  0.00    +0.000 C 
ATOM      3  O   UNL     1       3.344   7.984  17.582  0.00  0.00    +0.000 OA
ATOM      4  H   UNL     1       1.307   7.356  19.915  0.00  0.00    +0.000 HD
ENDROOT
BRANCH   2   5
ATOM      5  C   UNL     1       2.724   5.844  18.375  0.00  0.00    +0.000 A 
ATOM      6  C   UNL     1       1.713   5.032  17.844  0.00  0.00    +0.000 A 
ATOM      7  C   UNL     1       1.807   3.640  17.925  0.00  0.00    +0.000 A 
ATOM      8  C   UNL     1       2.929   3.061  18.544  0.00  0.00    +0.000 A 
ATOM      9  C   UNL     1       3.322   1.720  18.804  0.00  0.00    +0.000 A 
ATOM     10  C   UNL     1       4.533   1.758  19.447  0.00  0.00    +0.000 A 
ATOM     11  N   UNL     1       4.904   3.072  19.573  0.00  0.00    +0.000 N 
ATOM     12  C   UNL     1       3.931   3.890  19.039  0.00  0.00    +0.000 A 
ATOM     13  C   UNL     1       3.867   5.285  18.962  0.00  0.00    +0.000 A 
ATOM     14  H   UNL     1       5.761   3.397  20.003  0.00  0.00    +0.000 HD
ENDBRANCH   2   5
BRANCH   1  18
ATOM     15  N   UNL     1       0.130  10.959  20.230  0.00  0.00    +0.000 N 
ATOM     16  C   UNL     1       0.042  11.203  18.794  0.00  0.00    +0.000 C 
ATOM     17  C   UNL     1       0.514   9.882  18.204  0.00  0.00    +0.000 C 
ATOM     18  C   UNL     1       1.554   9.344  19.196  0.00  0.00    +0.000 C 
ATOM     19  C   UNL     1       1.011   9.865  20.514  0.00  0.00    +0.000 C 
ATOM     20  O   UNL     1       1.261   9.483  21.638  0.00  0.00    +0.000 OA
BRANCH  15  24
ATOM     21  C   UNL     1      -2.988  12.665  23.706  0.00  0.00    +0.000 C 
ATOM     22  C   UNL     1      -1.848  12.464  22.779  0.00  0.00    +0.000 A 
ATOM     23  C   UNL     1      -1.622  11.396  21.877  0.00  0.00    +0.000 A 
ATOM     24  C   UNL     1      -0.464  11.725  21.212  0.00  0.00    +0.000 A 
ATOM     25  N   UNL     1      -0.080  12.945  21.711  0.00  0.00    +0.000 N 
ATOM     26  C   UNL     1       1.065  13.744  21.350  0.00  0.00    +0.000 C 
ATOM     27  N   UNL     1      -0.871  13.377  22.713  0.00  0.00    +0.000 NA
ENDBRANCH  15  24
ENDBRANCH   1  18
TORSDOF 3
ENDMDL
