MODEL 1
REMARK VINA RESULT:      -8.3      0.000      0.000
REMARK  Name = 
REMARK  8 active torsions:
REMARK  status: ('A' for Active; 'I' for Inactive)
REMARK    1  A    between atoms: C_1  and  N_2
REMARK    2  A    between atoms: N_2  and  C_3
REMARK    3  A    between atoms: N_2  and  C_10
REMARK    4  A    between atoms: C_3  and  C_4
REMARK    5  A    between atoms: N_8  and  C_9
REMARK    6  A    between atoms: C_14  and  N_15
REMARK    7  A    between atoms: C_20  and  O_21
REMARK    8  A    between atoms: C_23  and  C_24
REMARK                            x       y       z     vdW  Elec       q    Type
REMARK                         _______ _______ _______ _____ _____    ______ ____
ROOT
ATOM      1  N   UNL     1       3.880   5.001  19.384  0.00  0.00    +0.000 N 
ATOM      2  C   UNL     1       5.263   5.531  19.449  0.00  0.00    +0.000 C 
ATOM      3  C   UNL     1       5.822   5.118  18.122  0.00  0.00    +0.000 A 
ATOM      4  C   UNL     1       5.122   3.977  17.712  0.00  0.00    +0.000 A 
ATOM      5  C   UNL     1       5.265   3.408  16.460  0.00  0.00    +0.000 A 
ATOM      6  C   UNL     1       6.146   4.038  15.593  0.00  0.00    +0.000 A 
ATOM      7  C   UNL     1       6.855   5.189  15.974  0.00  0.00    +0.000 A 
ATOM      8  C   UNL     1       6.701   5.758  17.255  0.00  0.00    +0.000 A 
ATOM      9  C   UNL     1       3.963   3.812  18.618  0.00  0.00    +0.000 C 
ATOM     10  O   UNL     1       3.154   2.907  18.525  0.00  0.00    +0.000 OA
ENDROOT
BRANCH   1  15
ATOM     11  C   UNL     1       1.932   8.153  19.486  0.00  0.00    +0.000 A 
ATOM     12  C   UNL     1       2.360   8.634  18.235  0.00  0.00    +0.000 A 
ATOM     13  C   UNL     1       2.890   7.796  17.256  0.00  0.00    +0.000 A 
ATOM     14  C   UNL     1       3.128   6.465  17.545  0.00  0.00    +0.000 A 
ATOM     15  C   UNL     1       2.979   6.022  18.864  0.00  0.00    +0.000 A 
ATOM     16  C   UNL     1       2.280   6.824  19.783  0.00  0.00    +0.000 A 
BRANCH  11  18
ATOM     17  C   UNL     1       0.751   8.399  21.637  0.00  0.00    +0.000 C 
ATOM     18  N   UNL     1       1.292   8.991  20.415  0.00  0.00    +0.000 N 
BRANCH  18  19
ATOM     19  C   UNL     1       0.507  10.121  19.871  0.00  0.00    +0.000 C 
BRANCH  19  20
ATOM     20  C   UNL     1       0.894  11.495  20.330  0.00  0.00    +0.000 A 
ATOM     21  N   UNL     1       0.589  12.014  21.502  0.00  0.00    +0.000 NA
ATOM     22  N   UNL     1       1.186  13.246  21.600  0.00  0.00    +0.000 NA
ATOM     23  C   UNL     1       1.838  13.457  20.483  0.00  0.00    +0.000 A 
ATOM     24  N   UNL     1       1.680  12.388  19.653  0.00  0.00    +0.000 N 
ATOM     25  C   UNL     1       2.236  12.271  18.331  0.00  0.00    +0.000 C 
ENDBRANCH  19  20
ENDBRANCH  18  19
ENDBRANCH  11  18
ENDBRANCH   1  15
BRANCH   8  26
ATOM     26  C   UNL     1       7.387   7.062  17.568  0.00  0.00    +0.000 C 
ATOM     27  F   UNL     1       8.210   7.510  16.581  0.00  0.00    +0.000 F 
ATOM     28  F   UNL     1       6.501   8.072  17.790  0.00  0.00    +0.000 F 
ATOM     29  F   UNL     1       8.161   6.992  18.686  0.00  0.00    +0.000 F 
ENDBRANCH   8  26
BRANCH   6  30
ATOM     30  O   UNL     1       6.300   3.608  14.308  0.00  0.00    +0.000 OA
ATOM     31  H   UNL     1       5.999   4.305  13.701  0.00  0.00    +0.000 HD
ENDBRANCH   6  30
TORSDOF 6
ENDMDL
MODEL 2
REMARK VINA RESULT:      -8.2      1.085      1.584
REMARK  Name = 
REMARK  8 active torsions:
REMARK  status: ('A' for Active; 'I' for Inactive)
REMARK    1  A    between atoms: C_1  and  N_2
REMARK    2  A    between atoms: N_2  and  C_3
REMARK    3  A    between atoms: N_2  and  C_10
REMARK    4  A    between atoms: C_3  and  C_4
REMARK    5  A    between atoms: N_8  and  C_9
REMARK    6  A    between atoms: C_14  and  N_15
REMARK    7  A    between atoms: C_20  and  O_21
REMARK    8  A    between atoms: C_23  and  C_24
REMARK                            x       y       z     vdW  Elec       q    Type
REMARK                         _______ _______ _______ _____ _____    ______ ____
ROOT
ATOM      1  N   UNL     1       4.027   4.632  19.271  0.00  0.00    +0.000 N 
ATOM      2  C   UNL     1       5.394   5.204  19.318  0.00  0.00    +0.000 C 
ATOM      3  C   UNL     1       5.857   5.031  17.904  0.00  0.00    +0.000 A 
ATOM      4  C   UNL     1       5.162   3.942  17.367  0.00  0.00    +0.000 A 
ATOM      5  C   UNL     1       5.222   3.585  16.033  0.00  0.00    +0.000 A 
ATOM      6  C   UNL     1       6.012   4.382  15.217  0.00  0.00    +0.000 A 
ATOM      7  C   UNL     1       6.713   5.487  15.725  0.00  0.00    +0.000 A 
ATOM      8  C   UNL     1       6.645   5.838  17.089  0.00  0.00    +0.000 A 
ATOM      9  C   UNL     1       4.085   3.585  18.318  0.00  0.00    +0.000 C 
ATOM     10  O   UNL     1       3.299   2.672  18.140  0.00  0.00    +0.000 OA
ENDROOT
BRANCH   1  15
ATOM     11  C   UNL     1       1.789   7.469  20.099  0.00  0.00    +0.000 A 
ATOM     12  C   UNL     1       2.222   8.310  19.058  0.00  0.00    +0.000 A 
ATOM     13  C   UNL     1       2.869   7.822  17.925  0.00  0.00    +0.000 A 
ATOM     14  C   UNL     1       3.219   6.485  17.855  0.00  0.00    +0.000 A 
ATOM     15  C   UNL     1       3.057   5.684  18.990  0.00  0.00    +0.000 A 
ATOM     16  C   UNL     1       2.247   6.141  20.045  0.00  0.00    +0.000 A 
BRANCH  11  18
ATOM     17  C   UNL     1      -0.415   7.782  21.159  0.00  0.00    +0.000 C 
ATOM     18  N   UNL     1       1.035   7.963  21.176  0.00  0.00    +0.000 N 
BRANCH  18  19
ATOM     19  C   UNL     1       1.496   9.224  21.798  0.00  0.00    +0.000 C 
BRANCH  19  20
ATOM     20  C   UNL     1       0.446  10.247  22.110  0.00  0.00    +0.000 A 
ATOM     21  N   UNL     1      -0.178  10.361  23.265  0.00  0.00    +0.000 NA
ATOM     22  N   UNL     1      -0.999  11.460  23.208  0.00  0.00    +0.000 NA
ATOM     23  C   UNL     1      -0.865  11.990  22.017  0.00  0.00    +0.000 A 
ATOM     24  N   UNL     1       0.028  11.260  21.290  0.00  0.00    +0.000 N 
ATOM     25  C   UNL     1       0.412  11.531  19.930  0.00  0.00    +0.000 C 
ENDBRANCH  19  20
ENDBRANCH  18  19
ENDBRANCH  11  18
ENDBRANCH   1  15
BRANCH   8  26
ATOM     26  C   UNL     1       7.313   7.104  17.558  0.00  0.00    +0.000 C 
ATOM     27  F   UNL     1       8.037   6.961  18.702  0.00  0.00    +0.000 F 
ATOM     28  F   UNL     1       8.184   7.601  16.636  0.00  0.00    +0.000 F 
ATOM     29  F   UNL     1       6.424   8.104  17.810  0.00  0.00    +0.000 F 
ENDBRANCH   8  26
BRANCH   6  30
ATOM     30  O   UNL     1       6.076   4.169  13.871  0.00  0.00    +0.000 OA
ATOM     31  H   UNL     1       5.247   3.758  13.574  0.00  0.00    +0.000 HD
ENDBRANCH   6  30
TORSDOF 6
ENDMDL
MODEL 3
REMARK VINA RESULT:      -8.1      0.775      1.261
REMARK  Name = 
REMARK  8 active torsions:
REMARK  status: ('A' for Active; 'I' for Inactive)
REMARK    1  A    between atoms: C_1  and  N_2
REMARK    2  A    between atoms: N_2  and  C_3
REMARK    3  A    between atoms: N_2  and  C_10
REMARK    4  A    between atoms: C_3  and  C_4
REMARK    5  A    between atoms: N_8  and  C_9
REMARK    6  A    between atoms: C_14  and  N_15
REMARK    7  A    between atoms: C_20  and  O_21
REMARK    8  A    between atoms: C_23  and  C_24
REMARK                            x       y       z     vdW  Elec       q    Type
REMARK                         _______ _______ _______ _____ _____    ______ ____
ROOT
ATOM      1  N   UNL     1       3.870   5.065  19.388  0.00  0.00    +0.000 N 
ATOM      2  C   UNL     1       5.259   5.581  19.450  0.00  0.00    +0.000 C 
ATOM      3  C   UNL     1       5.813   5.153  18.125  0.00  0.00    +0.000 A 
ATOM      4  C   UNL     1       5.101   4.018  17.722  0.00  0.00    +0.000 A 
ATOM      5  C   UNL     1       5.238   3.439  16.473  0.00  0.00    +0.000 A 
ATOM      6  C   UNL     1       6.126   4.056  15.603  0.00  0.00    +0.000 A 
ATOM      7  C   UNL     1       6.847   5.201  15.976  0.00  0.00    +0.000 A 
ATOM      8  C   UNL     1       6.699   5.780  17.254  0.00  0.00    +0.000 A 
ATOM      9  C   UNL     1       3.941   3.870  18.629  0.00  0.00    +0.000 C 
ATOM     10  O   UNL     1       3.123   2.973  18.541  0.00  0.00    +0.000 OA
ENDROOT
BRANCH   1  15
ATOM     11  C   UNL     1       1.868   8.181  19.511  0.00  0.00    +0.000 A 
ATOM     12  C   UNL     1       2.350   8.717  18.302  0.00  0.00    +0.000 A 
ATOM     13  C   UNL     1       2.943   7.926  17.320  0.00  0.00    +0.000 A 
ATOM     14  C   UNL     1       3.188   6.588  17.570  0.00  0.00    +0.000 A 
ATOM     15  C   UNL     1       2.981   6.092  18.861  0.00  0.00    +0.000 A 
ATOM     16  C   UNL     1       2.222   6.847  19.774  0.00  0.00    +0.000 A 
BRANCH  11  18
ATOM     17  C   UNL     1       0.724   8.361  21.688  0.00  0.00    +0.000 C 
ATOM     18  N   UNL     1       1.168   8.973  20.436  0.00  0.00    +0.000 N 
BRANCH  18  19
ATOM     19  C   UNL     1       0.255   9.999  19.889  0.00  0.00    +0.000 C 
BRANCH  19  20
ATOM     20  C   UNL     1       0.296  11.353  20.532  0.00  0.00    +0.000 A 
ATOM     21  N   UNL     1       1.347  11.871  21.136  0.00  0.00    +0.000 NA
ATOM     22  N   UNL     1       1.039  13.152  21.519  0.00  0.00    +0.000 NA
ATOM     23  C   UNL     1      -0.196  13.388  21.149  0.00  0.00    +0.000 A 
ATOM     24  N   UNL     1      -0.706  12.286  20.530  0.00  0.00    +0.000 N 
ATOM     25  C   UNL     1      -2.041  12.168  20.006  0.00  0.00    +0.000 C 
ENDBRANCH  19  20
ENDBRANCH  18  19
ENDBRANCH  11  18
ENDBRANCH   1  15
BRANCH   8  26
ATOM     26  C   UNL     1       7.398   7.078  17.560  0.00  0.00    +0.000 C 
ATOM     27  F   UNL     1       6.556   8.122  17.793  0.00  0.00    +0.000 F 
ATOM     28  F   UNL     1       8.187   6.994  18.666  0.00  0.00    +0.000 F 
ATOM     29  F   UNL     1       8.214   7.486  16.549  0.00  0.00    +0.000 F 
ENDBRANCH   8  26
BRANCH   6  30
ATOM     30  O   UNL     1       6.275   3.616  14.320  0.00  0.00    +0.000 OA
ATOM     31  H   UNL     1       6.120   4.356  13.710  0.00  0.00    +0.000 HD
ENDBRANCH   6  30
TORSDOF 6
ENDMDL
MODEL 4
REMARK VINA RESULT:      -8.0      3.681      4.993
REMARK  Name = 
REMARK  8 active torsions:
REMARK  status: ('A' for Active; 'I' for Inactive)
REMARK    1  A    between atoms: C_1  and  N_2
REMARK    2  A    between atoms: N_2  and  C_3
REMARK    3  A    between atoms: N_2  and  C_10
REMARK    4  A    between atoms: C_3  and  C_4
REMARK    5  A    between atoms: N_8  and  C_9
REMARK    6  A    between atoms: C_14  and  N_15
REMARK    7  A    between atoms: C_20  and  O_21
REMARK    8  A    between atoms: C_23  and  C_24
REMARK                            x       y       z     vdW  Elec       q    Type
REMARK                         _______ _______ _______ _____ _____    ______ ____
ROOT
ATOM      1  N   UNL     1       2.668   6.135  17.489  0.00  0.00    +0.000 N 
ATOM      2  C   UNL     1       1.687   5.051  17.737  0.00  0.00    +0.000 C 
ATOM      3  C   UNL     1       2.503   4.057  18.508  0.00  0.00    +0.000 A 
ATOM      4  C   UNL     1       3.840   4.238  18.135  0.00  0.00    +0.000 A 
ATOM      5  C   UNL     1       4.895   3.598  18.759  0.00  0.00    +0.000 A 
ATOM      6  C   UNL     1       4.568   2.753  19.810  0.00  0.00    +0.000 A 
ATOM      7  C   UNL     1       3.237   2.559  20.211  0.00  0.00    +0.000 A 
ATOM      8  C   UNL     1       2.170   3.217  19.565  0.00  0.00    +0.000 A 
ATOM      9  C   UNL     1       3.922   5.489  17.349  0.00  0.00    +0.000 C 
ATOM     10  O   UNL     1       4.955   5.927  16.877  0.00  0.00    +0.000 OA
ENDROOT
BRANCH   1  15
ATOM     11  C   UNL     1       1.472   9.239  19.123  0.00  0.00    +0.000 A 
ATOM     12  C   UNL     1       1.177   8.650  20.367  0.00  0.00    +0.000 A 
ATOM     13  C   UNL     1       1.735   7.438  20.769  0.00  0.00    +0.000 A 
ATOM     14  C   UNL     1       2.510   6.711  19.883  0.00  0.00    +0.000 A 
ATOM     15  C   UNL     1       2.589   7.130  18.551  0.00  0.00    +0.000 A 
ATOM     16  C   UNL     1       2.177   8.431  18.215  0.00  0.00    +0.000 A 
BRANCH  11  18
ATOM     17  C   UNL     1       1.960  11.587  18.550  0.00  0.00    +0.000 C 
ATOM     18  N   UNL     1       0.994  10.516  18.785  0.00  0.00    +0.000 N 
BRANCH  18  19
ATOM     19  C   UNL     1      -0.273  10.949  19.415  0.00  0.00    +0.000 C 
BRANCH  19  20
ATOM     20  C   UNL     1      -1.500  10.920  18.554  0.00  0.00    +0.000 A 
ATOM     21  N   UNL     1      -1.644  10.188  17.468  0.00  0.00    +0.000 NA
ATOM     22  N   UNL     1      -2.924  10.352  17.001  0.00  0.00    +0.000 NA
ATOM     23  C   UNL     1      -3.533  11.187  17.806  0.00  0.00    +0.000 A 
ATOM     24  N   UNL     1      -2.678  11.575  18.794  0.00  0.00    +0.000 N 
ATOM     25  C   UNL     1      -2.990  12.501  19.850  0.00  0.00    +0.000 C 
ENDBRANCH  19  20
ENDBRANCH  18  19
ENDBRANCH  11  18
ENDBRANCH   1  15
BRANCH   8  26
ATOM     26  C   UNL     1       0.775   3.074  20.115  0.00  0.00    +0.000 C 
ATOM     27  F   UNL     1      -0.074   2.384  19.306  0.00  0.00    +0.000 F 
ATOM     28  F   UNL     1       0.754   2.418  21.308  0.00  0.00    +0.000 F 
ATOM     29  F   UNL     1       0.173   4.275  20.337  0.00  0.00    +0.000 F 
ENDBRANCH   8  26
BRANCH   6  30
ATOM     30  O   UNL     1       5.537   2.136  20.546  0.00  0.00    +0.000 OA
ATOM     31  H   UNL     1       5.418   2.362  21.483  0.00  0.00    +0.000 HD
ENDBRANCH   6  30
TORSDOF 6
ENDMDL
MODEL 5
REMARK VINA RESULT:      -7.9      4.157      8.006
REMARK  Name = 
REMARK  8 active torsions:
REMARK  status: ('A' for Active; 'I' for Inactive)
REMARK    1  A    between atoms: C_1  and  N_2
REMARK    2  A    between atoms: N_2  and  C_3
REMARK    3  A    between atoms: N_2  and  C_10
REMARK    4  A    between atoms: C_3  and  C_4
REMARK    5  A    between atoms: N_8  and  C_9
REMARK    6  A    between atoms: C_14  and  N_15
REMARK    7  A    between atoms: C_20  and  O_21
REMARK    8  A    between atoms: C_23  and  C_24
REMARK                            x       y       z     vdW  Elec       q    Type
REMARK                         _______ _______ _______ _____ _____    ______ ____
ROOT
ATOM      1  N   UNL     1       0.762   8.329  21.151  0.00  0.00    +0.000 N 
ATOM      2  C   UNL     1      -0.506   8.641  20.449  0.00  0.00    +0.000 C 
ATOM      3  C   UNL     1      -0.370  10.110  20.191  0.00  0.00    +0.000 A 
ATOM      4  C   UNL     1       0.472  10.632  21.180  0.00  0.00    +0.000 A 
ATOM      5  C   UNL     1       0.945  11.931  21.167  0.00  0.00    +0.000 A 
ATOM      6  C   UNL     1       0.552  12.719  20.095  0.00  0.00    +0.000 A 
ATOM      7  C   UNL     1      -0.284  12.220  19.083  0.00  0.00    +0.000 A 
ATOM      8  C   UNL     1      -0.762  10.894  19.110  0.00  0.00    +0.000 A 
ATOM      9  C   UNL     1       1.080   9.490  21.900  0.00  0.00    +0.000 C 
ATOM     10  O   UNL     1       1.863   9.611  22.823  0.00  0.00    +0.000 OA
ENDROOT
BRANCH   1  15
ATOM     11  C   UNL     1       2.642   5.897  19.079  0.00  0.00    +0.000 A 
ATOM     12  C   UNL     1       2.550   6.623  17.876  0.00  0.00    +0.000 A 
ATOM     13  C   UNL     1       2.281   7.990  17.849  0.00  0.00    +0.000 A 
ATOM     14  C   UNL     1       1.967   8.652  19.022  0.00  0.00    +0.000 A 
ATOM     15  C   UNL     1       1.773   7.907  20.189  0.00  0.00    +0.000 A 
ATOM     16  C   UNL     1       2.221   6.574  20.236  0.00  0.00    +0.000 A 
BRANCH  11  18
ATOM     17  C   UNL     1       2.839   3.776  20.320  0.00  0.00    +0.000 C 
ATOM     18  N   UNL     1       3.030   4.548  19.093  0.00  0.00    +0.000 N 
BRANCH  18  19
ATOM     19  C   UNL     1       4.233   4.186  18.313  0.00  0.00    +0.000 C 
BRANCH  19  20
ATOM     20  C   UNL     1       5.513   4.874  18.685  0.00  0.00    +0.000 A 
ATOM     21  N   UNL     1       6.131   4.746  19.841  0.00  0.00    +0.000 NA
ATOM     22  N   UNL     1       7.308   5.448  19.784  0.00  0.00    +0.000 NA
ATOM     23  C   UNL     1       7.382   5.997  18.596  0.00  0.00    +0.000 A 
ATOM     24  N   UNL     1       6.274   5.670  17.872  0.00  0.00    +0.000 N 
ATOM     25  C   UNL     1       5.997   6.108  16.530  0.00  0.00    +0.000 C 
ENDBRANCH  19  20
ENDBRANCH  18  19
ENDBRANCH  11  18
ENDBRANCH   1  15
BRANCH   8  26
ATOM     26  C   UNL     1      -1.550  10.371  17.938  0.00  0.00    +0.000 C 
ATOM     27  F   UNL     1      -2.699   9.726  18.282  0.00  0.00    +0.000 F 
ATOM     28  F   UNL     1      -1.931  11.363  17.087  0.00  0.00    +0.000 F 
ATOM     29  F   UNL     1      -0.844   9.482  17.185  0.00  0.00    +0.000 F 
ENDBRANCH   8  26
BRANCH   6  30
ATOM     30  O   UNL     1       1.027  13.988  19.941  0.00  0.00    +0.000 OA
ATOM     31  H   UNL     1       0.586  14.404  19.181  0.00  0.00    +0.000 HD
ENDBRANCH   6  30
TORSDOF 6
ENDMDL
MODEL 6
REMARK VINA RESULT:      -7.9      1.216      1.678
REMARK  Name = 
REMARK  8 active torsions:
REMARK  status: ('A' for Active; 'I' for Inactive)
REMARK    1  A    between atoms: C_1  and  N_2
REMARK    2  A    between atoms: N_2  and  C_3
REMARK    3  A    between atoms: N_2  and  C_10
REMARK    4  A    between atoms: C_3  and  C_4
REMARK    5  A    between atoms: N_8  and  C_9
REMARK    6  A    between atoms: C_14  and  N_15
REMARK    7  A    between atoms: C_20  and  O_21
REMARK    8  A    between atoms: C_23  and  C_24
REMARK                            x       y       z     vdW  Elec       q    Type
REMARK                         _______ _______ _______ _____ _____    ______ ____
ROOT
ATOM      1  N   UNL     1       3.762   4.974  19.405  0.00  0.00    +0.000 N 
ATOM      2  C   UNL     1       5.156   5.476  19.450  0.00  0.00    +0.000 C 
ATOM      3  C   UNL     1       5.657   5.139  18.079  0.00  0.00    +0.000 A 
ATOM      4  C   UNL     1       4.922   4.039  17.625  0.00  0.00    +0.000 A 
ATOM      5  C   UNL     1       5.007   3.548  16.335  0.00  0.00    +0.000 A 
ATOM      6  C   UNL     1       5.868   4.218  15.477  0.00  0.00    +0.000 A 
ATOM      7  C   UNL     1       6.611   5.330  15.902  0.00  0.00    +0.000 A 
ATOM      8  C   UNL     1       6.516   5.819  17.221  0.00  0.00    +0.000 A 
ATOM      9  C   UNL     1       3.794   3.835  18.562  0.00  0.00    +0.000 C 
ATOM     10  O   UNL     1       2.966   2.951  18.443  0.00  0.00    +0.000 OA
ENDROOT
BRANCH   1  15
ATOM     11  C   UNL     1       1.799   8.091  19.815  0.00  0.00    +0.000 A 
ATOM     12  C   UNL     1       2.237   8.702  18.626  0.00  0.00    +0.000 A 
ATOM     13  C   UNL     1       2.781   7.973  17.570  0.00  0.00    +0.000 A 
ATOM     14  C   UNL     1       3.022   6.619  17.721  0.00  0.00    +0.000 A 
ATOM     15  C   UNL     1       2.862   6.041  18.984  0.00  0.00    +0.000 A 
ATOM     16  C   UNL     1       2.149   6.739  19.975  0.00  0.00    +0.000 A 
BRANCH  11  18
ATOM     17  C   UNL     1      -0.066   8.269  21.418  0.00  0.00    +0.000 C 
ATOM     18  N   UNL     1       1.146   8.825  20.819  0.00  0.00    +0.000 N 
BRANCH  18  19
ATOM     19  C   UNL     1       1.155  10.299  20.689  0.00  0.00    +0.000 C 
BRANCH  19  20
ATOM     20  C   UNL     1      -0.122  10.945  20.242  0.00  0.00    +0.000 A 
ATOM     21  N   UNL     1      -0.673  10.789  19.055  0.00  0.00    +0.000 NA
ATOM     22  N   UNL     1      -1.872  11.457  19.042  0.00  0.00    +0.000 NA
ATOM     23  C   UNL     1      -2.025  12.013  20.218  0.00  0.00    +0.000 A 
ATOM     24  N   UNL     1      -0.950  11.725  21.004  0.00  0.00    +0.000 N 
ATOM     25  C   UNL     1      -0.759  12.182  22.355  0.00  0.00    +0.000 C 
ENDBRANCH  19  20
ENDBRANCH  18  19
ENDBRANCH  11  18
ENDBRANCH   1  15
BRANCH   8  26
ATOM     26  C   UNL     1       7.237   7.089  17.590  0.00  0.00    +0.000 C 
ATOM     27  F   UNL     1       8.110   7.529  16.643  0.00  0.00    +0.000 F 
ATOM     28  F   UNL     1       6.381   8.126  17.806  0.00  0.00    +0.000 F 
ATOM     29  F   UNL     1       7.969   6.964  18.732  0.00  0.00    +0.000 F 
ENDBRANCH   8  26
BRANCH   6  30
ATOM     30  O   UNL     1       5.966   3.868  14.162  0.00  0.00    +0.000 OA
ATOM     31  H   UNL     1       6.694   4.365  13.753  0.00  0.00    +0.000 HD
ENDBRANCH   6  30
TORSDOF 6
ENDMDL
MODEL 7
REMARK VINA RESULT:      -7.8      3.359      4.431
REMARK  Name = 
REMARK  8 active torsions:
REMARK  status: ('A' for Active; 'I' for Inactive)
REMARK    1  A    between atoms: C_1  and  N_2
REMARK    2  A    between atoms: N_2  and  C_3
REMARK    3  A    between atoms: N_2  and  C_10
REMARK    4  A    between atoms: C_3  and  C_4
REMARK    5  A    between atoms: N_8  and  C_9
REMARK    6  A    between atoms: C_14  and  N_15
REMARK    7  A    between atoms: C_20  and  O_21
REMARK    8  A    between atoms: C_23  and  C_24
REMARK                            x       y       z     vdW  Elec       q    Type
REMARK                         _______ _______ _______ _____ _____    ______ ____
ROOT
ATOM      1  N   UNL     1       2.606   6.341  17.569  0.00  0.00    +0.000 N 
ATOM      2  C   UNL     1       1.655   5.219  17.750  0.00  0.00    +0.000 C 
ATOM      3  C   UNL     1       2.495   4.204  18.462  0.00  0.00    +0.000 A 
ATOM      4  C   UNL     1       3.828   4.442  18.106  0.00  0.00    +0.000 A 
ATOM      5  C   UNL     1       4.898   3.793  18.693  0.00  0.00    +0.000 A 
ATOM      6  C   UNL     1       4.592   2.879  19.691  0.00  0.00    +0.000 A 
ATOM      7  C   UNL     1       3.266   2.627  20.076  0.00  0.00    +0.000 A 
ATOM      8  C   UNL     1       2.183   3.293  19.467  0.00  0.00    +0.000 A 
ATOM      9  C   UNL     1       3.877   5.739  17.395  0.00  0.00    +0.000 C 
ATOM     10  O   UNL     1       4.900   6.231  16.953  0.00  0.00    +0.000 OA
ENDROOT
BRANCH   1  15
ATOM     11  C   UNL     1       1.299   9.290  19.396  0.00  0.00    +0.000 A 
ATOM     12  C   UNL     1       1.048   8.618  20.606  0.00  0.00    +0.000 A 
ATOM     13  C   UNL     1       1.665   7.411  20.930  0.00  0.00    +0.000 A 
ATOM     14  C   UNL     1       2.458   6.771  19.995  0.00  0.00    +0.000 A 
ATOM     15  C   UNL     1       2.499   7.269  18.689  0.00  0.00    +0.000 A 
ATOM     16  C   UNL     1       2.026   8.568  18.433  0.00  0.00    +0.000 A 
BRANCH  11  18
ATOM     17  C   UNL     1      -0.576  10.652  18.552  0.00  0.00    +0.000 C 
ATOM     18  N   UNL     1       0.761  10.562  19.138  0.00  0.00    +0.000 N 
BRANCH  18  19
ATOM     19  C   UNL     1       1.703  11.615  18.700  0.00  0.00    +0.000 C 
BRANCH  19  20
ATOM     20  C   UNL     1       2.019  12.693  19.692  0.00  0.00    +0.000 A 
ATOM     21  N   UNL     1       1.665  12.680  20.961  0.00  0.00    +0.000 NA
ATOM     22  N   UNL     1       2.206  13.782  21.574  0.00  0.00    +0.000 NA
ATOM     23  C   UNL     1       2.874  14.450  20.666  0.00  0.00    +0.000 A 
ATOM     24  N   UNL     1       2.781  13.808  19.467  0.00  0.00    +0.000 N 
ATOM     25  C   UNL     1       3.372  14.257  18.234  0.00  0.00    +0.000 C 
ENDBRANCH  19  20
ENDBRANCH  18  19
ENDBRANCH  11  18
ENDBRANCH   1  15
BRANCH   8  26
ATOM     26  C   UNL     1       0.792   3.081  20.002  0.00  0.00    +0.000 C 
ATOM     27  F   UNL     1       0.744   2.372  21.164  0.00  0.00    +0.000 F 
ATOM     28  F   UNL     1       0.154   4.254  20.266  0.00  0.00    +0.000 F 
ATOM     29  F   UNL     1      -0.009   2.407  19.131  0.00  0.00    +0.000 F 
ENDBRANCH   8  26
BRANCH   6  30
ATOM     30  O   UNL     1       5.576   2.245  20.392  0.00  0.00    +0.000 OA
ATOM     31  H   UNL     1       5.847   2.805  21.139  0.00  0.00    +0.000 HD
ENDBRANCH   6  30
TORSDOF 6
ENDMDL
MODEL 8
REMARK VINA RESULT:      -7.8      6.740      9.286
REMARK  Name = 
REMARK  8 active torsions:
REMARK  status: ('A' for Active; 'I' for Inactive)
REMARK    1  A    between atoms: C_1  and  N_2
REMARK    2  A    between atoms: N_2  and  C_3
REMARK    3  A    between atoms: N_2  and  C_10
REMARK    4  A    between atoms: C_3  and  C_4
REMARK    5  A    between atoms: N_8  and  C_9
REMARK    6  A    between atoms: C_14  and  N_15
REMARK    7  A    between atoms: C_20  and  O_21
REMARK    8  A    between atoms: C_23  and  C_24
REMARK                            x       y       z     vdW  Elec       q    Type
REMARK                         _______ _______ _______ _____ _____    ______ ____
ROOT
ATOM      1  N   UNL     1      -0.194  11.472  18.608  0.00  0.00    +0.000 N 
ATOM      2  C   UNL     1       0.528  10.698  19.646  0.00  0.00    +0.000 C 
ATOM      3  C   UNL     1       0.026  11.324  20.912  0.00  0.00    +0.000 A 
ATOM      4  C   UNL     1      -0.343  12.640  20.609  0.00  0.00    +0.000 A 
ATOM      5  C   UNL     1      -0.994  13.471  21.502  0.00  0.00    +0.000 A 
ATOM      6  C   UNL     1      -1.289  12.929  22.745  0.00  0.00    +0.000 A 
ATOM      7  C   UNL     1      -0.940  11.610  23.074  0.00  0.00    +0.000 A 
ATOM      8  C   UNL     1      -0.274  10.773  22.154  0.00  0.00    +0.000 A 
ATOM      9  C   UNL     1      -0.333  12.780  19.135  0.00  0.00    +0.000 C 
ATOM     10  O   UNL     1      -0.610  13.812  18.551  0.00  0.00    +0.000 OA
ENDROOT
BRANCH   1  15
ATOM     11  C   UNL     1      -3.835  11.239  17.954  0.00  0.00    +0.000 A 
ATOM     12  C   UNL     1      -3.724  10.531  16.742  0.00  0.00    +0.000 A 
ATOM     13  C   UNL     1      -2.580   9.813  16.400  0.00  0.00    +0.000 A 
ATOM     14  C   UNL     1      -1.457   9.884  17.205  0.00  0.00    +0.000 A 
ATOM     15  C   UNL     1      -1.439  10.799  18.262  0.00  0.00    +0.000 A 
ATOM     16  C   UNL     1      -2.648  11.372  18.695  0.00  0.00    +0.000 A 
BRANCH  11  18
ATOM     17  C   UNL     1      -5.888  12.434  17.296  0.00  0.00    +0.000 C 
ATOM     18  N   UNL     1      -5.036  11.858  18.335  0.00  0.00    +0.000 N 
BRANCH  18  19
ATOM     19  C   UNL     1      -5.036  12.596  19.617  0.00  0.00    +0.000 C 
BRANCH  19  20
ATOM     20  C   UNL     1      -6.100  12.228  20.608  0.00  0.00    +0.000 A 
ATOM     21  N   UNL     1      -6.749  11.082  20.629  0.00  0.00    +0.000 NA
ATOM     22  N   UNL     1      -7.575  11.072  21.725  0.00  0.00    +0.000 NA
ATOM     23  C   UNL     1      -7.419  12.215  22.346  0.00  0.00    +0.000 A 
ATOM     24  N   UNL     1      -6.506  12.977  21.679  0.00  0.00    +0.000 N 
ATOM     25  C   UNL     1      -6.094  14.303  22.056  0.00  0.00    +0.000 C 
ENDBRANCH  19  20
ENDBRANCH  18  19
ENDBRANCH  11  18
ENDBRANCH   1  15
BRANCH   8  26
ATOM     26  C   UNL     1      -0.035   9.330  22.510  0.00  0.00    +0.000 C 
ATOM     27  F   UNL     1      -0.233   9.041  23.826  0.00  0.00    +0.000 F 
ATOM     28  F   UNL     1      -0.855   8.486  21.825  0.00  0.00    +0.000 F 
ATOM     29  F   UNL     1       1.235   8.924  22.234  0.00  0.00    +0.000 F 
ENDBRANCH   8  26
BRANCH   6  30
ATOM     30  O   UNL     1      -2.001  13.634  23.670  0.00  0.00    +0.000 OA
ATOM     31  H   UNL     1      -1.962  14.580  23.449  0.00  0.00    +0.000 HD
ENDBRANCH   6  30
TORSDOF 6
ENDMDL
MODEL 9
REMARK VINA RESULT:      -7.7      4.424      8.545
REMARK  Name = 
REMARK  8 active torsions:
REMARK  status: ('A' for Active; 'I' for Inactive)
REMARK    1  A    between atoms: C_1  and  N_2
REMARK    2  A    between atoms: N_2  and  C_3
REMARK    3  A    between atoms: N_2  and  C_10
REMARK    4  A    between atoms: C_3  and  C_4
REMARK    5  A    between atoms: N_8  and  C_9
REMARK    6  A    between atoms: C_14  and  N_15
REMARK    7  A    between atoms: C_20  and  O_21
REMARK    8  A    between atoms: C_23  and  C_24
REMARK                            x       y       z     vdW  Elec       q    Type
REMARK                         _______ _______ _______ _____ _____    ______ ____
ROOT
ATOM      1  N   UNL     1       0.085   9.243  20.769  0.00  0.00    +0.000 N 
ATOM      2  C   UNL     1      -1.113   9.162  19.900  0.00  0.00    +0.000 C 
ATOM      3  C   UNL     1      -1.211  10.559  19.366  0.00  0.00    +0.000 A 
ATOM      4  C   UNL     1      -0.616  11.407  20.307  0.00  0.00    +0.000 A 
ATOM      5  C   UNL     1      -0.386  12.752  20.079  0.00  0.00    +0.000 A 
ATOM      6  C   UNL     1      -0.768  13.240  18.838  0.00  0.00    +0.000 A 
ATOM      7  C   UNL     1      -1.358  12.411  17.871  0.00  0.00    +0.000 A 
ATOM      8  C   UNL     1      -1.589  11.041  18.117  0.00  0.00    +0.000 A 
ATOM      9  C   UNL     1       0.085  10.559  21.297  0.00  0.00    +0.000 C 
ATOM     10  O   UNL     1       0.704  10.998  22.248  0.00  0.00    +0.000 OA
ENDROOT
BRANCH   1  15
ATOM     11  C   UNL     1       2.531   6.896  19.270  0.00  0.00    +0.000 A 
ATOM     12  C   UNL     1       2.543   7.487  17.994  0.00  0.00    +0.000 A 
ATOM     13  C   UNL     1       2.124   8.798  17.775  0.00  0.00    +0.000 A 
ATOM     14  C   UNL     1       1.558   9.521  18.810  0.00  0.00    +0.000 A 
ATOM     15  C   UNL     1       1.274   8.869  20.014  0.00  0.00    +0.000 A 
ATOM     16  C   UNL     1       1.861   7.618  20.273  0.00  0.00    +0.000 A 
BRANCH  11  18
ATOM     17  C   UNL     1       2.461   4.771  20.518  0.00  0.00    +0.000 C 
ATOM     18  N   UNL     1       3.067   5.617  19.491  0.00  0.00    +0.000 N 
BRANCH  18  19
ATOM     19  C   UNL     1       4.531   5.466  19.347  0.00  0.00    +0.000 C 
BRANCH  19  20
ATOM     20  C   UNL     1       5.026   4.877  18.059  0.00  0.00    +0.000 A 
ATOM     21  N   UNL     1       4.258   4.372  17.116  0.00  0.00    +0.000 NA
ATOM     22  N   UNL     1       5.053   4.015  16.055  0.00  0.00    +0.000 NA
ATOM     23  C   UNL     1       6.291   4.303  16.376  0.00  0.00    +0.000 A 
ATOM     24  N   UNL     1       6.324   4.842  17.628  0.00  0.00    +0.000 N 
ATOM     25  C   UNL     1       7.513   5.263  18.321  0.00  0.00    +0.000 C 
ENDBRANCH  19  20
ENDBRANCH  18  19
ENDBRANCH  11  18
ENDBRANCH   1  15
BRANCH   8  26
ATOM     26  C   UNL     1      -2.107  10.170  17.004  0.00  0.00    +0.000 C 
ATOM     27  F   UNL     1      -3.241   9.484  17.315  0.00  0.00    +0.000 F 
ATOM     28  F   UNL     1      -2.410  10.885  15.885  0.00  0.00    +0.000 F 
ATOM     29  F   UNL     1      -1.206   9.227  16.612  0.00  0.00    +0.000 F 
ENDBRANCH   8  26
BRANCH   6  30
ATOM     30  O   UNL     1      -0.513  14.531  18.479  0.00  0.00    +0.000 OA
ATOM     31  H   UNL     1       0.334  14.568  18.003  0.00  0.00    +0.000 HD
ENDBRANCH   6  30
TORSDOF 6
ENDMDL
