MODEL 1
REMARK VINA RESULT:      -8.6      0.000      0.000
REMARK  Name = 
REMARK  5 active torsions:
REMARK  status: ('A' for Active; 'I' for Inactive)
REMARK    1  A    between atoms: C_1  and  C_2
REMARK    2  A    between atoms: C_4  and  C_5
REMARK    3  A    between atoms: C_8  and  C_9
REMARK    4  A    between atoms: N_13  and  S_14
REMARK    5  A    between atoms: S_14  and  C_17
REMARK                            x       y       z     vdW  Elec       q    Type
REMARK                         _______ _______ _______ _____ _____    ______ ____
ROOT
ATOM      1  C   UNL     1       2.902   5.014  20.089  0.00  0.00    +0.000 C 
ATOM      2  C   UNL     1       2.058   4.177  21.043  0.00  0.00    +0.000 C 
ATOM      3  C   UNL     1       0.894   3.703  20.186  0.00  0.00    +0.000 C 
ATOM      4  C   UNL     1       1.421   3.680  18.751  0.00  0.00    +0.000 C 
ATOM      5  N   UNL     1       2.792   4.279  18.783  0.00  0.00    +0.000 NA
ENDROOT
BRANCH   1   9
ATOM      6  C   UNL     1       1.505   8.318  20.069  0.00  0.00    +0.000 A 
ATOM      7  N   UNL     1       2.054   8.309  18.843  0.00  0.00    +0.000 NA
ATOM      8  O   UNL     1       2.628   7.039  18.752  0.00  0.00    +0.000 OA
ATOM      9  C   UNL     1       2.371   6.409  19.936  0.00  0.00    +0.000 A 
ATOM     10  N   UNL     1       1.688   7.153  20.780  0.00  0.00    +0.000 NA
BRANCH   6  14
ATOM     11  C   UNL     1      -1.373  11.223  23.074  0.00  0.00    +0.000 C 
ATOM     12  C   UNL     1      -0.525  10.644  22.010  0.00  0.00    +0.000 A 
ATOM     13  C   UNL     1      -0.004   9.382  21.829  0.00  0.00    +0.000 A 
ATOM     14  C   UNL     1       0.748   9.452  20.630  0.00  0.00    +0.000 A 
ATOM     15  N   UNL     1       0.688  10.680  20.089  0.00  0.00    +0.000 NA
ATOM     16  N   UNL     1      -0.088  11.375  20.938  0.00  0.00    +0.000 N 
ATOM     17  H   UNL     1      -0.273  12.350  20.727  0.00  0.00    +0.000 HD
ENDBRANCH   6  14
ENDBRANCH   1   9
BRANCH   5  18
ATOM     18  S   UNL     1       4.077   3.185  18.533  0.00  0.00    +0.000 S 
ATOM     19  O   UNL     1       4.792   3.054  19.787  0.00  0.00    +0.000 OA
ATOM     20  O   UNL     1       3.529   2.021  17.867  0.00  0.00    +0.000 OA
BRANCH  18  21
ATOM     21  C   UNL     1       5.158   4.024  17.404  0.00  0.00    +0.000 A 
ATOM     22  C   UNL     1       6.354   4.566  17.883  0.00  0.00    +0.000 A 
ATOM     23  C   UNL     1       7.244   5.165  16.990  0.00  0.00    +0.000 A 
ATOM     24  C   UNL     1       6.942   5.213  15.627  0.00  0.00    +0.000 A 
ATOM     25  C   UNL     1       5.750   4.665  15.152  0.00  0.00    +0.000 A 
ATOM     26  C   UNL     1       4.852   4.067  16.039  0.00  0.00    +0.000 A 
ENDBRANCH  18  21
ENDBRANCH   5  18
TORSDOF 4
ENDMDL
MODEL 2
REMARK VINA RESULT:      -8.4      1.198      1.635
REMARK  Name = 
REMARK  5 active torsions:
REMARK  status: ('A' for Active; 'I' for Inactive)
REMARK    1  A    between atoms: C_1  and  C_2
REMARK    2  A    between atoms: C_4  and  C_5
REMARK    3  A    between atoms: C_8  and  C_9
REMARK    4  A    between atoms: N_13  and  S_14
REMARK    5  A    between atoms: S_14  and  C_17
REMARK                            x       y       z     vdW  Elec       q    Type
REMARK                         _______ _______ _______ _____ _____    ______ ____
ROOT
ATOM      1  C   UNL     1       3.091   5.625  19.900  0.00  0.00    +0.000 C 
ATOM      2  C   UNL     1       2.346   4.673  20.829  0.00  0.00    +0.000 C 
ATOM      3  C   UNL     1       1.282   4.048  19.940  0.00  0.00    +0.000 C 
ATOM      4  C   UNL     1       1.844   4.107  18.519  0.00  0.00    +0.000 C 
ATOM      5  N   UNL     1       3.118   4.890  18.590  0.00  0.00    +0.000 NA
ENDROOT
BRANCH   1   9
ATOM      6  C   UNL     1       1.261   8.710  19.856  0.00  0.00    +0.000 A 
ATOM      7  N   UNL     1       1.799   8.761  18.626  0.00  0.00    +0.000 NA
ATOM      8  O   UNL     1       2.538   7.579  18.544  0.00  0.00    +0.000 OA
ATOM      9  C   UNL     1       2.375   6.934  19.737  0.00  0.00    +0.000 A 
ATOM     10  N   UNL     1       1.604   7.589  20.578  0.00  0.00    +0.000 NA
BRANCH   6  14
ATOM     11  C   UNL     1      -1.357  11.659  23.051  0.00  0.00    +0.000 C 
ATOM     12  C   UNL     1      -0.746  10.977  21.890  0.00  0.00    +0.000 A 
ATOM     13  C   UNL     1       0.118   9.908  21.796  0.00  0.00    +0.000 A 
ATOM     14  C   UNL     1       0.362   9.738  20.411  0.00  0.00    +0.000 A 
ATOM     15  N   UNL     1      -0.321  10.638  19.684  0.00  0.00    +0.000 NA
ATOM     16  N   UNL     1      -0.981  11.367  20.598  0.00  0.00    +0.000 N 
ATOM     17  H   UNL     1      -1.572  12.125  20.271  0.00  0.00    +0.000 HD
ENDBRANCH   6  14
ENDBRANCH   1   9
BRANCH   5  18
ATOM     18  S   UNL     1       4.548   3.987  18.371  0.00  0.00    +0.000 S 
ATOM     19  O   UNL     1       4.820   3.288  19.612  0.00  0.00    +0.000 OA
ATOM     20  O   UNL     1       4.413   3.259  17.126  0.00  0.00    +0.000 OA
BRANCH  18  21
ATOM     21  C   UNL     1       5.818   5.210  18.175  0.00  0.00    +0.000 A 
ATOM     22  C   UNL     1       5.642   6.227  17.232  0.00  0.00    +0.000 A 
ATOM     23  C   UNL     1       6.601   7.234  17.119  0.00  0.00    +0.000 A 
ATOM     24  C   UNL     1       7.724   7.228  17.951  0.00  0.00    +0.000 A 
ATOM     25  C   UNL     1       7.892   6.215  18.897  0.00  0.00    +0.000 A 
ATOM     26  C   UNL     1       6.938   5.201  19.013  0.00  0.00    +0.000 A 
ENDBRANCH  18  21
ENDBRANCH   5  18
TORSDOF 4
ENDMDL
MODEL 3
REMARK VINA RESULT:      -8.4      1.105      1.186
REMARK  Name = 
REMARK  5 active torsions:
REMARK  status: ('A' for Active; 'I' for Inactive)
REMARK    1  A    between atoms: C_1  and  C_2
REMARK    2  A    between atoms: C_4  and  C_5
REMARK    3  A    between atoms: C_8  and  C_9
REMARK    4  A    between atoms: N_13  and  S_14
REMARK    5  A    between atoms: S_14  and  C_17
REMARK                            x       y       z     vdW  Elec       q    Type
REMARK                         _______ _______ _______ _____ _____    ______ ____
ROOT
ATOM      1  C   UNL     1       2.861   4.995  20.130  0.00  0.00    +0.000 C 
ATOM      2  C   UNL     1       2.063   4.025  20.995  0.00  0.00    +0.000 C 
ATOM      3  C   UNL     1       0.901   3.609  20.108  0.00  0.00    +0.000 C 
ATOM      4  C   UNL     1       1.400   3.767  18.671  0.00  0.00    +0.000 C 
ATOM      5  N   UNL     1       2.750   4.408  18.750  0.00  0.00    +0.000 NA
ENDROOT
BRANCH   1   9
ATOM      6  C   UNL     1       1.351   8.227  20.506  0.00  0.00    +0.000 A 
ATOM      7  N   UNL     1       1.876   8.376  19.278  0.00  0.00    +0.000 NA
ATOM      8  O   UNL     1       2.491   7.146  19.035  0.00  0.00    +0.000 OA
ATOM      9  C   UNL     1       2.279   6.378  20.144  0.00  0.00    +0.000 A 
ATOM     10  N   UNL     1       1.589   6.997  21.078  0.00  0.00    +0.000 NA
BRANCH   6  14
ATOM     11  C   UNL     1      -1.670  12.180  21.508  0.00  0.00    +0.000 C 
ATOM     12  C   UNL     1      -0.766  11.010  21.541  0.00  0.00    +0.000 A 
ATOM     13  C   UNL     1      -0.164  10.278  20.541  0.00  0.00    +0.000 A 
ATOM     14  C   UNL     1       0.568   9.263  21.204  0.00  0.00    +0.000 A 
ATOM     15  N   UNL     1       0.443   9.364  22.538  0.00  0.00    +0.000 NA
ATOM     16  N   UNL     1      -0.361  10.426  22.712  0.00  0.00    +0.000 N 
ATOM     17  H   UNL     1      -0.601  10.694  23.661  0.00  0.00    +0.000 HD
ENDBRANCH   6  14
ENDBRANCH   1   9
BRANCH   5  18
ATOM     18  S   UNL     1       4.067   3.397  18.358  0.00  0.00    +0.000 S 
ATOM     19  O   UNL     1       5.037   3.504  19.430  0.00  0.00    +0.000 OA
ATOM     20  O   UNL     1       3.523   2.109  17.977  0.00  0.00    +0.000 OA
BRANCH  18  21
ATOM     21  C   UNL     1       4.791   4.150  16.924  0.00  0.00    +0.000 A 
ATOM     22  C   UNL     1       4.667   5.531  16.745  0.00  0.00    +0.000 A 
ATOM     23  C   UNL     1       5.294   6.143  15.659  0.00  0.00    +0.000 A 
ATOM     24  C   UNL     1       6.045   5.378  14.763  0.00  0.00    +0.000 A 
ATOM     25  C   UNL     1       6.172   4.001  14.949  0.00  0.00    +0.000 A 
ATOM     26  C   UNL     1       5.545   3.381  16.032  0.00  0.00    +0.000 A 
ENDBRANCH  18  21
ENDBRANCH   5  18
TORSDOF 4
ENDMDL
MODEL 4
REMARK VINA RESULT:      -8.4      1.021      1.131
REMARK  Name = 
REMARK  5 active torsions:
REMARK  status: ('A' for Active; 'I' for Inactive)
REMARK    1  A    between atoms: C_1  and  C_2
REMARK    2  A    between atoms: C_4  and  C_5
REMARK    3  A    between atoms: C_8  and  C_9
REMARK    4  A    between atoms: N_13  and  S_14
REMARK    5  A    between atoms: S_14  and  C_17
REMARK                            x       y       z     vdW  Elec       q    Type
REMARK                         _______ _______ _______ _____ _____    ______ ____
ROOT
ATOM      1  C   UNL     1       3.060   5.445  19.889  0.00  0.00    +0.000 C 
ATOM      2  C   UNL     1       2.230   4.683  20.916  0.00  0.00    +0.000 C 
ATOM      3  C   UNL     1       1.103   4.071  20.099  0.00  0.00    +0.000 C 
ATOM      4  C   UNL     1       1.657   3.912  18.684  0.00  0.00    +0.000 C 
ATOM      5  N   UNL     1       3.003   4.566  18.670  0.00  0.00    +0.000 NA
ENDROOT
BRANCH   1   9
ATOM      6  C   UNL     1       1.531   8.663  19.481  0.00  0.00    +0.000 A 
ATOM      7  N   UNL     1       2.125   8.554  18.281  0.00  0.00    +0.000 NA
ATOM      8  O   UNL     1       2.753   7.308  18.341  0.00  0.00    +0.000 OA
ATOM      9  C   UNL     1       2.478   6.791  19.575  0.00  0.00    +0.000 A 
ATOM     10  N   UNL     1       1.735   7.587  20.315  0.00  0.00    +0.000 NA
BRANCH   6  14
ATOM     11  C   UNL     1      -2.103  12.198  19.731  0.00  0.00    +0.000 C 
ATOM     12  C   UNL     1      -0.926  11.322  19.921  0.00  0.00    +0.000 A 
ATOM     13  C   UNL     1      -0.443  10.254  19.197  0.00  0.00    +0.000 A 
ATOM     14  C   UNL     1       0.708   9.814  19.896  0.00  0.00    +0.000 A 
ATOM     15  N   UNL     1       0.937  10.571  20.982  0.00  0.00    +0.000 NA
ATOM     16  N   UNL     1      -0.059  11.473  20.970  0.00  0.00    +0.000 N 
ATOM     17  H   UNL     1      -0.091  12.161  21.715  0.00  0.00    +0.000 HD
ENDBRANCH   6  14
ENDBRANCH   1   9
BRANCH   5  18
ATOM     18  S   UNL     1       4.334   3.505  18.562  0.00  0.00    +0.000 S 
ATOM     19  O   UNL     1       5.128   3.672  19.764  0.00  0.00    +0.000 OA
ATOM     20  O   UNL     1       3.819   2.204  18.189  0.00  0.00    +0.000 OA
BRANCH  18  21
ATOM     21  C   UNL     1       5.296   4.138  17.212  0.00  0.00    +0.000 A 
ATOM     22  C   UNL     1       6.604   4.569  17.452  0.00  0.00    +0.000 A 
ATOM     23  C   UNL     1       7.393   5.002  16.385  0.00  0.00    +0.000 A 
ATOM     24  C   UNL     1       6.877   4.995  15.086  0.00  0.00    +0.000 A 
ATOM     25  C   UNL     1       5.573   4.558  14.850  0.00  0.00    +0.000 A 
ATOM     26  C   UNL     1       4.777   4.127  15.913  0.00  0.00    +0.000 A 
ENDBRANCH  18  21
ENDBRANCH   5  18
TORSDOF 4
ENDMDL
MODEL 5
REMARK VINA RESULT:      -8.4      0.828      1.341
REMARK  Name = 
REMARK  5 active torsions:
REMARK  status: ('A' for Active; 'I' for Inactive)
REMARK    1  A    between atoms: C_1  and  C_2
REMARK    2  A    between atoms: C_4  and  C_5
REMARK    3  A    between atoms: C_8  and  C_9
REMARK    4  A    between atoms: N_13  and  S_14
REMARK    5  A    between atoms: S_14  and  C_17
REMARK                            x       y       z     vdW  Elec       q    Type
REMARK                         _______ _______ _______ _____ _____    ______ ____
ROOT
ATOM      1  C   UNL     1       2.961   5.168  19.968  0.00  0.00    +0.000 C 
ATOM      2  C   UNL     1       2.129   4.379  20.973  0.00  0.00    +0.000 C 
ATOM      3  C   UNL     1       0.957   3.862  20.154  0.00  0.00    +0.000 C 
ATOM      4  C   UNL     1       1.467   3.767  18.716  0.00  0.00    +0.000 C 
ATOM      5  N   UNL     1       2.837   4.368  18.702  0.00  0.00    +0.000 NA
ENDROOT
BRANCH   1   9
ATOM      6  C   UNL     1       1.561   8.466  19.798  0.00  0.00    +0.000 A 
ATOM      7  N   UNL     1       2.088   8.393  18.565  0.00  0.00    +0.000 NA
ATOM      8  O   UNL     1       2.661   7.119  18.531  0.00  0.00    +0.000 OA
ATOM      9  C   UNL     1       2.426   6.553  19.751  0.00  0.00    +0.000 A 
ATOM     10  N   UNL     1       1.759   7.341  20.567  0.00  0.00    +0.000 NA
BRANCH   6  14
ATOM     11  C   UNL     1      -1.746  12.285  20.286  0.00  0.00    +0.000 C 
ATOM     12  C   UNL     1      -0.673  11.278  20.433  0.00  0.00    +0.000 A 
ATOM     13  C   UNL     1      -0.229  10.272  19.603  0.00  0.00    +0.000 A 
ATOM     14  C   UNL     1       0.814   9.629  20.313  0.00  0.00    +0.000 A 
ATOM     15  N   UNL     1       1.019  10.208  21.508  0.00  0.00    +0.000 NA
ATOM     16  N   UNL     1       0.114  11.199  21.552  0.00  0.00    +0.000 N 
ATOM     17  H   UNL     1       0.082  11.782  22.382  0.00  0.00    +0.000 HD
ENDBRANCH   6  14
ENDBRANCH   1   9
BRANCH   5  18
ATOM     18  S   UNL     1       4.121   3.265  18.493  0.00  0.00    +0.000 S 
ATOM     19  O   UNL     1       4.812   3.149  19.762  0.00  0.00    +0.000 OA
ATOM     20  O   UNL     1       3.579   2.093  17.834  0.00  0.00    +0.000 OA
BRANCH  18  21
ATOM     21  C   UNL     1       5.227   4.081  17.371  0.00  0.00    +0.000 A 
ATOM     22  C   UNL     1       4.918   4.103  16.007  0.00  0.00    +0.000 A 
ATOM     23  C   UNL     1       5.744   4.803  15.127  0.00  0.00    +0.000 A 
ATOM     24  C   UNL     1       6.865   5.483  15.609  0.00  0.00    +0.000 A 
ATOM     25  C   UNL     1       7.166   5.464  16.972  0.00  0.00    +0.000 A 
ATOM     26  C   UNL     1       6.347   4.762  17.859  0.00  0.00    +0.000 A 
ENDBRANCH  18  21
ENDBRANCH   5  18
TORSDOF 4
ENDMDL
MODEL 6
REMARK VINA RESULT:      -8.4      1.701      1.992
REMARK  Name = 
REMARK  5 active torsions:
REMARK  status: ('A' for Active; 'I' for Inactive)
REMARK    1  A    between atoms: C_1  and  C_2
REMARK    2  A    between atoms: C_4  and  C_5
REMARK    3  A    between atoms: C_8  and  C_9
REMARK    4  A    between atoms: N_13  and  S_14
REMARK    5  A    between atoms: S_14  and  C_17
REMARK                            x       y       z     vdW  Elec       q    Type
REMARK                         _______ _______ _______ _____ _____    ______ ____
ROOT
ATOM      1  C   UNL     1       2.848   4.945  20.155  0.00  0.00    +0.000 C 
ATOM      2  C   UNL     1       2.035   3.943  20.967  0.00  0.00    +0.000 C 
ATOM      3  C   UNL     1       0.914   3.529  20.027  0.00  0.00    +0.000 C 
ATOM      4  C   UNL     1       1.463   3.729  18.615  0.00  0.00    +0.000 C 
ATOM      5  N   UNL     1       2.798   4.389  18.759  0.00  0.00    +0.000 NA
ENDROOT
BRANCH   1   9
ATOM      6  C   UNL     1       1.535   8.271  19.871  0.00  0.00    +0.000 A 
ATOM      7  N   UNL     1       1.072   7.961  21.093  0.00  0.00    +0.000 NA
ATOM      8  O   UNL     1       1.544   6.663  21.300  0.00  0.00    +0.000 OA
ATOM      9  C   UNL     1       2.243   6.317  20.179  0.00  0.00    +0.000 A 
ATOM     10  N   UNL     1       2.263   7.269  19.270  0.00  0.00    +0.000 NA
BRANCH   6  14
ATOM     11  C   UNL     1      -0.296  12.832  18.604  0.00  0.00    +0.000 C 
ATOM     12  C   UNL     1       0.445  11.557  18.726  0.00  0.00    +0.000 A 
ATOM     13  C   UNL     1       0.281  10.469  19.555  0.00  0.00    +0.000 A 
ATOM     14  C   UNL     1       1.319   9.569  19.207  0.00  0.00    +0.000 A 
ATOM     15  N   UNL     1       2.075  10.061  18.211  0.00  0.00    +0.000 NA
ATOM     16  N   UNL     1       1.524  11.255  17.939  0.00  0.00    +0.000 N 
ATOM     17  H   UNL     1       1.942  11.819  17.206  0.00  0.00    +0.000 HD
ENDBRANCH   6  14
ENDBRANCH   1   9
BRANCH   5  18
ATOM     18  S   UNL     1       4.146   3.409  18.394  0.00  0.00    +0.000 S 
ATOM     19  O   UNL     1       5.074   3.506  19.504  0.00  0.00    +0.000 OA
ATOM     20  O   UNL     1       3.638   2.121  17.964  0.00  0.00    +0.000 OA
BRANCH  18  21
ATOM     21  C   UNL     1       4.909   4.206  17.005  0.00  0.00    +0.000 A 
ATOM     22  C   UNL     1       5.616   3.432  16.081  0.00  0.00    +0.000 A 
ATOM     23  C   UNL     1       6.160   4.039  14.948  0.00  0.00    +0.000 A 
ATOM     24  C   UNL     1       5.989   5.410  14.739  0.00  0.00    +0.000 A 
ATOM     25  C   UNL     1       5.277   6.178  15.660  0.00  0.00    +0.000 A 
ATOM     26  C   UNL     1       4.733   5.578  16.798  0.00  0.00    +0.000 A 
ENDBRANCH  18  21
ENDBRANCH   5  18
TORSDOF 4
ENDMDL
MODEL 7
REMARK VINA RESULT:      -8.3      1.870      2.237
REMARK  Name = 
REMARK  5 active torsions:
REMARK  status: ('A' for Active; 'I' for Inactive)
REMARK    1  A    between atoms: C_1  and  C_2
REMARK    2  A    between atoms: C_4  and  C_5
REMARK    3  A    between atoms: C_8  and  C_9
REMARK    4  A    between atoms: N_13  and  S_14
REMARK    5  A    between atoms: S_14  and  C_17
REMARK                            x       y       z     vdW  Elec       q    Type
REMARK                         _______ _______ _______ _____ _____    ______ ____
ROOT
ATOM      1  C   UNL     1       3.324   6.186  18.905  0.00  0.00    +0.000 C 
ATOM      2  C   UNL     1       2.712   5.322  20.002  0.00  0.00    +0.000 C 
ATOM      3  C   UNL     1       1.554   4.617  19.313  0.00  0.00    +0.000 C 
ATOM      4  C   UNL     1       1.934   4.546  17.834  0.00  0.00    +0.000 C 
ATOM      5  N   UNL     1       3.197   5.333  17.673  0.00  0.00    +0.000 NA
ENDROOT
BRANCH   1   9
ATOM      6  C   UNL     1       1.424   9.225  18.797  0.00  0.00    +0.000 A 
ATOM      7  N   UNL     1       1.953   9.259  17.563  0.00  0.00    +0.000 NA
ATOM      8  O   UNL     1       2.719   8.093  17.505  0.00  0.00    +0.000 OA
ATOM      9  C   UNL     1       2.578   7.473  18.714  0.00  0.00    +0.000 A 
ATOM     10  N   UNL     1       1.797   8.131  19.544  0.00  0.00    +0.000 NA
BRANCH   6  14
ATOM     11  C   UNL     1      -2.608  12.216  19.548  0.00  0.00    +0.000 C 
ATOM     12  C   UNL     1      -1.308  11.512  19.581  0.00  0.00    +0.000 A 
ATOM     13  C   UNL     1      -0.769  10.529  18.780  0.00  0.00    +0.000 A 
ATOM     14  C   UNL     1       0.504  10.246  19.333  0.00  0.00    +0.000 A 
ATOM     15  N   UNL     1       0.751  11.017  20.406  0.00  0.00    +0.000 NA
ATOM     16  N   UNL     1      -0.354  11.771  20.529  0.00  0.00    +0.000 N 
ATOM     17  H   UNL     1      -0.394  12.440  21.291  0.00  0.00    +0.000 HD
ENDBRANCH   6  14
ENDBRANCH   1   9
BRANCH   5  18
ATOM     18  S   UNL     1       4.600   4.415  17.360  0.00  0.00    +0.000 S 
ATOM     19  O   UNL     1       4.602   3.290  18.275  0.00  0.00    +0.000 OA
ATOM     20  O   UNL     1       4.667   4.206  15.928  0.00  0.00    +0.000 OA
BRANCH  18  21
ATOM     21  C   UNL     1       5.938   5.477  17.839  0.00  0.00    +0.000 A 
ATOM     22  C   UNL     1       6.718   5.131  18.946  0.00  0.00    +0.000 A 
ATOM     23  C   UNL     1       7.817   5.921  19.287  0.00  0.00    +0.000 A 
ATOM     24  C   UNL     1       8.137   7.044  18.520  0.00  0.00    +0.000 A 
ATOM     25  C   UNL     1       7.360   7.382  17.411  0.00  0.00    +0.000 A 
ATOM     26  C   UNL     1       6.257   6.599  17.065  0.00  0.00    +0.000 A 
ENDBRANCH  18  21
ENDBRANCH   5  18
TORSDOF 4
ENDMDL
MODEL 8
REMARK VINA RESULT:      -8.2      1.868      2.345
REMARK  Name = 
REMARK  5 active torsions:
REMARK  status: ('A' for Active; 'I' for Inactive)
REMARK    1  A    between atoms: C_1  and  C_2
REMARK    2  A    between atoms: C_4  and  C_5
REMARK    3  A    between atoms: C_8  and  C_9
REMARK    4  A    between atoms: N_13  and  S_14
REMARK    5  A    between atoms: S_14  and  C_17
REMARK                            x       y       z     vdW  Elec       q    Type
REMARK                         _______ _______ _______ _____ _____    ______ ____
ROOT
ATOM      1  C   UNL     1       2.943   5.268  20.093  0.00  0.00    +0.000 C 
ATOM      2  C   UNL     1       2.140   4.179  20.795  0.00  0.00    +0.000 C 
ATOM      3  C   UNL     1       1.133   3.731  19.748  0.00  0.00    +0.000 C 
ATOM      4  C   UNL     1       1.782   4.027  18.396  0.00  0.00    +0.000 C 
ATOM      5  N   UNL     1       3.050   4.770  18.678  0.00  0.00    +0.000 NA
ENDROOT
BRANCH   1   9
ATOM      6  C   UNL     1       1.420   8.503  19.816  0.00  0.00    +0.000 A 
ATOM      7  N   UNL     1       0.898   8.121  20.993  0.00  0.00    +0.000 NA
ATOM      8  O   UNL     1       1.447   6.852  21.195  0.00  0.00    +0.000 OA
ATOM      9  C   UNL     1       2.242   6.594  20.115  0.00  0.00    +0.000 A 
ATOM     10  N   UNL     1       2.256   7.575  19.237  0.00  0.00    +0.000 NA
BRANCH   6  14
ATOM     11  C   UNL     1      -0.719  12.900  18.454  0.00  0.00    +0.000 C 
ATOM     12  C   UNL     1       0.139  11.710  18.641  0.00  0.00    +0.000 A 
ATOM     13  C   UNL     1      -0.021  10.565  19.391  0.00  0.00    +0.000 A 
ATOM     14  C   UNL     1       1.156   9.806  19.177  0.00  0.00    +0.000 A 
ATOM     15  N   UNL     1       1.992  10.432  18.333  0.00  0.00    +0.000 NA
ATOM     16  N   UNL     1       1.353  11.573  18.023  0.00  0.00    +0.000 N 
ATOM     17  H   UNL     1       1.809  12.219  17.387  0.00  0.00    +0.000 HD
ENDBRANCH   6  14
ENDBRANCH   1   9
BRANCH   5  18
ATOM     18  S   UNL     1       4.490   3.900  18.395  0.00  0.00    +0.000 S 
ATOM     19  O   UNL     1       4.824   3.194  19.616  0.00  0.00    +0.000 OA
ATOM     20  O   UNL     1       4.322   3.184  17.147  0.00  0.00    +0.000 OA
BRANCH  18  21
ATOM     21  C   UNL     1       5.725   5.153  18.164  0.00  0.00    +0.000 A 
ATOM     22  C   UNL     1       5.479   6.192  17.262  0.00  0.00    +0.000 A 
ATOM     23  C   UNL     1       6.413   7.220  17.126  0.00  0.00    +0.000 A 
ATOM     24  C   UNL     1       7.581   7.211  17.894  0.00  0.00    +0.000 A 
ATOM     25  C   UNL     1       7.819   6.175  18.798  0.00  0.00    +0.000 A 
ATOM     26  C   UNL     1       6.891   5.141  18.937  0.00  0.00    +0.000 A 
ENDBRANCH  18  21
ENDBRANCH   5  18
TORSDOF 4
ENDMDL
MODEL 9
REMARK VINA RESULT:      -8.2      1.527      1.848
REMARK  Name = 
REMARK  5 active torsions:
REMARK  status: ('A' for Active; 'I' for Inactive)
REMARK    1  A    between atoms: C_1  and  C_2
REMARK    2  A    between atoms: C_4  and  C_5
REMARK    3  A    between atoms: C_8  and  C_9
REMARK    4  A    between atoms: N_13  and  S_14
REMARK    5  A    between atoms: S_14  and  C_17
REMARK                            x       y       z     vdW  Elec       q    Type
REMARK                         _______ _______ _______ _____ _____    ______ ____
ROOT
ATOM      1  C   UNL     1       3.167   5.924  19.536  0.00  0.00    +0.000 C 
ATOM      2  C   UNL     1       2.255   5.192  20.515  0.00  0.00    +0.000 C 
ATOM      3  C   UNL     1       1.259   4.470  19.622  0.00  0.00    +0.000 C 
ATOM      4  C   UNL     1       1.983   4.244  18.294  0.00  0.00    +0.000 C 
ATOM      5  N   UNL     1       3.292   4.964  18.386  0.00  0.00    +0.000 NA
ENDROOT
BRANCH   1   9
ATOM      6  C   UNL     1       1.596   9.048  18.739  0.00  0.00    +0.000 A 
ATOM      7  N   UNL     1       2.200   8.805  17.564  0.00  0.00    +0.000 NA
ATOM      8  O   UNL     1       2.844   7.584  17.775  0.00  0.00    +0.000 OA
ATOM      9  C   UNL     1       2.569   7.214  19.061  0.00  0.00    +0.000 A 
ATOM     10  N   UNL     1       1.810   8.082  19.696  0.00  0.00    +0.000 NA
BRANCH   6  14
ATOM     11  C   UNL     1      -2.384  12.097  19.532  0.00  0.00    +0.000 C 
ATOM     12  C   UNL     1      -1.051  11.483  19.342  0.00  0.00    +0.000 A 
ATOM     13  C   UNL     1      -0.662  10.200  19.027  0.00  0.00    +0.000 A 
ATOM     14  C   UNL     1       0.755  10.228  19.010  0.00  0.00    +0.000 A 
ATOM     15  N   UNL     1       1.220  11.459  19.284  0.00  0.00    +0.000 NA
ATOM     16  N   UNL     1       0.112  12.193  19.475  0.00  0.00    +0.000 N 
ATOM     17  H   UNL     1       0.223  13.177  19.701  0.00  0.00    +0.000 HD
ENDBRANCH   6  14
ENDBRANCH   1   9
BRANCH   5  18
ATOM     18  S   UNL     1       4.671   3.967  18.508  0.00  0.00    +0.000 S 
ATOM     19  O   UNL     1       5.509   4.504  19.562  0.00  0.00    +0.000 OA
ATOM     20  O   UNL     1       4.208   2.595  18.555  0.00  0.00    +0.000 OA
BRANCH  18  21
ATOM     21  C   UNL     1       5.534   4.218  16.978  0.00  0.00    +0.000 A 
ATOM     22  C   UNL     1       4.831   4.108  15.775  0.00  0.00    +0.000 A 
ATOM     23  C   UNL     1       5.484   4.373  14.570  0.00  0.00    +0.000 A 
ATOM     24  C   UNL     1       6.828   4.755  14.572  0.00  0.00    +0.000 A 
ATOM     25  C   UNL     1       7.524   4.871  15.776  0.00  0.00    +0.000 A 
ATOM     26  C   UNL     1       6.879   4.604  16.985  0.00  0.00    +0.000 A 
ENDBRANCH  18  21
ENDBRANCH   5  18
TORSDOF 4
ENDMDL
