MODEL 1
REMARK VINA RESULT:      -8.4      0.000      0.000
REMARK  Name = 
REMARK  9 active torsions:
REMARK  status: ('A' for Active; 'I' for Inactive)
REMARK    1  A    between atoms: C_1  and  N_2
REMARK    2  A    between atoms: C_6  and  C_7
REMARK    3  A    between atoms: C_7  and  N_8
REMARK    4  A    between atoms: C_7  and  C_9
REMARK    5  A    between atoms: C_9  and  C_10
REMARK    6  A    between atoms: C_10  and  C_11
REMARK    7  A    between atoms: C_11  and  C_12
REMARK    8  A    between atoms: C_16  and  N_17
REMARK    9  A    between atoms: C_24  and  C_25
REMARK                            x       y       z     vdW  Elec       q    Type
REMARK                         _______ _______ _______ _____ _____    ______ ____
ROOT
ATOM      1  C   UNL     1       1.180   8.953  19.728  0.00  0.00    +0.000 A 
ATOM      2  C   UNL     1       1.749   9.443  18.545  0.00  0.00    +0.000 A 
ATOM      3  C   UNL     1       2.415   8.584  17.680  0.00  0.00    +0.000 A 
ATOM      4  C   UNL     1       2.639   7.267  18.058  0.00  0.00    +0.000 A 
ATOM      5  C   UNL     1       2.319   6.859  19.363  0.00  0.00    +0.000 A 
ATOM      6  C   UNL     1       1.442   7.638  20.120  0.00  0.00    +0.000 A 
ENDROOT
BRANCH   5   7
ATOM      7  N   UNL     1       3.239   5.991  20.088  0.00  0.00    +0.000 N 
ATOM      8  C   UNL     1       4.412   5.666  19.237  0.00  0.00    +0.000 C 
ATOM      9  C   UNL     1       3.959   4.413  18.547  0.00  0.00    +0.000 A 
ATOM     10  C   UNL     1       3.035   3.789  19.391  0.00  0.00    +0.000 A 
ATOM     11  C   UNL     1       2.278   2.698  19.000  0.00  0.00    +0.000 A 
ATOM     12  C   UNL     1       2.460   2.228  17.703  0.00  0.00    +0.000 A 
ATOM     13  C   UNL     1       3.379   2.853  16.837  0.00  0.00    +0.000 A 
ATOM     14  C   UNL     1       4.148   3.963  17.245  0.00  0.00    +0.000 A 
ATOM     15  C   UNL     1       2.701   4.737  20.479  0.00  0.00    +0.000 C 
ATOM     16  O   UNL     1       1.928   4.494  21.386  0.00  0.00    +0.000 OA
BRANCH  14  17
ATOM     17  C   UNL     1       5.030   4.656  16.236  0.00  0.00    +0.000 C 
ATOM     18  F   UNL     1       5.033   4.079  15.005  0.00  0.00    +0.000 F 
ATOM     19  F   UNL     1       4.659   5.950  16.035  0.00  0.00    +0.000 F 
ATOM     20  F   UNL     1       6.334   4.698  16.631  0.00  0.00    +0.000 F 
ENDBRANCH  14  17
ENDBRANCH   5   7
BRANCH   1  21
ATOM     21  C   UNL     1       0.340   9.847  20.601  0.00  0.00    +0.000 C 
BRANCH  21  22
ATOM     22  C   UNL     1       0.335  11.293  20.103  0.00  0.00    +0.000 C 
BRANCH  22  23
ATOM     23  C   UNL     1      -1.080  11.797  19.773  0.00  0.00    +0.000 C 
BRANCH  23  24
ATOM     24  C   UNL     1      -1.389  11.756  18.270  0.00  0.00    +0.000 C 
BRANCH  24  30
ATOM     25  C   UNL     1      -2.810  10.805  15.625  0.00  0.00    +0.000 C 
ATOM     26  N   UNL     1      -3.451  11.223  16.845  0.00  0.00    +0.000 N 
ATOM     27  C   UNL     1      -4.794  11.306  17.045  0.00  0.00    +0.000 A 
ATOM     28  N   UNL     1      -5.030  11.696  18.275  0.00  0.00    +0.000 NA
ATOM     29  N   UNL     1      -3.820  11.891  18.891  0.00  0.00    +0.000 NA
ATOM     30  C   UNL     1      -2.862  11.623  18.022  0.00  0.00    +0.000 A 
ENDBRANCH  24  30
BRANCH  24  31
ATOM     31  N   UNL     1      -0.890  12.976  17.624  0.00  0.00    +0.000 NA
ATOM     32  H   UNL     1      -1.379  13.052  16.726  0.00  0.00    +0.000 HD
ATOM     33  H   UNL     1       0.077  12.814  17.349  0.00  0.00    +0.000 HD
ENDBRANCH  24  31
ENDBRANCH  23  24
ENDBRANCH  22  23
ENDBRANCH  21  22
ENDBRANCH   1  21
TORSDOF 8
ENDMDL
MODEL 2
REMARK VINA RESULT:      -8.3      2.950      4.597
REMARK  Name = 
REMARK  9 active torsions:
REMARK  status: ('A' for Active; 'I' for Inactive)
REMARK    1  A    between atoms: C_1  and  N_2
REMARK    2  A    between atoms: C_6  and  C_7
REMARK    3  A    between atoms: C_7  and  N_8
REMARK    4  A    between atoms: C_7  and  C_9
REMARK    5  A    between atoms: C_9  and  C_10
REMARK    6  A    between atoms: C_10  and  C_11
REMARK    7  A    between atoms: C_11  and  C_12
REMARK    8  A    between atoms: C_16  and  N_17
REMARK    9  A    between atoms: C_24  and  C_25
REMARK                            x       y       z     vdW  Elec       q    Type
REMARK                         _______ _______ _______ _____ _____    ______ ____
ROOT
ATOM      1  C   UNL     1       2.235   6.087  20.005  0.00  0.00    +0.000 A 
ATOM      2  C   UNL     1       1.189   5.380  20.611  0.00  0.00    +0.000 A 
ATOM      3  C   UNL     1       1.356   4.047  20.964  0.00  0.00    +0.000 A 
ATOM      4  C   UNL     1       2.512   3.376  20.585  0.00  0.00    +0.000 A 
ATOM      5  C   UNL     1       3.429   4.010  19.730  0.00  0.00    +0.000 A 
ATOM      6  C   UNL     1       3.379   5.398  19.592  0.00  0.00    +0.000 A 
ENDROOT
BRANCH   5   7
ATOM      7  N   UNL     1       4.038   3.251  18.644  0.00  0.00    +0.000 N 
ATOM      8  C   UNL     1       5.515   3.410  18.677  0.00  0.00    +0.000 C 
ATOM      9  C   UNL     1       5.720   4.608  17.798  0.00  0.00    +0.000 A 
ATOM     10  C   UNL     1       4.653   4.643  16.895  0.00  0.00    +0.000 A 
ATOM     11  C   UNL     1       4.423   5.713  16.048  0.00  0.00    +0.000 A 
ATOM     12  C   UNL     1       5.302   6.790  16.125  0.00  0.00    +0.000 A 
ATOM     13  C   UNL     1       6.374   6.774  17.038  0.00  0.00    +0.000 A 
ATOM     14  C   UNL     1       6.604   5.678  17.896  0.00  0.00    +0.000 A 
ATOM     15  C   UNL     1       3.648   3.650  17.339  0.00  0.00    +0.000 C 
ATOM     16  O   UNL     1       2.603   3.429  16.760  0.00  0.00    +0.000 OA
BRANCH  14  17
ATOM     17  C   UNL     1       7.700   5.769  18.929  0.00  0.00    +0.000 C 
ATOM     18  F   UNL     1       8.640   4.791  18.833  0.00  0.00    +0.000 F 
ATOM     19  F   UNL     1       8.382   6.943  18.850  0.00  0.00    +0.000 F 
ATOM     20  F   UNL     1       7.219   5.701  20.202  0.00  0.00    +0.000 F 
ENDBRANCH  14  17
ENDBRANCH   5   7
BRANCH   1  21
ATOM     21  C   UNL     1       2.112   7.565  19.745  0.00  0.00    +0.000 C 
BRANCH  21  22
ATOM     22  C   UNL     1       2.713   7.961  18.395  0.00  0.00    +0.000 C 
BRANCH  22  23
ATOM     23  C   UNL     1       1.768   8.849  17.569  0.00  0.00    +0.000 C 
BRANCH  23  24
ATOM     24  C   UNL     1       0.881   9.746  18.443  0.00  0.00    +0.000 C 
BRANCH  24  30
ATOM     25  C   UNL     1       0.457  11.640  20.923  0.00  0.00    +0.000 C 
ATOM     26  N   UNL     1       1.312  11.883  19.790  0.00  0.00    +0.000 N 
ATOM     27  C   UNL     1       2.062  12.999  19.590  0.00  0.00    +0.000 A 
ATOM     28  N   UNL     1       2.738  12.878  18.472  0.00  0.00    +0.000 NA
ATOM     29  N   UNL     1       2.413  11.667  17.917  0.00  0.00    +0.000 NA
ATOM     30  C   UNL     1       1.536  11.070  18.703  0.00  0.00    +0.000 A 
ENDBRANCH  24  30
BRANCH  24  31
ATOM     31  N   UNL     1      -0.414   9.959  17.784  0.00  0.00    +0.000 NA
ATOM     32  H   UNL     1      -1.025   9.194  18.088  0.00  0.00    +0.000 HD
ATOM     33  H   UNL     1      -0.295   9.781  16.789  0.00  0.00    +0.000 HD
ENDBRANCH  24  31
ENDBRANCH  23  24
ENDBRANCH  22  23
ENDBRANCH  21  22
ENDBRANCH   1  21
TORSDOF 8
ENDMDL
MODEL 3
REMARK VINA RESULT:      -8.3      2.581      3.229
REMARK  Name = 
REMARK  9 active torsions:
REMARK  status: ('A' for Active; 'I' for Inactive)
REMARK    1  A    between atoms: C_1  and  N_2
REMARK    2  A    between atoms: C_6  and  C_7
REMARK    3  A    between atoms: C_7  and  N_8
REMARK    4  A    between atoms: C_7  and  C_9
REMARK    5  A    between atoms: C_9  and  C_10
REMARK    6  A    between atoms: C_10  and  C_11
REMARK    7  A    between atoms: C_11  and  C_12
REMARK    8  A    between atoms: C_16  and  N_17
REMARK    9  A    between atoms: C_24  and  C_25
REMARK                            x       y       z     vdW  Elec       q    Type
REMARK                         _______ _______ _______ _____ _____    ______ ____
ROOT
ATOM      1  C   UNL     1       1.367   9.103  19.261  0.00  0.00    +0.000 A 
ATOM      2  C   UNL     1       1.056   8.484  20.479  0.00  0.00    +0.000 A 
ATOM      3  C   UNL     1       1.708   7.318  20.858  0.00  0.00    +0.000 A 
ATOM      4  C   UNL     1       2.565   6.688  19.965  0.00  0.00    +0.000 A 
ATOM      5  C   UNL     1       2.650   7.157  18.643  0.00  0.00    +0.000 A 
ATOM      6  C   UNL     1       2.199   8.445  18.351  0.00  0.00    +0.000 A 
ENDROOT
BRANCH   5   7
ATOM      7  N   UNL     1       2.696   6.199  17.545  0.00  0.00    +0.000 N 
ATOM      8  C   UNL     1       1.746   5.085  17.799  0.00  0.00    +0.000 C 
ATOM      9  C   UNL     1       2.608   4.103  18.537  0.00  0.00    +0.000 A 
ATOM     10  C   UNL     1       3.926   4.321  18.124  0.00  0.00    +0.000 A 
ATOM     11  C   UNL     1       5.012   3.713  18.729  0.00  0.00    +0.000 A 
ATOM     12  C   UNL     1       4.751   2.858  19.797  0.00  0.00    +0.000 A 
ATOM     13  C   UNL     1       3.430   2.637  20.231  0.00  0.00    +0.000 A 
ATOM     14  C   UNL     1       2.328   3.259  19.606  0.00  0.00    +0.000 A 
ATOM     15  C   UNL     1       3.955   5.578  17.341  0.00  0.00    +0.000 C 
ATOM     16  O   UNL     1       4.956   6.044  16.832  0.00  0.00    +0.000 OA
BRANCH  14  17
ATOM     17  C   UNL     1       0.950   3.070  20.189  0.00  0.00    +0.000 C 
ATOM     18  F   UNL     1       0.290   4.230  20.451  0.00  0.00    +0.000 F 
ATOM     19  F   UNL     1       0.135   2.365  19.358  0.00  0.00    +0.000 F 
ATOM     20  F   UNL     1       0.973   2.381  21.364  0.00  0.00    +0.000 F 
ENDBRANCH  14  17
ENDBRANCH   5   7
BRANCH   1  21
ATOM     21  C   UNL     1       0.768  10.438  18.905  0.00  0.00    +0.000 C 
BRANCH  21  22
ATOM     22  C   UNL     1       0.044  11.074  20.093  0.00  0.00    +0.000 C 
BRANCH  22  23
ATOM     23  C   UNL     1      -1.150  11.941  19.658  0.00  0.00    +0.000 C 
BRANCH  23  24
ATOM     24  C   UNL     1      -1.462  11.814  18.160  0.00  0.00    +0.000 C 
BRANCH  24  30
ATOM     25  C   UNL     1      -2.873  10.793  15.537  0.00  0.00    +0.000 C 
ATOM     26  N   UNL     1      -3.517  11.209  16.757  0.00  0.00    +0.000 N 
ATOM     27  C   UNL     1      -4.861  11.257  16.965  0.00  0.00    +0.000 A 
ATOM     28  N   UNL     1      -5.099  11.656  18.191  0.00  0.00    +0.000 NA
ATOM     29  N   UNL     1      -3.891  11.891  18.796  0.00  0.00    +0.000 NA
ATOM     30  C   UNL     1      -2.932  11.639  17.924  0.00  0.00    +0.000 A 
ENDBRANCH  24  30
BRANCH  24  31
ATOM     31  N   UNL     1      -0.988  13.008  17.450  0.00  0.00    +0.000 NA
ATOM     32  H   UNL     1      -0.470  12.674  16.630  0.00  0.00    +0.000 HD
ATOM     33  H   UNL     1      -0.266  13.448  18.017  0.00  0.00    +0.000 HD
ENDBRANCH  24  31
ENDBRANCH  23  24
ENDBRANCH  22  23
ENDBRANCH  21  22
ENDBRANCH   1  21
TORSDOF 8
ENDMDL
MODEL 4
REMARK VINA RESULT:      -8.3      5.797      8.272
REMARK  Name = 
REMARK  9 active torsions:
REMARK  status: ('A' for Active; 'I' for Inactive)
REMARK    1  A    between atoms: C_1  and  N_2
REMARK    2  A    between atoms: C_6  and  C_7
REMARK    3  A    between atoms: C_7  and  N_8
REMARK    4  A    between atoms: C_7  and  C_9
REMARK    5  A    between atoms: C_9  and  C_10
REMARK    6  A    between atoms: C_10  and  C_11
REMARK    7  A    between atoms: C_11  and  C_12
REMARK    8  A    between atoms: C_16  and  N_17
REMARK    9  A    between atoms: C_24  and  C_25
REMARK                            x       y       z     vdW  Elec       q    Type
REMARK                         _______ _______ _______ _____ _____    ______ ____
ROOT
ATOM      1  C   UNL     1       7.768   7.718  17.839  0.00  0.00    +0.000 A 
ATOM      2  C   UNL     1       7.817   6.871  18.954  0.00  0.00    +0.000 A 
ATOM      3  C   UNL     1       7.747   5.493  18.791  0.00  0.00    +0.000 A 
ATOM      4  C   UNL     1       7.484   4.963  17.534  0.00  0.00    +0.000 A 
ATOM      5  C   UNL     1       7.151   5.826  16.477  0.00  0.00    +0.000 A 
ATOM      6  C   UNL     1       7.465   7.182  16.585  0.00  0.00    +0.000 A 
ENDROOT
BRANCH   5   7
ATOM      7  N   UNL     1       6.075   5.459  15.564  0.00  0.00    +0.000 N 
ATOM      8  C   UNL     1       4.868   6.279  15.843  0.00  0.00    +0.000 C 
ATOM      9  C   UNL     1       4.143   5.436  16.850  0.00  0.00    +0.000 A 
ATOM     10  C   UNL     1       4.512   4.107  16.616  0.00  0.00    +0.000 A 
ATOM     11  C   UNL     1       4.171   3.073  17.470  0.00  0.00    +0.000 A 
ATOM     12  C   UNL     1       3.436   3.399  18.606  0.00  0.00    +0.000 A 
ATOM     13  C   UNL     1       3.067   4.734  18.861  0.00  0.00    +0.000 A 
ATOM     14  C   UNL     1       3.416   5.782  17.984  0.00  0.00    +0.000 A 
ATOM     15  C   UNL     1       5.641   4.111  15.657  0.00  0.00    +0.000 C 
ATOM     16  O   UNL     1       6.188   3.108  15.241  0.00  0.00    +0.000 OA
BRANCH  14  17
ATOM     17  C   UNL     1       3.089   7.203  18.370  0.00  0.00    +0.000 C 
ATOM     18  F   UNL     1       2.827   7.377  19.693  0.00  0.00    +0.000 F 
ATOM     19  F   UNL     1       4.107   8.059  18.083  0.00  0.00    +0.000 F 
ATOM     20  F   UNL     1       1.999   7.683  17.708  0.00  0.00    +0.000 F 
ENDBRANCH  14  17
ENDBRANCH   5   7
BRANCH   1  21
ATOM     21  C   UNL     1       7.982   9.201  17.993  0.00  0.00    +0.000 C 
BRANCH  21  22
ATOM     22  C   UNL     1       9.231   9.515  18.818  0.00  0.00    +0.000 C 
BRANCH  22  23
ATOM     23  C   UNL     1       9.383  11.019  19.104  0.00  0.00    +0.000 C 
BRANCH  23  24
ATOM     24  C   UNL     1       9.794  11.821  17.862  0.00  0.00    +0.000 C 
BRANCH  24  30
ATOM     25  C   UNL     1       7.218  13.609  17.575  0.00  0.00    +0.000 C 
ATOM     26  N   UNL     1       8.537  14.051  17.949  0.00  0.00    +0.000 N 
ATOM     27  C   UNL     1       8.894  15.337  18.213  0.00  0.00    +0.000 A 
ATOM     28  N   UNL     1      10.163  15.378  18.545  0.00  0.00    +0.000 NA
ATOM     29  N   UNL     1      10.653  14.099  18.482  0.00  0.00    +0.000 NA
ATOM     30  C   UNL     1       9.675  13.296  18.103  0.00  0.00    +0.000 A 
ENDBRANCH  24  30
BRANCH  24  31
ATOM     31  N   UNL     1      11.177  11.493  17.492  0.00  0.00    +0.000 NA
ATOM     32  H   UNL     1      11.132  10.641  16.923  0.00  0.00    +0.000 HD
ATOM     33  H   UNL     1      11.664  11.187  18.332  0.00  0.00    +0.000 HD
ENDBRANCH  24  31
ENDBRANCH  23  24
ENDBRANCH  22  23
ENDBRANCH  21  22
ENDBRANCH   1  21
TORSDOF 8
ENDMDL
MODEL 5
REMARK VINA RESULT:      -8.2      0.930      1.208
REMARK  Name = 
REMARK  9 active torsions:
REMARK  status: ('A' for Active; 'I' for Inactive)
REMARK    1  A    between atoms: C_1  and  N_2
REMARK    2  A    between atoms: C_6  and  C_7
REMARK    3  A    between atoms: C_7  and  N_8
REMARK    4  A    between atoms: C_7  and  C_9
REMARK    5  A    between atoms: C_9  and  C_10
REMARK    6  A    between atoms: C_10  and  C_11
REMARK    7  A    between atoms: C_11  and  C_12
REMARK    8  A    between atoms: C_16  and  N_17
REMARK    9  A    between atoms: C_24  and  C_25
REMARK                            x       y       z     vdW  Elec       q    Type
REMARK                         _______ _______ _______ _____ _____    ______ ____
ROOT
ATOM      1  C   UNL     1       1.515   8.798  19.353  0.00  0.00    +0.000 A 
ATOM      2  C   UNL     1       2.198   9.166  18.186  0.00  0.00    +0.000 A 
ATOM      3  C   UNL     1       2.887   8.213  17.447  0.00  0.00    +0.000 A 
ATOM      4  C   UNL     1       3.017   6.922  17.943  0.00  0.00    +0.000 A 
ATOM      5  C   UNL     1       2.577   6.636  19.246  0.00  0.00    +0.000 A 
ATOM      6  C   UNL     1       1.682   7.509  19.866  0.00  0.00    +0.000 A 
ENDROOT
BRANCH   5   7
ATOM      7  N   UNL     1       3.394   5.791  20.109  0.00  0.00    +0.000 N 
ATOM      8  C   UNL     1       4.618   5.357  19.387  0.00  0.00    +0.000 C 
ATOM      9  C   UNL     1       4.169   4.074  18.754  0.00  0.00    +0.000 A 
ATOM     10  C   UNL     1       3.151   3.552  19.559  0.00  0.00    +0.000 A 
ATOM     11  C   UNL     1       2.382   2.464  19.184  0.00  0.00    +0.000 A 
ATOM     12  C   UNL     1       2.651   1.889  17.945  0.00  0.00    +0.000 A 
ATOM     13  C   UNL     1       3.664   2.411  17.118  0.00  0.00    +0.000 A 
ATOM     14  C   UNL     1       4.446   3.519  17.509  0.00  0.00    +0.000 A 
ATOM     15  C   UNL     1       2.770   4.592  20.542  0.00  0.00    +0.000 C 
ATOM     16  O   UNL     1       1.915   4.447  21.394  0.00  0.00    +0.000 OA
BRANCH  14  17
ATOM     17  C   UNL     1       5.438   4.100  16.533  0.00  0.00    +0.000 C 
ATOM     18  F   UNL     1       5.795   3.255  15.529  0.00  0.00    +0.000 F 
ATOM     19  F   UNL     1       4.961   5.217  15.920  0.00  0.00    +0.000 F 
ATOM     20  F   UNL     1       6.601   4.472  17.137  0.00  0.00    +0.000 F 
ENDBRANCH  14  17
ENDBRANCH   5   7
BRANCH   1  21
ATOM     21  C   UNL     1       0.653   9.794  20.083  0.00  0.00    +0.000 C 
BRANCH  21  22
ATOM     22  C   UNL     1       0.038  10.823  19.132  0.00  0.00    +0.000 C 
BRANCH  22  23
ATOM     23  C   UNL     1      -1.283  10.334  18.513  0.00  0.00    +0.000 C 
BRANCH  23  24
ATOM     24  C   UNL     1      -2.102  11.471  17.888  0.00  0.00    +0.000 C 
BRANCH  24  30
ATOM     25  C   UNL     1      -5.217  11.250  17.483  0.00  0.00    +0.000 C 
ATOM     26  N   UNL     1      -4.533  11.847  18.602  0.00  0.00    +0.000 N 
ATOM     27  C   UNL     1      -5.132  12.447  19.665  0.00  0.00    +0.000 A 
ATOM     28  N   UNL     1      -4.215  12.857  20.509  0.00  0.00    +0.000 NA
ATOM     29  N   UNL     1      -2.990  12.537  19.983  0.00  0.00    +0.000 NA
ATOM     30  C   UNL     1      -3.179  11.941  18.819  0.00  0.00    +0.000 A 
ENDBRANCH  24  30
BRANCH  24  31
ATOM     31  N   UNL     1      -1.218  12.595  17.552  0.00  0.00    +0.000 NA
ATOM     32  H   UNL     1      -1.827  13.401  17.374  0.00  0.00    +0.000 HD
ATOM     33  H   UNL     1      -0.806  12.410  16.639  0.00  0.00    +0.000 HD
ENDBRANCH  24  31
ENDBRANCH  23  24
ENDBRANCH  22  23
ENDBRANCH  21  22
ENDBRANCH   1  21
TORSDOF 8
ENDMDL
MODEL 6
REMARK VINA RESULT:      -8.2      2.951      4.483
REMARK  Name = 
REMARK  9 active torsions:
REMARK  status: ('A' for Active; 'I' for Inactive)
REMARK    1  A    between atoms: C_1  and  N_2
REMARK    2  A    between atoms: C_6  and  C_7
REMARK    3  A    between atoms: C_7  and  N_8
REMARK    4  A    between atoms: C_7  and  C_9
REMARK    5  A    between atoms: C_9  and  C_10
REMARK    6  A    between atoms: C_10  and  C_11
REMARK    7  A    between atoms: C_11  and  C_12
REMARK    8  A    between atoms: C_16  and  N_17
REMARK    9  A    between atoms: C_24  and  C_25
REMARK                            x       y       z     vdW  Elec       q    Type
REMARK                         _______ _______ _______ _____ _____    ______ ____
ROOT
ATOM      1  C   UNL     1       2.236   6.040  20.018  0.00  0.00    +0.000 A 
ATOM      2  C   UNL     1       1.193   5.316  20.611  0.00  0.00    +0.000 A 
ATOM      3  C   UNL     1       1.373   3.983  20.956  0.00  0.00    +0.000 A 
ATOM      4  C   UNL     1       2.539   3.328  20.582  0.00  0.00    +0.000 A 
ATOM      5  C   UNL     1       3.455   3.978  19.739  0.00  0.00    +0.000 A 
ATOM      6  C   UNL     1       3.391   5.366  19.610  0.00  0.00    +0.000 A 
ENDROOT
BRANCH   5   7
ATOM      7  N   UNL     1       4.082   3.234  18.653  0.00  0.00    +0.000 N 
ATOM      8  C   UNL     1       5.555   3.418  18.692  0.00  0.00    +0.000 C 
ATOM      9  C   UNL     1       5.743   4.623  17.818  0.00  0.00    +0.000 A 
ATOM     10  C   UNL     1       4.680   4.643  16.911  0.00  0.00    +0.000 A 
ATOM     11  C   UNL     1       4.433   5.711  16.066  0.00  0.00    +0.000 A 
ATOM     12  C   UNL     1       5.293   6.803  16.151  0.00  0.00    +0.000 A 
ATOM     13  C   UNL     1       6.362   6.802  17.068  0.00  0.00    +0.000 A 
ATOM     14  C   UNL     1       6.608   5.707  17.923  0.00  0.00    +0.000 A 
ATOM     15  C   UNL     1       3.690   3.630  17.347  0.00  0.00    +0.000 C 
ATOM     16  O   UNL     1       2.651   3.393  16.764  0.00  0.00    +0.000 OA
BRANCH  14  17
ATOM     17  C   UNL     1       7.698   5.814  18.960  0.00  0.00    +0.000 C 
ATOM     18  F   UNL     1       8.410   6.971  18.906  0.00  0.00    +0.000 F 
ATOM     19  F   UNL     1       7.209   5.743  20.228  0.00  0.00    +0.000 F 
ATOM     20  F   UNL     1       8.612   4.809  18.856  0.00  0.00    +0.000 F 
ENDBRANCH  14  17
ENDBRANCH   5   7
BRANCH   1  21
ATOM     21  C   UNL     1       2.098   7.518  19.768  0.00  0.00    +0.000 C 
BRANCH  21  22
ATOM     22  C   UNL     1       2.503   7.897  18.342  0.00  0.00    +0.000 C 
BRANCH  22  23
ATOM     23  C   UNL     1       2.045   9.314  17.958  0.00  0.00    +0.000 C 
BRANCH  23  24
ATOM     24  C   UNL     1       0.755   9.736  18.675  0.00  0.00    +0.000 C 
BRANCH  24  30
ATOM     25  C   UNL     1       2.200  12.468  18.071  0.00  0.00    +0.000 C 
ATOM     26  N   UNL     1       1.661  12.039  19.336  0.00  0.00    +0.000 N 
ATOM     27  C   UNL     1       1.717  12.743  20.499  0.00  0.00    +0.000 A 
ATOM     28  N   UNL     1       1.108  12.071  21.447  0.00  0.00    +0.000 NA
ATOM     29  N   UNL     1       0.658  10.895  20.902  0.00  0.00    +0.000 NA
ATOM     30  C   UNL     1       1.008  10.865  19.629  0.00  0.00    +0.000 A 
ENDBRANCH  24  30
BRANCH  24  31
ATOM     31  N   UNL     1      -0.253  10.142  17.688  0.00  0.00    +0.000 NA
ATOM     32  H   UNL     1      -0.641  11.033  18.017  0.00  0.00    +0.000 HD
ATOM     33  H   UNL     1      -1.043   9.503  17.763  0.00  0.00    +0.000 HD
ENDBRANCH  24  31
ENDBRANCH  23  24
ENDBRANCH  22  23
ENDBRANCH  21  22
ENDBRANCH   1  21
TORSDOF 8
ENDMDL
MODEL 7
REMARK VINA RESULT:      -8.2      1.874      2.619
REMARK  Name = 
REMARK  9 active torsions:
REMARK  status: ('A' for Active; 'I' for Inactive)
REMARK    1  A    between atoms: C_1  and  N_2
REMARK    2  A    between atoms: C_6  and  C_7
REMARK    3  A    between atoms: C_7  and  N_8
REMARK    4  A    between atoms: C_7  and  C_9
REMARK    5  A    between atoms: C_9  and  C_10
REMARK    6  A    between atoms: C_10  and  C_11
REMARK    7  A    between atoms: C_11  and  C_12
REMARK    8  A    between atoms: C_16  and  N_17
REMARK    9  A    between atoms: C_24  and  C_25
REMARK                            x       y       z     vdW  Elec       q    Type
REMARK                         _______ _______ _______ _____ _____    ______ ____
ROOT
ATOM      1  C   UNL     1       1.996   7.807  19.663  0.00  0.00    +0.000 A 
ATOM      2  C   UNL     1       2.481   8.503  18.548  0.00  0.00    +0.000 A 
ATOM      3  C   UNL     1       3.032   7.811  17.476  0.00  0.00    +0.000 A 
ATOM      4  C   UNL     1       3.233   6.441  17.574  0.00  0.00    +0.000 A 
ATOM      5  C   UNL     1       3.011   5.796  18.802  0.00  0.00    +0.000 A 
ATOM      6  C   UNL     1       2.237   6.435  19.772  0.00  0.00    +0.000 A 
ENDROOT
BRANCH   5   7
ATOM      7  N   UNL     1       3.953   4.782  19.259  0.00  0.00    +0.000 N 
ATOM      8  C   UNL     1       5.317   5.363  19.364  0.00  0.00    +0.000 C 
ATOM      9  C   UNL     1       5.875   5.098  17.998  0.00  0.00    +0.000 A 
ATOM     10  C   UNL     1       5.223   3.967  17.499  0.00  0.00    +0.000 A 
ATOM     11  C   UNL     1       5.361   3.537  16.191  0.00  0.00    +0.000 A 
ATOM     12  C   UNL     1       6.186   4.287  15.356  0.00  0.00    +0.000 A 
ATOM     13  C   UNL     1       6.841   5.436  15.841  0.00  0.00    +0.000 A 
ATOM     14  C   UNL     1       6.696   5.865  17.177  0.00  0.00    +0.000 A 
ATOM     15  C   UNL     1       4.091   3.659  18.403  0.00  0.00    +0.000 C 
ATOM     16  O   UNL     1       3.328   2.724  18.250  0.00  0.00    +0.000 OA
BRANCH  14  17
ATOM     17  C   UNL     1       7.333   7.164  17.605  0.00  0.00    +0.000 C 
ATOM     18  F   UNL     1       8.066   7.078  18.747  0.00  0.00    +0.000 F 
ATOM     19  F   UNL     1       8.180   7.656  16.661  0.00  0.00    +0.000 F 
ATOM     20  F   UNL     1       6.412   8.144  17.827  0.00  0.00    +0.000 F 
ENDBRANCH  14  17
ENDBRANCH   5   7
BRANCH   1  21
ATOM     21  C   UNL     1       1.274   8.535  20.766  0.00  0.00    +0.000 C 
BRANCH  21  22
ATOM     22  C   UNL     1       0.828   9.932  20.331  0.00  0.00    +0.000 C 
BRANCH  22  23
ATOM     23  C   UNL     1      -0.645   9.968  19.889  0.00  0.00    +0.000 C 
BRANCH  23  24
ATOM     24  C   UNL     1      -0.823  10.496  18.459  0.00  0.00    +0.000 C 
BRANCH  24  30
ATOM     25  C   UNL     1      -2.618  10.023  15.915  0.00  0.00    +0.000 C 
ATOM     26  N   UNL     1      -2.974  10.770  17.095  0.00  0.00    +0.000 N 
ATOM     27  C   UNL     1      -4.148  11.428  17.290  0.00  0.00    +0.000 A 
ATOM     28  N   UNL     1      -4.148  11.980  18.479  0.00  0.00    +0.000 NA
ATOM     29  N   UNL     1      -2.944  11.695  19.072  0.00  0.00    +0.000 NA
ATOM     30  C   UNL     1      -2.224  10.978  18.228  0.00  0.00    +0.000 A 
ENDBRANCH  24  30
BRANCH  24  31
ATOM     31  N   UNL     1       0.121  11.592  18.212  0.00  0.00    +0.000 NA
ATOM     32  H   UNL     1       0.526  11.425  17.284  0.00  0.00    +0.000 HD
ATOM     33  H   UNL     1       0.916  11.471  18.837  0.00  0.00    +0.000 HD
ENDBRANCH  24  31
ENDBRANCH  23  24
ENDBRANCH  22  23
ENDBRANCH  21  22
ENDBRANCH   1  21
TORSDOF 8
ENDMDL
MODEL 8
REMARK VINA RESULT:      -8.1      6.037      8.617
REMARK  Name = 
REMARK  9 active torsions:
REMARK  status: ('A' for Active; 'I' for Inactive)
REMARK    1  A    between atoms: C_1  and  N_2
REMARK    2  A    between atoms: C_6  and  C_7
REMARK    3  A    between atoms: C_7  and  N_8
REMARK    4  A    between atoms: C_7  and  C_9
REMARK    5  A    between atoms: C_9  and  C_10
REMARK    6  A    between atoms: C_10  and  C_11
REMARK    7  A    between atoms: C_11  and  C_12
REMARK    8  A    between atoms: C_16  and  N_17
REMARK    9  A    between atoms: C_24  and  C_25
REMARK                            x       y       z     vdW  Elec       q    Type
REMARK                         _______ _______ _______ _____ _____    ______ ____
ROOT
ATOM      1  C   UNL     1       7.755   7.716  17.822  0.00  0.00    +0.000 A 
ATOM      2  C   UNL     1       7.775   6.902  18.963  0.00  0.00    +0.000 A 
ATOM      3  C   UNL     1       7.689   5.521  18.839  0.00  0.00    +0.000 A 
ATOM      4  C   UNL     1       7.439   4.957  17.595  0.00  0.00    +0.000 A 
ATOM      5  C   UNL     1       7.134   5.792  16.508  0.00  0.00    +0.000 A 
ATOM      6  C   UNL     1       7.465   7.146  16.580  0.00  0.00    +0.000 A 
ENDROOT
BRANCH   5   7
ATOM      7  N   UNL     1       6.068   5.412  15.589  0.00  0.00    +0.000 N 
ATOM      8  C   UNL     1       4.869   6.258  15.821  0.00  0.00    +0.000 C 
ATOM      9  C   UNL     1       4.115   5.459  16.842  0.00  0.00    +0.000 A 
ATOM     10  C   UNL     1       4.467   4.118  16.657  0.00  0.00    +0.000 A 
ATOM     11  C   UNL     1       4.096   3.117  17.538  0.00  0.00    +0.000 A 
ATOM     12  C   UNL     1       3.347   3.491  18.650  0.00  0.00    +0.000 A 
ATOM     13  C   UNL     1       2.995   4.839  18.856  0.00  0.00    +0.000 A 
ATOM     14  C   UNL     1       3.375   5.853  17.952  0.00  0.00    +0.000 A 
ATOM     15  C   UNL     1       5.611   4.074  15.718  0.00  0.00    +0.000 C 
ATOM     16  O   UNL     1       6.150   3.050  15.344  0.00  0.00    +0.000 OA
BRANCH  14  17
ATOM     17  C   UNL     1       3.064   7.291  18.286  0.00  0.00    +0.000 C 
ATOM     18  F   UNL     1       4.079   8.157  18.025  0.00  0.00    +0.000 F 
ATOM     19  F   UNL     1       1.993   7.759  17.590  0.00  0.00    +0.000 F 
ATOM     20  F   UNL     1       2.758   7.462  19.603  0.00  0.00    +0.000 F 
ENDBRANCH  14  17
ENDBRANCH   5   7
BRANCH   1  21
ATOM     21  C   UNL     1       7.986   9.200  17.936  0.00  0.00    +0.000 C 
BRANCH  21  22
ATOM     22  C   UNL     1       9.120   9.529  18.908  0.00  0.00    +0.000 C 
BRANCH  22  23
ATOM     23  C   UNL     1       9.071  10.986  19.397  0.00  0.00    +0.000 C 
BRANCH  23  24
ATOM     24  C   UNL     1      10.440  11.678  19.338  0.00  0.00    +0.000 C 
BRANCH  24  30
ATOM     25  C   UNL     1      11.362  13.170  16.723  0.00  0.00    +0.000 C 
ATOM     26  N   UNL     1      10.731  13.761  17.875  0.00  0.00    +0.000 N 
ATOM     27  C   UNL     1      10.455  15.084  18.034  0.00  0.00    +0.000 A 
ATOM     28  N   UNL     1       9.857  15.270  19.187  0.00  0.00    +0.000 NA
ATOM     29  N   UNL     1       9.753  14.050  19.805  0.00  0.00    +0.000 NA
ATOM     30  C   UNL     1      10.298  13.137  19.021  0.00  0.00    +0.000 A 
ENDBRANCH  24  30
BRANCH  24  31
ATOM     31  N   UNL     1      11.134  11.520  20.622  0.00  0.00    +0.000 NA
ATOM     32  H   UNL     1      10.943  10.563  20.940  0.00  0.00    +0.000 HD
ATOM     33  H   UNL     1      10.655  12.094  21.313  0.00  0.00    +0.000 HD
ENDBRANCH  24  31
ENDBRANCH  23  24
ENDBRANCH  22  23
ENDBRANCH  21  22
ENDBRANCH   1  21
TORSDOF 8
ENDMDL
MODEL 9
REMARK VINA RESULT:      -8.1      0.822      1.405
REMARK  Name = 
REMARK  9 active torsions:
REMARK  status: ('A' for Active; 'I' for Inactive)
REMARK    1  A    between atoms: C_1  and  N_2
REMARK    2  A    between atoms: C_6  and  C_7
REMARK    3  A    between atoms: C_7  and  N_8
REMARK    4  A    between atoms: C_7  and  C_9
REMARK    5  A    between atoms: C_9  and  C_10
REMARK    6  A    between atoms: C_10  and  C_11
REMARK    7  A    between atoms: C_11  and  C_12
REMARK    8  A    between atoms: C_16  and  N_17
REMARK    9  A    between atoms: C_24  and  C_25
REMARK                            x       y       z     vdW  Elec       q    Type
REMARK                         _______ _______ _______ _____ _____    ______ ____
ROOT
ATOM      1  C   UNL     1       1.447   8.862  19.390  0.00  0.00    +0.000 A 
ATOM      2  C   UNL     1       2.104   9.217  18.204  0.00  0.00    +0.000 A 
ATOM      3  C   UNL     1       2.771   8.255  17.457  0.00  0.00    +0.000 A 
ATOM      4  C   UNL     1       2.906   6.967  17.959  0.00  0.00    +0.000 A 
ATOM      5  C   UNL     1       2.495   6.692  19.274  0.00  0.00    +0.000 A 
ATOM      6  C   UNL     1       1.619   7.575  19.908  0.00  0.00    +0.000 A 
ENDROOT
BRANCH   5   7
ATOM      7  N   UNL     1       3.328   5.850  20.123  0.00  0.00    +0.000 N 
ATOM      8  C   UNL     1       4.561   5.454  19.397  0.00  0.00    +0.000 C 
ATOM      9  C   UNL     1       4.140   4.173  18.740  0.00  0.00    +0.000 A 
ATOM     10  C   UNL     1       3.132   3.616  19.534  0.00  0.00    +0.000 A 
ATOM     11  C   UNL     1       2.386   2.519  19.139  0.00  0.00    +0.000 A 
ATOM     12  C   UNL     1       2.668   1.972  17.890  0.00  0.00    +0.000 A 
ATOM     13  C   UNL     1       3.672   2.528  17.075  0.00  0.00    +0.000 A 
ATOM     14  C   UNL     1       4.430   3.645  17.486  0.00  0.00    +0.000 A 
ATOM     15  C   UNL     1       2.728   4.631  20.534  0.00  0.00    +0.000 C 
ATOM     16  O   UNL     1       1.875   4.454  21.382  0.00  0.00    +0.000 OA
BRANCH  14  17
ATOM     17  C   UNL     1       5.412   4.264  16.522  0.00  0.00    +0.000 C 
ATOM     18  F   UNL     1       5.028   5.474  16.033  0.00  0.00    +0.000 F 
ATOM     19  F   UNL     1       6.630   4.467  17.091  0.00  0.00    +0.000 F 
ATOM     20  F   UNL     1       5.635   3.476  15.433  0.00  0.00    +0.000 F 
ENDBRANCH  14  17
ENDBRANCH   5   7
BRANCH   1  21
ATOM     21  C   UNL     1       0.609   9.868  20.133  0.00  0.00    +0.000 C 
BRANCH  21  22
ATOM     22  C   UNL     1      -0.080  10.850  19.184  0.00  0.00    +0.000 C 
BRANCH  22  23
ATOM     23  C   UNL     1      -1.364  10.271  18.567  0.00  0.00    +0.000 C 
BRANCH  23  24
ATOM     24  C   UNL     1      -1.999  11.207  17.529  0.00  0.00    +0.000 C 
BRANCH  24  30
ATOM     25  C   UNL     1      -3.253  12.562  20.080  0.00  0.00    +0.000 C 
ATOM     26  N   UNL     1      -3.968  12.014  18.955  0.00  0.00    +0.000 N 
ATOM     27  C   UNL     1      -5.321  11.965  18.826  0.00  0.00    +0.000 A 
ATOM     28  N   UNL     1      -5.630  11.426  17.671  0.00  0.00    +0.000 NA
ATOM     29  N   UNL     1      -4.460  11.097  17.036  0.00  0.00    +0.000 NA
ATOM     30  C   UNL     1      -3.452  11.436  17.820  0.00  0.00    +0.000 A 
ENDBRANCH  24  30
BRANCH  24  31
ATOM     31  N   UNL     1      -1.291  12.493  17.519  0.00  0.00    +0.000 NA
ATOM     32  H   UNL     1      -0.290  12.274  17.474  0.00  0.00    +0.000 HD
ATOM     33  H   UNL     1      -1.394  12.917  18.439  0.00  0.00    +0.000 HD
ENDBRANCH  24  31
ENDBRANCH  23  24
ENDBRANCH  22  23
ENDBRANCH  21  22
ENDBRANCH   1  21
TORSDOF 8
ENDMDL
