MODEL 1
REMARK VINA RESULT:      -8.3      0.000      0.000
REMARK  Name = 
REMARK  5 active torsions:
REMARK  status: ('A' for Active; 'I' for Inactive)
REMARK    1  A    between atoms: C_2  and  C_3
REMARK    2  A    between atoms: C_3  and  N_4
REMARK    3  A    between atoms: N_7  and  C_8
REMARK    4  A    between atoms: C_13  and  N_14
REMARK    5  A    between atoms: N_20  and  C_21
REMARK                            x       y       z     vdW  Elec       q    Type
REMARK                         _______ _______ _______ _____ _____    ______ ____
ROOT
ATOM      1  N   UNL     1       1.959   8.060  21.312  0.00  0.00    +0.000 N 
ATOM      2  C   UNL     1       1.992   7.265  20.186  0.00  0.00    +0.000 C 
ATOM      3  O   UNL     1       1.593   7.662  19.099  0.00  0.00    +0.000 OA
ATOM      4  N   UNL     1       2.437   5.989  20.485  0.00  0.00    +0.000 N 
ATOM      5  H   UNL     1       2.574   7.830  22.084  0.00  0.00    +0.000 HD
ATOM      6  H   UNL     1       2.027   5.678  21.353  0.00  0.00    +0.000 HD
ENDROOT
BRANCH   4   7
ATOM      7  C   UNL     1       2.447   5.009  19.456  0.00  0.00    +0.000 A 
ATOM      8  C   UNL     1       1.409   4.066  19.451  0.00  0.00    +0.000 A 
ATOM      9  C   UNL     1       1.309   3.136  18.421  0.00  0.00    +0.000 A 
ATOM     10  C   UNL     1       2.256   3.134  17.401  0.00  0.00    +0.000 A 
ATOM     11  C   UNL     1       3.317   4.047  17.427  0.00  0.00    +0.000 A 
ATOM     12  C   UNL     1       3.464   4.988  18.462  0.00  0.00    +0.000 A 
BRANCH  12  13
ATOM     13  N   UNL     1       4.591   5.801  18.539  0.00  0.00    +0.000 N 
ATOM     14  C   UNL     1       4.820   6.913  17.616  0.00  0.00    +0.000 C 
ATOM     15  C   UNL     1       6.000   6.622  16.688  0.00  0.00    +0.000 C 
ATOM     16  C   UNL     1       7.238   6.201  17.478  0.00  0.00    +0.000 C 
ATOM     17  C   UNL     1       6.913   5.014  18.377  0.00  0.00    +0.000 C 
ATOM     18  C   UNL     1       5.745   5.330  19.308  0.00  0.00    +0.000 C 
ENDBRANCH  12  13
ENDBRANCH   4   7
BRANCH   1  19
ATOM     19  C   UNL     1       1.505   9.435  21.209  0.00  0.00    +0.000 C 
BRANCH  19  21
ATOM     20  O   UNL     1      -0.875   9.062  21.320  0.00  0.00    +0.000 OA
ATOM     21  C   UNL     1       0.063   9.546  20.691  0.00  0.00    +0.000 C 
ATOM     22  N   UNL     1      -0.015  10.237  19.485  0.00  0.00    +0.000 N 
ATOM     23  H   UNL     1       0.856  10.566  19.095  0.00  0.00    +0.000 HD
BRANCH  22  24
ATOM     24  C   UNL     1      -1.181  10.534  18.740  0.00  0.00    +0.000 A 
ATOM     25  C   UNL     1      -2.152  11.459  19.146  0.00  0.00    +0.000 A 
ATOM     26  C   UNL     1      -3.289  11.693  18.362  0.00  0.00    +0.000 A 
ATOM     27  C   UNL     1      -3.453  11.011  17.167  0.00  0.00    +0.000 A 
ATOM     28  F   UNL     1      -4.548  11.239  16.425  0.00  0.00    +0.000 F 
ATOM     29  C   UNL     1      -2.497  10.104  16.746  0.00  0.00    +0.000 A 
ATOM     30  F   UNL     1      -2.649   9.449  15.585  0.00  0.00    +0.000 F 
ATOM     31  C   UNL     1      -1.358   9.860  17.522  0.00  0.00    +0.000 A 
ENDBRANCH  22  24
ENDBRANCH  19  21
ENDBRANCH   1  19
TORSDOF 5
ENDMDL
MODEL 2
REMARK VINA RESULT:      -8.2      1.765      1.883
REMARK  Name = 
REMARK  5 active torsions:
REMARK  status: ('A' for Active; 'I' for Inactive)
REMARK    1  A    between atoms: C_2  and  C_3
REMARK    2  A    between atoms: C_3  and  N_4
REMARK    3  A    between atoms: N_7  and  C_8
REMARK    4  A    between atoms: C_13  and  N_14
REMARK    5  A    between atoms: N_20  and  C_21
REMARK                            x       y       z     vdW  Elec       q    Type
REMARK                         _______ _______ _______ _____ _____    ______ ____
ROOT
ATOM      1  N   UNL     1       1.866   8.237  17.787  0.00  0.00    +0.000 N 
ATOM      2  C   UNL     1       2.209   7.122  18.523  0.00  0.00    +0.000 C 
ATOM      3  O   UNL     1       2.713   7.207  19.635  0.00  0.00    +0.000 OA
ATOM      4  N   UNL     1       1.988   5.960  17.803  0.00  0.00    +0.000 N 
ATOM      5  H   UNL     1       1.179   8.136  17.050  0.00  0.00    +0.000 HD
ATOM      6  H   UNL     1       2.285   6.088  16.847  0.00  0.00    +0.000 HD
ENDROOT
BRANCH   4   7
ATOM      7  C   UNL     1       2.373   4.717  18.377  0.00  0.00    +0.000 A 
ATOM      8  C   UNL     1       1.437   4.064  19.192  0.00  0.00    +0.000 A 
ATOM      9  C   UNL     1       1.715   2.803  19.710  0.00  0.00    +0.000 A 
ATOM     10  C   UNL     1       2.937   2.198  19.431  0.00  0.00    +0.000 A 
ATOM     11  C   UNL     1       3.889   2.867  18.653  0.00  0.00    +0.000 A 
ATOM     12  C   UNL     1       3.653   4.151  18.129  0.00  0.00    +0.000 A 
BRANCH  12  13
ATOM     13  N   UNL     1       4.657   4.852  17.466  0.00  0.00    +0.000 N 
ATOM     14  C   UNL     1       4.926   4.675  16.038  0.00  0.00    +0.000 C 
ATOM     15  C   UNL     1       6.275   3.990  15.815  0.00  0.00    +0.000 C 
ATOM     16  C   UNL     1       7.391   4.700  16.577  0.00  0.00    +0.000 C 
ATOM     17  C   UNL     1       7.041   4.801  18.057  0.00  0.00    +0.000 C 
ATOM     18  C   UNL     1       5.701   5.502  18.261  0.00  0.00    +0.000 C 
ENDBRANCH  12  13
ENDBRANCH   4   7
BRANCH   1  19
ATOM     19  C   UNL     1       2.038   9.559  18.363  0.00  0.00    +0.000 C 
BRANCH  19  21
ATOM     20  O   UNL     1       0.589  11.218  19.343  0.00  0.00    +0.000 OA
ATOM     21  C   UNL     1       0.710  10.315  18.520  0.00  0.00    +0.000 C 
ATOM     22  N   UNL     1      -0.267   9.856  17.641  0.00  0.00    +0.000 N 
ATOM     23  H   UNL     1      -0.005   9.096  17.029  0.00  0.00    +0.000 HD
BRANCH  22  24
ATOM     24  C   UNL     1      -1.592  10.335  17.504  0.00  0.00    +0.000 A 
ATOM     25  C   UNL     1      -2.269  11.053  18.498  0.00  0.00    +0.000 A 
ATOM     26  C   UNL     1      -3.586  11.485  18.296  0.00  0.00    +0.000 A 
ATOM     27  C   UNL     1      -4.226  11.209  17.099  0.00  0.00    +0.000 A 
ATOM     28  F   UNL     1      -5.489  11.623  16.917  0.00  0.00    +0.000 F 
ATOM     29  C   UNL     1      -3.566  10.512  16.102  0.00  0.00    +0.000 A 
ATOM     30  F   UNL     1      -4.179  10.251  14.938  0.00  0.00    +0.000 F 
ATOM     31  C   UNL     1      -2.250  10.073  16.293  0.00  0.00    +0.000 A 
ENDBRANCH  22  24
ENDBRANCH  19  21
ENDBRANCH   1  19
TORSDOF 5
ENDMDL
MODEL 3
REMARK VINA RESULT:      -8.2      2.828      4.253
REMARK  Name = 
REMARK  5 active torsions:
REMARK  status: ('A' for Active; 'I' for Inactive)
REMARK    1  A    between atoms: C_2  and  C_3
REMARK    2  A    between atoms: C_3  and  N_4
REMARK    3  A    between atoms: N_7  and  C_8
REMARK    4  A    between atoms: C_13  and  N_14
REMARK    5  A    between atoms: N_20  and  C_21
REMARK                            x       y       z     vdW  Elec       q    Type
REMARK                         _______ _______ _______ _____ _____    ______ ____
ROOT
ATOM      1  N   UNL     1       1.870   7.124  20.985  0.00  0.00    +0.000 N 
ATOM      2  C   UNL     1       2.317   6.845  19.710  0.00  0.00    +0.000 C 
ATOM      3  O   UNL     1       1.738   7.260  18.714  0.00  0.00    +0.000 OA
ATOM      4  N   UNL     1       3.408   5.994  19.736  0.00  0.00    +0.000 N 
ATOM      5  H   UNL     1       2.526   7.050  21.753  0.00  0.00    +0.000 HD
ATOM      6  H   UNL     1       3.263   5.272  20.427  0.00  0.00    +0.000 HD
ENDROOT
BRANCH   4   7
ATOM      7  C   UNL     1       3.942   5.528  18.504  0.00  0.00    +0.000 A 
ATOM      8  C   UNL     1       4.642   6.452  17.713  0.00  0.00    +0.000 A 
ATOM      9  C   UNL     1       5.266   6.041  16.539  0.00  0.00    +0.000 A 
ATOM     10  C   UNL     1       5.179   4.710  16.143  0.00  0.00    +0.000 A 
ATOM     11  C   UNL     1       4.446   3.796  16.909  0.00  0.00    +0.000 A 
ATOM     12  C   UNL     1       3.783   4.177  18.089  0.00  0.00    +0.000 A 
BRANCH  12  13
ATOM     13  N   UNL     1       2.956   3.288  18.769  0.00  0.00    +0.000 N 
ATOM     14  C   UNL     1       1.499   3.314  18.635  0.00  0.00    +0.000 C 
ATOM     15  C   UNL     1       0.837   3.774  19.935  0.00  0.00    +0.000 C 
ATOM     16  C   UNL     1       1.340   2.968  21.131  0.00  0.00    +0.000 C 
ATOM     17  C   UNL     1       2.860   3.033  21.211  0.00  0.00    +0.000 C 
ATOM     18  C   UNL     1       3.504   2.554  19.912  0.00  0.00    +0.000 C 
ENDBRANCH  12  13
ENDBRANCH   4   7
BRANCH   1  19
ATOM     19  C   UNL     1       0.720   7.991  21.170  0.00  0.00    +0.000 C 
BRANCH  19  21
ATOM     20  O   UNL     1       1.570  10.058  22.074  0.00  0.00    +0.000 OA
ATOM     21  C   UNL     1       1.085   9.481  21.105  0.00  0.00    +0.000 C 
ATOM     22  N   UNL     1       0.806  10.040  19.861  0.00  0.00    +0.000 N 
ATOM     23  H   UNL     1       0.399   9.426  19.169  0.00  0.00    +0.000 HD
BRANCH  22  24
ATOM     24  C   UNL     1       1.031  11.376  19.450  0.00  0.00    +0.000 A 
ATOM     25  C   UNL     1       2.029  11.757  18.544  0.00  0.00    +0.000 A 
ATOM     26  C   UNL     1       2.201  13.102  18.194  0.00  0.00    +0.000 A 
ATOM     27  C   UNL     1       1.370  14.067  18.740  0.00  0.00    +0.000 A 
ATOM     28  F   UNL     1       1.546  15.354  18.400  0.00  0.00    +0.000 F 
ATOM     29  C   UNL     1       0.371  13.706  19.626  0.00  0.00    +0.000 A 
ATOM     30  F   UNL     1      -0.441  14.637  20.149  0.00  0.00    +0.000 F 
ATOM     31  C   UNL     1       0.191  12.365  19.986  0.00  0.00    +0.000 A 
ENDBRANCH  22  24
ENDBRANCH  19  21
ENDBRANCH   1  19
TORSDOF 5
ENDMDL
MODEL 4
REMARK VINA RESULT:      -8.1      1.224      2.993
REMARK  Name = 
REMARK  5 active torsions:
REMARK  status: ('A' for Active; 'I' for Inactive)
REMARK    1  A    between atoms: C_2  and  C_3
REMARK    2  A    between atoms: C_3  and  N_4
REMARK    3  A    between atoms: N_7  and  C_8
REMARK    4  A    between atoms: C_13  and  N_14
REMARK    5  A    between atoms: N_20  and  C_21
REMARK                            x       y       z     vdW  Elec       q    Type
REMARK                         _______ _______ _______ _____ _____    ______ ____
ROOT
ATOM      1  N   UNL     1       1.935   7.614  20.967  0.00  0.00    +0.000 N 
ATOM      2  C   UNL     1       2.537   7.357  19.753  0.00  0.00    +0.000 C 
ATOM      3  O   UNL     1       2.584   8.194  18.860  0.00  0.00    +0.000 OA
ATOM      4  N   UNL     1       2.974   6.046  19.678  0.00  0.00    +0.000 N 
ATOM      5  H   UNL     1       2.194   7.046  21.764  0.00  0.00    +0.000 HD
ATOM      6  H   UNL     1       2.281   5.431  20.077  0.00  0.00    +0.000 HD
ENDROOT
BRANCH   4   7
ATOM      7  C   UNL     1       3.539   5.582  18.458  0.00  0.00    +0.000 A 
ATOM      8  C   UNL     1       4.185   6.524  17.646  0.00  0.00    +0.000 A 
ATOM      9  C   UNL     1       4.837   6.122  16.484  0.00  0.00    +0.000 A 
ATOM     10  C   UNL     1       4.830   4.778  16.121  0.00  0.00    +0.000 A 
ATOM     11  C   UNL     1       4.149   3.843  16.909  0.00  0.00    +0.000 A 
ATOM     12  C   UNL     1       3.461   4.214  18.078  0.00  0.00    +0.000 A 
BRANCH  12  13
ATOM     13  N   UNL     1       2.685   3.294  18.778  0.00  0.00    +0.000 N 
ATOM     14  C   UNL     1       1.224   3.370  18.818  0.00  0.00    +0.000 C 
ATOM     15  C   UNL     1       0.732   3.741  20.218  0.00  0.00    +0.000 C 
ATOM     16  C   UNL     1       1.339   2.827  21.280  0.00  0.00    +0.000 C 
ATOM     17  C   UNL     1       2.859   2.845  21.188  0.00  0.00    +0.000 C 
ATOM     18  C   UNL     1       3.333   2.456  19.789  0.00  0.00    +0.000 C 
ENDBRANCH  12  13
ENDBRANCH   4   7
BRANCH   1  19
ATOM     19  C   UNL     1       1.395   8.935  21.236  0.00  0.00    +0.000 C 
BRANCH  19  21
ATOM     20  O   UNL     1      -0.987   8.578  21.139  0.00  0.00    +0.000 OA
ATOM     21  C   UNL     1      -0.009   9.133  20.646  0.00  0.00    +0.000 C 
ATOM     22  N   UNL     1      -0.005   9.986  19.546  0.00  0.00    +0.000 N 
ATOM     23  H   UNL     1       0.891  10.356  19.262  0.00  0.00    +0.000 HD
BRANCH  22  24
ATOM     24  C   UNL     1      -1.119  10.398  18.775  0.00  0.00    +0.000 A 
ATOM     25  C   UNL     1      -2.053  11.351  19.201  0.00  0.00    +0.000 A 
ATOM     26  C   UNL     1      -3.139  11.700  18.389  0.00  0.00    +0.000 A 
ATOM     27  C   UNL     1      -3.290  11.105  17.146  0.00  0.00    +0.000 A 
ATOM     28  F   UNL     1      -4.336  11.443  16.377  0.00  0.00    +0.000 F 
ATOM     29  C   UNL     1      -2.369  10.171  16.706  0.00  0.00    +0.000 A 
ATOM     30  F   UNL     1      -2.506   9.600  15.500  0.00  0.00    +0.000 F 
ATOM     31  C   UNL     1      -1.280   9.812  17.510  0.00  0.00    +0.000 A 
ENDBRANCH  22  24
ENDBRANCH  19  21
ENDBRANCH   1  19
TORSDOF 5
ENDMDL
MODEL 5
REMARK VINA RESULT:      -8.1      6.222      8.899
REMARK  Name = 
REMARK  5 active torsions:
REMARK  status: ('A' for Active; 'I' for Inactive)
REMARK    1  A    between atoms: C_2  and  C_3
REMARK    2  A    between atoms: C_3  and  N_4
REMARK    3  A    between atoms: N_7  and  C_8
REMARK    4  A    between atoms: C_13  and  N_14
REMARK    5  A    between atoms: N_20  and  C_21
REMARK                            x       y       z     vdW  Elec       q    Type
REMARK                         _______ _______ _______ _____ _____    ______ ____
ROOT
ATOM      1  N   UNL     1       8.044   8.672  18.044  0.00  0.00    +0.000 N 
ATOM      2  C   UNL     1       7.630   7.376  17.822  0.00  0.00    +0.000 C 
ATOM      3  O   UNL     1       8.055   6.435  18.481  0.00  0.00    +0.000 OA
ATOM      4  N   UNL     1       6.775   7.302  16.735  0.00  0.00    +0.000 N 
ATOM      5  H   UNL     1       7.454   9.429  17.722  0.00  0.00    +0.000 HD
ATOM      6  H   UNL     1       7.114   7.895  15.992  0.00  0.00    +0.000 HD
ENDROOT
BRANCH   4   7
ATOM      7  C   UNL     1       6.322   6.024  16.307  0.00  0.00    +0.000 A 
ATOM      8  C   UNL     1       6.893   5.494  15.141  0.00  0.00    +0.000 A 
ATOM      9  C   UNL     1       6.561   4.211  14.717  0.00  0.00    +0.000 A 
ATOM     10  C   UNL     1       5.643   3.461  15.446  0.00  0.00    +0.000 A 
ATOM     11  C   UNL     1       5.041   4.005  16.586  0.00  0.00    +0.000 A 
ATOM     12  C   UNL     1       5.334   5.305  17.035  0.00  0.00    +0.000 A 
BRANCH  12  13
ATOM     13  N   UNL     1       4.633   5.877  18.093  0.00  0.00    +0.000 N 
ATOM     14  C   UNL     1       4.696   5.343  19.454  0.00  0.00    +0.000 C 
ATOM     15  C   UNL     1       3.357   4.728  19.864  0.00  0.00    +0.000 C 
ATOM     16  C   UNL     1       2.203   5.700  19.628  0.00  0.00    +0.000 C 
ATOM     17  C   UNL     1       2.195   6.168  18.178  0.00  0.00    +0.000 C 
ATOM     18  C   UNL     1       3.533   6.794  17.791  0.00  0.00    +0.000 C 
ENDBRANCH  12  13
ENDBRANCH   4   7
BRANCH   1  19
ATOM     19  C   UNL     1       8.960   8.957  19.134  0.00  0.00    +0.000 C 
BRANCH  19  21
ATOM     20  O   UNL     1       9.277  11.021  20.338  0.00  0.00    +0.000 OA
ATOM     21  C   UNL     1       9.297  10.451  19.251  0.00  0.00    +0.000 C 
ATOM     22  N   UNL     1       9.612  11.020  18.021  0.00  0.00    +0.000 N 
ATOM     23  H   UNL     1       9.574  10.410  17.216  0.00  0.00    +0.000 HD
BRANCH  22  24
ATOM     24  C   UNL     1       9.984  12.362  17.765  0.00  0.00    +0.000 A 
ATOM     25  C   UNL     1      11.243  12.745  17.285  0.00  0.00    +0.000 A 
ATOM     26  C   UNL     1      11.544  14.095  17.068  0.00  0.00    +0.000 A 
ATOM     27  C   UNL     1      10.587  15.064  17.321  0.00  0.00    +0.000 A 
ATOM     28  F   UNL     1      10.887  16.356  17.114  0.00  0.00    +0.000 F 
ATOM     29  C   UNL     1       9.334  14.701  17.784  0.00  0.00    +0.000 A 
ATOM     30  F   UNL     1       8.402  15.636  18.021  0.00  0.00    +0.000 F 
ATOM     31  C   UNL     1       9.022  13.354  18.007  0.00  0.00    +0.000 A 
ENDBRANCH  22  24
ENDBRANCH  19  21
ENDBRANCH   1  19
TORSDOF 5
ENDMDL
MODEL 6
REMARK VINA RESULT:      -8.1      2.822      4.104
REMARK  Name = 
REMARK  5 active torsions:
REMARK  status: ('A' for Active; 'I' for Inactive)
REMARK    1  A    between atoms: C_2  and  C_3
REMARK    2  A    between atoms: C_3  and  N_4
REMARK    3  A    between atoms: N_7  and  C_8
REMARK    4  A    between atoms: C_13  and  N_14
REMARK    5  A    between atoms: N_20  and  C_21
REMARK                            x       y       z     vdW  Elec       q    Type
REMARK                         _______ _______ _______ _____ _____    ______ ____
ROOT
ATOM      1  N   UNL     1       1.838   7.138  21.029  0.00  0.00    +0.000 N 
ATOM      2  C   UNL     1       2.269   6.880  19.745  0.00  0.00    +0.000 C 
ATOM      3  O   UNL     1       1.656   7.276  18.762  0.00  0.00    +0.000 OA
ATOM      4  N   UNL     1       3.391   6.069  19.746  0.00  0.00    +0.000 N 
ATOM      5  H   UNL     1       2.512   7.087  21.784  0.00  0.00    +0.000 HD
ATOM      6  H   UNL     1       3.286   5.341  20.437  0.00  0.00    +0.000 HD
ENDROOT
BRANCH   4   7
ATOM      7  C   UNL     1       3.917   5.627  18.501  0.00  0.00    +0.000 A 
ATOM      8  C   UNL     1       4.592   6.571  17.713  0.00  0.00    +0.000 A 
ATOM      9  C   UNL     1       5.208   6.185  16.527  0.00  0.00    +0.000 A 
ATOM     10  C   UNL     1       5.137   4.857  16.116  0.00  0.00    +0.000 A 
ATOM     11  C   UNL     1       4.428   3.923  16.880  0.00  0.00    +0.000 A 
ATOM     12  C   UNL     1       3.775   4.279  18.073  0.00  0.00    +0.000 A 
BRANCH  12  13
ATOM     13  N   UNL     1       2.970   3.368  18.751  0.00  0.00    +0.000 N 
ATOM     14  C   UNL     1       1.512   3.361  18.622  0.00  0.00    +0.000 C 
ATOM     15  C   UNL     1       0.844   3.801  19.925  0.00  0.00    +0.000 C 
ATOM     16  C   UNL     1       1.368   3.003  21.116  0.00  0.00    +0.000 C 
ATOM     17  C   UNL     1       2.887   3.103  21.193  0.00  0.00    +0.000 C 
ATOM     18  C   UNL     1       3.538   2.644  19.890  0.00  0.00    +0.000 C 
ENDBRANCH  12  13
ENDBRANCH   4   7
BRANCH   1  19
ATOM     19  C   UNL     1       0.661   7.962  21.240  0.00  0.00    +0.000 C 
BRANCH  19  21
ATOM     20  O   UNL     1       1.574  10.008  22.130  0.00  0.00    +0.000 OA
ATOM     21  C   UNL     1       0.975   9.465  21.206  0.00  0.00    +0.000 C 
ATOM     22  N   UNL     1       0.514  10.076  20.043  0.00  0.00    +0.000 N 
ATOM     23  H   UNL     1       0.031   9.484  19.382  0.00  0.00    +0.000 HD
BRANCH  22  24
ATOM     24  C   UNL     1       0.646  11.437  19.678  0.00  0.00    +0.000 A 
ATOM     25  C   UNL     1      -0.272  12.433  20.034  0.00  0.00    +0.000 A 
ATOM     26  C   UNL     1      -0.082  13.759  19.625  0.00  0.00    +0.000 A 
ATOM     27  C   UNL     1       1.029  14.094  18.867  0.00  0.00    +0.000 A 
ATOM     28  F   UNL     1       1.199  15.367  18.477  0.00  0.00    +0.000 F 
ATOM     29  C   UNL     1       1.951  13.124  18.518  0.00  0.00    +0.000 A 
ATOM     30  F   UNL     1       3.032  13.447  17.792  0.00  0.00    +0.000 F 
ATOM     31  C   UNL     1       1.771  11.794  18.919  0.00  0.00    +0.000 A 
ENDBRANCH  22  24
ENDBRANCH  19  21
ENDBRANCH   1  19
TORSDOF 5
ENDMDL
MODEL 7
REMARK VINA RESULT:      -8.1      1.851      2.268
REMARK  Name = 
REMARK  5 active torsions:
REMARK  status: ('A' for Active; 'I' for Inactive)
REMARK    1  A    between atoms: C_2  and  C_3
REMARK    2  A    between atoms: C_3  and  N_4
REMARK    3  A    between atoms: N_7  and  C_8
REMARK    4  A    between atoms: C_13  and  N_14
REMARK    5  A    between atoms: N_20  and  C_21
REMARK                            x       y       z     vdW  Elec       q    Type
REMARK                         _______ _______ _______ _____ _____    ______ ____
ROOT
ATOM      1  N   UNL     1       1.719   8.218  17.848  0.00  0.00    +0.000 N 
ATOM      2  C   UNL     1       2.130   7.239  18.728  0.00  0.00    +0.000 C 
ATOM      3  O   UNL     1       2.504   7.501  19.864  0.00  0.00    +0.000 OA
ATOM      4  N   UNL     1       2.136   5.993  18.125  0.00  0.00    +0.000 N 
ATOM      5  H   UNL     1       1.129   7.951  17.070  0.00  0.00    +0.000 HD
ATOM      6  H   UNL     1       2.508   6.067  17.190  0.00  0.00    +0.000 HD
ENDROOT
BRANCH   4   7
ATOM      7  C   UNL     1       2.620   4.878  18.862  0.00  0.00    +0.000 A 
ATOM      8  C   UNL     1       1.768   4.322  19.827  0.00  0.00    +0.000 A 
ATOM      9  C   UNL     1       2.144   3.176  20.520  0.00  0.00    +0.000 A 
ATOM     10  C   UNL     1       3.381   2.591  20.264  0.00  0.00    +0.000 A 
ATOM     11  C   UNL     1       4.250   3.169  19.332  0.00  0.00    +0.000 A 
ATOM     12  C   UNL     1       3.915   4.339  18.627  0.00  0.00    +0.000 A 
BRANCH  12  13
ATOM     13  N   UNL     1       4.840   4.970  17.800  0.00  0.00    +0.000 N 
ATOM     14  C   UNL     1       4.857   4.774  16.350  0.00  0.00    +0.000 C 
ATOM     15  C   UNL     1       6.102   3.999  15.916  0.00  0.00    +0.000 C 
ATOM     16  C   UNL     1       7.374   4.632  16.475  0.00  0.00    +0.000 C 
ATOM     17  C   UNL     1       7.280   4.757  17.991  0.00  0.00    +0.000 C 
ATOM     18  C   UNL     1       6.042   5.548  18.405  0.00  0.00    +0.000 C 
ENDBRANCH  12  13
ENDBRANCH   4   7
BRANCH   1  19
ATOM     19  C   UNL     1       1.659   9.600  18.288  0.00  0.00    +0.000 C 
BRANCH  19  21
ATOM     20  O   UNL     1      -0.153  10.403  19.661  0.00  0.00    +0.000 OA
ATOM     21  C   UNL     1       0.222  10.081  18.537  0.00  0.00    +0.000 C 
ATOM     22  N   UNL     1      -0.538  10.102  17.371  0.00  0.00    +0.000 N 
ATOM     23  H   UNL     1      -0.079   9.798  16.525  0.00  0.00    +0.000 HD
BRANCH  22  24
ATOM     24  C   UNL     1      -1.889  10.504  17.234  0.00  0.00    +0.000 A 
ATOM     25  C   UNL     1      -2.631  10.357  16.056  0.00  0.00    +0.000 A 
ATOM     26  C   UNL     1      -3.961  10.790  15.989  0.00  0.00    +0.000 A 
ATOM     27  C   UNL     1      -4.555  11.363  17.103  0.00  0.00    +0.000 A 
ATOM     28  F   UNL     1      -5.829  11.779  17.028  0.00  0.00    +0.000 F 
ATOM     29  C   UNL     1      -3.840  11.504  18.278  0.00  0.00    +0.000 A 
ATOM     30  F   UNL     1      -4.414  12.049  19.361  0.00  0.00    +0.000 F 
ATOM     31  C   UNL     1      -2.508  11.076  18.356  0.00  0.00    +0.000 A 
ENDBRANCH  22  24
ENDBRANCH  19  21
ENDBRANCH   1  19
TORSDOF 5
ENDMDL
MODEL 8
REMARK VINA RESULT:      -8.1      2.791      3.499
REMARK  Name = 
REMARK  5 active torsions:
REMARK  status: ('A' for Active; 'I' for Inactive)
REMARK    1  A    between atoms: C_2  and  C_3
REMARK    2  A    between atoms: C_3  and  N_4
REMARK    3  A    between atoms: N_7  and  C_8
REMARK    4  A    between atoms: C_13  and  N_14
REMARK    5  A    between atoms: N_20  and  C_21
REMARK                            x       y       z     vdW  Elec       q    Type
REMARK                         _______ _______ _______ _____ _____    ______ ____
ROOT
ATOM      1  N   UNL     1       1.810   8.055  17.615  0.00  0.00    +0.000 N 
ATOM      2  C   UNL     1       2.268   7.133  18.532  0.00  0.00    +0.000 C 
ATOM      3  O   UNL     1       2.774   7.470  19.595  0.00  0.00    +0.000 OA
ATOM      4  N   UNL     1       2.154   5.842  18.045  0.00  0.00    +0.000 N 
ATOM      5  H   UNL     1       1.128   7.755  16.929  0.00  0.00    +0.000 HD
ATOM      6  H   UNL     1       2.426   5.818  17.074  0.00  0.00    +0.000 HD
ENDROOT
BRANCH   4   7
ATOM      7  C   UNL     1       2.665   4.769  18.826  0.00  0.00    +0.000 A 
ATOM      8  C   UNL     1       1.816   4.213  19.794  0.00  0.00    +0.000 A 
ATOM      9  C   UNL     1       2.221   3.103  20.529  0.00  0.00    +0.000 A 
ATOM     10  C   UNL     1       3.482   2.556  20.312  0.00  0.00    +0.000 A 
ATOM     11  C   UNL     1       4.346   3.136  19.376  0.00  0.00    +0.000 A 
ATOM     12  C   UNL     1       3.982   4.271  18.629  0.00  0.00    +0.000 A 
BRANCH  12  13
ATOM     13  N   UNL     1       4.899   4.909  17.798  0.00  0.00    +0.000 N 
ATOM     14  C   UNL     1       4.891   4.738  16.345  0.00  0.00    +0.000 C 
ATOM     15  C   UNL     1       6.122   3.961  15.877  0.00  0.00    +0.000 C 
ATOM     16  C   UNL     1       7.408   4.575  16.426  0.00  0.00    +0.000 C 
ATOM     17  C   UNL     1       7.340   4.674  17.945  0.00  0.00    +0.000 C 
ATOM     18  C   UNL     1       6.115   5.468  18.393  0.00  0.00    +0.000 C 
ENDBRANCH  12  13
ENDBRANCH   4   7
BRANCH   1  19
ATOM     19  C   UNL     1       1.859   9.471  17.933  0.00  0.00    +0.000 C 
BRANCH  19  21
ATOM     20  O   UNL     1      -0.469  10.048  18.177  0.00  0.00    +0.000 OA
ATOM     21  C   UNL     1       0.628   9.945  18.720  0.00  0.00    +0.000 C 
ATOM     22  N   UNL     1       0.923  10.214  20.053  0.00  0.00    +0.000 N 
ATOM     23  H   UNL     1       1.883  10.084  20.340  0.00  0.00    +0.000 HD
BRANCH  22  24
ATOM     24  C   UNL     1       0.028  10.651  21.059  0.00  0.00    +0.000 A 
ATOM     25  C   UNL     1      -0.200   9.958  22.255  0.00  0.00    +0.000 A 
ATOM     26  C   UNL     1      -1.111  10.445  23.201  0.00  0.00    +0.000 A 
ATOM     27  C   UNL     1      -1.789  11.629  22.958  0.00  0.00    +0.000 A 
ATOM     28  F   UNL     1      -2.663  12.084  23.869  0.00  0.00    +0.000 F 
ATOM     29  C   UNL     1      -1.566  12.332  21.788  0.00  0.00    +0.000 A 
ATOM     30  F   UNL     1      -2.213  13.482  21.554  0.00  0.00    +0.000 F 
ATOM     31  C   UNL     1      -0.659  11.854  20.833  0.00  0.00    +0.000 A 
ENDBRANCH  22  24
ENDBRANCH  19  21
ENDBRANCH   1  19
TORSDOF 5
ENDMDL
MODEL 9
REMARK VINA RESULT:      -8.1      2.710      3.559
REMARK  Name = 
REMARK  5 active torsions:
REMARK  status: ('A' for Active; 'I' for Inactive)
REMARK    1  A    between atoms: C_2  and  C_3
REMARK    2  A    between atoms: C_3  and  N_4
REMARK    3  A    between atoms: N_7  and  C_8
REMARK    4  A    between atoms: C_13  and  N_14
REMARK    5  A    between atoms: N_20  and  C_21
REMARK                            x       y       z     vdW  Elec       q    Type
REMARK                         _______ _______ _______ _____ _____    ______ ____
ROOT
ATOM      1  N   UNL     1       2.143   7.869  17.715  0.00  0.00    +0.000 N 
ATOM      2  C   UNL     1       2.245   7.003  18.785  0.00  0.00    +0.000 C 
ATOM      3  O   UNL     1       2.396   7.403  19.932  0.00  0.00    +0.000 OA
ATOM      4  N   UNL     1       2.243   5.684  18.364  0.00  0.00    +0.000 N 
ATOM      5  H   UNL     1       1.705   7.535  16.865  0.00  0.00    +0.000 HD
ATOM      6  H   UNL     1       2.811   5.588  17.536  0.00  0.00    +0.000 HD
ENDROOT
BRANCH   4   7
ATOM      7  C   UNL     1       2.433   4.658  19.330  0.00  0.00    +0.000 A 
ATOM      8  C   UNL     1       1.405   4.448  20.260  0.00  0.00    +0.000 A 
ATOM      9  C   UNL     1       1.487   3.402  21.174  0.00  0.00    +0.000 A 
ATOM     10  C   UNL     1       2.605   2.573  21.173  0.00  0.00    +0.000 A 
ATOM     11  C   UNL     1       3.651   2.809  20.273  0.00  0.00    +0.000 A 
ATOM     12  C   UNL     1       3.614   3.868  19.349  0.00  0.00    +0.000 A 
BRANCH  12  13
ATOM     13  N   UNL     1       4.716   4.164  18.550  0.00  0.00    +0.000 N 
ATOM     14  C   UNL     1       5.648   5.245  18.869  0.00  0.00    +0.000 C 
ATOM     15  C   UNL     1       5.534   6.385  17.856  0.00  0.00    +0.000 C 
ATOM     16  C   UNL     1       5.645   5.868  16.423  0.00  0.00    +0.000 C 
ATOM     17  C   UNL     1       4.611   4.778  16.173  0.00  0.00    +0.000 C 
ATOM     18  C   UNL     1       4.751   3.641  17.182  0.00  0.00    +0.000 C 
ENDBRANCH  12  13
ENDBRANCH   4   7
BRANCH   1  19
ATOM     19  C   UNL     1       2.143   9.302  17.948  0.00  0.00    +0.000 C 
BRANCH  19  21
ATOM     20  O   UNL     1      -0.192   9.879  18.110  0.00  0.00    +0.000 OA
ATOM     21  C   UNL     1       0.886   9.782  18.689  0.00  0.00    +0.000 C 
ATOM     22  N   UNL     1       1.138  10.067  20.028  0.00  0.00    +0.000 N 
ATOM     23  H   UNL     1       2.088   9.941  20.348  0.00  0.00    +0.000 HD
BRANCH  22  24
ATOM     24  C   UNL     1       0.210  10.513  21.000  0.00  0.00    +0.000 A 
ATOM     25  C   UNL     1      -0.017   9.862  22.219  0.00  0.00    +0.000 A 
ATOM     26  C   UNL     1      -0.962  10.355  23.128  0.00  0.00    +0.000 A 
ATOM     27  C   UNL     1      -1.674  11.504  22.825  0.00  0.00    +0.000 A 
ATOM     28  F   UNL     1      -2.580  11.967  23.701  0.00  0.00    +0.000 F 
ATOM     29  C   UNL     1      -1.452  12.167  21.631  0.00  0.00    +0.000 A 
ATOM     30  F   UNL     1      -2.133  13.284  21.339  0.00  0.00    +0.000 F 
ATOM     31  C   UNL     1      -0.512  11.682  20.713  0.00  0.00    +0.000 A 
ENDBRANCH  22  24
ENDBRANCH  19  21
ENDBRANCH   1  19
TORSDOF 5
ENDMDL
