MODEL 1
REMARK VINA RESULT:      -8.5      0.000      0.000
REMARK  Name = 
REMARK  9 active torsions:
REMARK  status: ('A' for Active; 'I' for Inactive)
REMARK    1  A    between atoms: C_1  and  C_2
REMARK    2  A    between atoms: C_4  and  C_5
REMARK    3  A    between atoms: C_7  and  N_8
REMARK    4  A    between atoms: N_14  and  C_15
REMARK    5  A    between atoms: C_15  and  C_16
REMARK    6  A    between atoms: C_16  and  O_17
REMARK    7  A    between atoms: C_16  and  C_18
REMARK    8  A    between atoms: C_18  and  O_19
REMARK    9  A    between atoms: O_19  and  C_20
REMARK                            x       y       z     vdW  Elec       q    Type
REMARK                         _______ _______ _______ _____ _____    ______ ____
ROOT
ATOM      1  N   UNL     1       6.681   4.421  15.953  0.00  0.00    +0.000 N 
ATOM      2  N   UNL     1       7.766   4.742  16.727  0.00  0.00    +0.000 NA
ATOM      3  C   UNL     1       7.309   4.708  17.983  0.00  0.00    +0.000 A 
ATOM      4  C   UNL     1       5.972   4.316  18.048  0.00  0.00    +0.000 A 
ATOM      5  C   UNL     1       5.045   4.041  19.112  0.00  0.00    +0.000 A 
ATOM      6  O   UNL     1       5.324   4.199  20.289  0.00  0.00    +0.000 OA
ATOM      7  N   UNL     1       3.811   3.545  18.655  0.00  0.00    +0.000 N 
ATOM      8  C   UNL     1       3.552   3.416  17.300  0.00  0.00    +0.000 A 
ATOM      9  N   UNL     1       4.362   3.713  16.336  0.00  0.00    +0.000 NA
ATOM     10  C   UNL     1       5.578   4.139  16.750  0.00  0.00    +0.000 A 
ENDROOT
BRANCH   1  17
ATOM     11  C   UNL     1       5.423   2.400  11.599  0.00  0.00    +0.000 C 
ATOM     12  C   UNL     1       6.196   3.420  12.380  0.00  0.00    +0.000 A 
ATOM     13  C   UNL     1       6.972   4.390  11.744  0.00  0.00    +0.000 A 
ATOM     14  C   UNL     1       7.652   5.367  12.483  0.00  0.00    +0.000 A 
ATOM     15  C   UNL     1       8.519   6.379  11.795  0.00  0.00    +0.000 C 
ATOM     16  C   UNL     1       7.530   5.384  13.878  0.00  0.00    +0.000 A 
ATOM     17  C   UNL     1       6.777   4.401  14.532  0.00  0.00    +0.000 A 
ATOM     18  C   UNL     1       6.124   3.419  13.775  0.00  0.00    +0.000 A 
ENDBRANCH   1  17
BRANCH   7  19
ATOM     19  C   UNL     1       2.853   3.141  19.685  0.00  0.00    +0.000 C 
BRANCH  19  20
ATOM     20  C   UNL     1       1.433   3.715  19.562  0.00  0.00    +0.000 C 
BRANCH  20  21
ATOM     21  O   UNL     1       0.472   2.685  19.817  0.00  0.00    +0.000 OA
ATOM     22  H   UNL     1       0.425   2.529  20.777  0.00  0.00    +0.000 HD
ENDBRANCH  20  21
BRANCH  20  23
ATOM     23  C   UNL     1       1.218   4.877  20.526  0.00  0.00    +0.000 C 
BRANCH  23  24
ATOM     24  O   UNL     1       2.384   5.715  20.507  0.00  0.00    +0.000 OA
BRANCH  24  25
ATOM     25  C   UNL     1       2.196   6.901  19.850  0.00  0.00    +0.000 A 
ATOM     26  C   UNL     1       1.520   7.982  20.420  0.00  0.00    +0.000 A 
ATOM     27  C   UNL     1       1.316   9.146  19.681  0.00  0.00    +0.000 A 
ATOM     28  C   UNL     1       1.796   9.225  18.390  0.00  0.00    +0.000 A 
ATOM     29  F   UNL     1       1.563  10.328  17.677  0.00  0.00    +0.000 F 
ATOM     30  C   UNL     1       2.510   8.173  17.823  0.00  0.00    +0.000 A 
ATOM     31  C   UNL     1       2.728   7.012  18.565  0.00  0.00    +0.000 A 
ENDBRANCH  24  25
ENDBRANCH  23  24
ENDBRANCH  20  23
ENDBRANCH  19  20
ENDBRANCH   7  19
TORSDOF 7
ENDMDL
MODEL 2
REMARK VINA RESULT:      -8.4      3.611      7.997
REMARK  Name = 
REMARK  9 active torsions:
REMARK  status: ('A' for Active; 'I' for Inactive)
REMARK    1  A    between atoms: C_1  and  C_2
REMARK    2  A    between atoms: C_4  and  C_5
REMARK    3  A    between atoms: C_7  and  N_8
REMARK    4  A    between atoms: N_14  and  C_15
REMARK    5  A    between atoms: C_15  and  C_16
REMARK    6  A    between atoms: C_16  and  O_17
REMARK    7  A    between atoms: C_16  and  C_18
REMARK    8  A    between atoms: C_18  and  O_19
REMARK    9  A    between atoms: O_19  and  C_20
REMARK                            x       y       z     vdW  Elec       q    Type
REMARK                         _______ _______ _______ _____ _____    ______ ____
ROOT
ATOM      1  N   UNL     1       0.926   9.312  19.537  0.00  0.00    +0.000 N 
ATOM      2  N   UNL     1       0.710   8.855  20.812  0.00  0.00    +0.000 NA
ATOM      3  C   UNL     1       1.450   7.746  20.906  0.00  0.00    +0.000 A 
ATOM      4  C   UNL     1       2.186   7.503  19.747  0.00  0.00    +0.000 A 
ATOM      5  C   UNL     1       3.173   6.533  19.355  0.00  0.00    +0.000 A 
ATOM      6  O   UNL     1       3.508   5.605  20.071  0.00  0.00    +0.000 OA
ATOM      7  N   UNL     1       3.725   6.788  18.087  0.00  0.00    +0.000 N 
ATOM      8  C   UNL     1       3.277   7.848  17.314  0.00  0.00    +0.000 A 
ATOM      9  N   UNL     1       2.351   8.692  17.638  0.00  0.00    +0.000 NA
ATOM     10  C   UNL     1       1.843   8.503  18.878  0.00  0.00    +0.000 A 
ENDROOT
BRANCH   1  17
ATOM     11  C   UNL     1      -3.031  11.388  17.381  0.00  0.00    +0.000 C 
ATOM     12  C   UNL     1      -1.663  11.518  17.978  0.00  0.00    +0.000 A 
ATOM     13  C   UNL     1      -1.045  12.762  18.119  0.00  0.00    +0.000 A 
ATOM     14  C   UNL     1       0.214  12.877  18.722  0.00  0.00    +0.000 A 
ATOM     15  C   UNL     1       0.891  14.210  18.831  0.00  0.00    +0.000 C 
ATOM     16  C   UNL     1       0.850  11.729  19.212  0.00  0.00    +0.000 A 
ATOM     17  C   UNL     1       0.255  10.471  19.053  0.00  0.00    +0.000 A 
ATOM     18  C   UNL     1      -0.994  10.377  18.426  0.00  0.00    +0.000 A 
ENDBRANCH   1  17
BRANCH   7  19
ATOM     19  C   UNL     1       4.812   5.906  17.664  0.00  0.00    +0.000 C 
BRANCH  19  20
ATOM     20  C   UNL     1       4.497   4.933  16.517  0.00  0.00    +0.000 C 
BRANCH  20  21
ATOM     21  O   UNL     1       5.511   5.029  15.510  0.00  0.00    +0.000 OA
ATOM     22  H   UNL     1       6.341   4.664  15.864  0.00  0.00    +0.000 HD
ENDBRANCH  20  21
BRANCH  20  23
ATOM     23  C   UNL     1       4.396   3.496  17.018  0.00  0.00    +0.000 C 
BRANCH  23  24
ATOM     24  O   UNL     1       3.015   3.102  17.014  0.00  0.00    +0.000 OA
BRANCH  24  25
ATOM     25  C   UNL     1       2.482   2.964  18.267  0.00  0.00    +0.000 A 
ATOM     26  C   UNL     1       1.198   3.407  18.596  0.00  0.00    +0.000 A 
ATOM     27  C   UNL     1       0.731   3.284  19.902  0.00  0.00    +0.000 A 
ATOM     28  C   UNL     1       1.540   2.712  20.864  0.00  0.00    +0.000 A 
ATOM     29  F   UNL     1       1.099   2.633  22.121  0.00  0.00    +0.000 F 
ATOM     30  C   UNL     1       2.804   2.227  20.543  0.00  0.00    +0.000 A 
ATOM     31  C   UNL     1       3.270   2.336  19.232  0.00  0.00    +0.000 A 
ENDBRANCH  24  25
ENDBRANCH  23  24
ENDBRANCH  20  23
ENDBRANCH  19  20
ENDBRANCH   7  19
TORSDOF 7
ENDMDL
MODEL 3
REMARK VINA RESULT:      -8.3      3.637      8.189
REMARK  Name = 
REMARK  9 active torsions:
REMARK  status: ('A' for Active; 'I' for Inactive)
REMARK    1  A    between atoms: C_1  and  C_2
REMARK    2  A    between atoms: C_4  and  C_5
REMARK    3  A    between atoms: C_7  and  N_8
REMARK    4  A    between atoms: N_14  and  C_15
REMARK    5  A    between atoms: C_15  and  C_16
REMARK    6  A    between atoms: C_16  and  O_17
REMARK    7  A    between atoms: C_16  and  C_18
REMARK    8  A    between atoms: C_18  and  O_19
REMARK    9  A    between atoms: O_19  and  C_20
REMARK                            x       y       z     vdW  Elec       q    Type
REMARK                         _______ _______ _______ _____ _____    ______ ____
ROOT
ATOM      1  N   UNL     1       0.839   9.376  19.651  0.00  0.00    +0.000 N 
ATOM      2  N   UNL     1       0.590   8.946  20.929  0.00  0.00    +0.000 NA
ATOM      3  C   UNL     1       1.301   7.821  21.055  0.00  0.00    +0.000 A 
ATOM      4  C   UNL     1       2.052   7.541  19.913  0.00  0.00    +0.000 A 
ATOM      5  C   UNL     1       3.021   6.541  19.555  0.00  0.00    +0.000 A 
ATOM      6  O   UNL     1       3.320   5.617  20.292  0.00  0.00    +0.000 OA
ATOM      7  N   UNL     1       3.600   6.762  18.293  0.00  0.00    +0.000 N 
ATOM      8  C   UNL     1       3.193   7.818  17.494  0.00  0.00    +0.000 A 
ATOM      9  N   UNL     1       2.282   8.690  17.788  0.00  0.00    +0.000 NA
ATOM     10  C   UNL     1       1.748   8.534  19.022  0.00  0.00    +0.000 A 
ENDROOT
BRANCH   1  17
ATOM     11  C   UNL     1       0.787  14.295  19.008  0.00  0.00    +0.000 C 
ATOM     12  C   UNL     1       0.140  12.957  18.821  0.00  0.00    +0.000 A 
ATOM     13  C   UNL     1      -1.049  12.817  18.104  0.00  0.00    +0.000 A 
ATOM     14  C   UNL     1      -1.620  11.554  17.894  0.00  0.00    +0.000 A 
ATOM     15  C   UNL     1      -2.921  11.416  17.162  0.00  0.00    +0.000 C 
ATOM     16  C   UNL     1      -0.973  10.416  18.390  0.00  0.00    +0.000 A 
ATOM     17  C   UNL     1       0.206  10.543  19.135  0.00  0.00    +0.000 A 
ATOM     18  C   UNL     1       0.747  11.817  19.352  0.00  0.00    +0.000 A 
ENDBRANCH   1  17
BRANCH   7  19
ATOM     19  C   UNL     1       4.673   5.846  17.903  0.00  0.00    +0.000 C 
BRANCH  19  20
ATOM     20  C   UNL     1       4.450   5.039  16.615  0.00  0.00    +0.000 C 
BRANCH  20  21
ATOM     21  O   UNL     1       5.516   5.296  15.694  0.00  0.00    +0.000 OA
ATOM     22  H   UNL     1       6.344   4.941  16.063  0.00  0.00    +0.000 HD
ENDBRANCH  20  21
BRANCH  20  23
ATOM     23  C   UNL     1       4.362   3.544  16.904  0.00  0.00    +0.000 C 
BRANCH  23  24
ATOM     24  O   UNL     1       2.978   3.159  16.929  0.00  0.00    +0.000 OA
BRANCH  24  25
ATOM     25  C   UNL     1       2.482   2.983  18.191  0.00  0.00    +0.000 A 
ATOM     26  C   UNL     1       1.185   3.353  18.553  0.00  0.00    +0.000 A 
ATOM     27  C   UNL     1       0.755   3.194  19.869  0.00  0.00    +0.000 A 
ATOM     28  C   UNL     1       1.615   2.658  20.806  0.00  0.00    +0.000 A 
ATOM     29  F   UNL     1       1.207   2.545  22.071  0.00  0.00    +0.000 F 
ATOM     30  C   UNL     1       2.895   2.243  20.452  0.00  0.00    +0.000 A 
ATOM     31  C   UNL     1       3.324   2.389  19.132  0.00  0.00    +0.000 A 
ENDBRANCH  24  25
ENDBRANCH  23  24
ENDBRANCH  20  23
ENDBRANCH  19  20
ENDBRANCH   7  19
TORSDOF 7
ENDMDL
MODEL 4
REMARK VINA RESULT:      -8.1      3.643      7.939
REMARK  Name = 
REMARK  9 active torsions:
REMARK  status: ('A' for Active; 'I' for Inactive)
REMARK    1  A    between atoms: C_1  and  C_2
REMARK    2  A    between atoms: C_4  and  C_5
REMARK    3  A    between atoms: C_7  and  N_8
REMARK    4  A    between atoms: N_14  and  C_15
REMARK    5  A    between atoms: C_15  and  C_16
REMARK    6  A    between atoms: C_16  and  O_17
REMARK    7  A    between atoms: C_16  and  C_18
REMARK    8  A    between atoms: C_18  and  O_19
REMARK    9  A    between atoms: O_19  and  C_20
REMARK                            x       y       z     vdW  Elec       q    Type
REMARK                         _______ _______ _______ _____ _____    ______ ____
ROOT
ATOM      1  N   UNL     1       0.927   9.254  19.590  0.00  0.00    +0.000 N 
ATOM      2  N   UNL     1       0.663   8.849  20.873  0.00  0.00    +0.000 NA
ATOM      3  C   UNL     1       1.367   7.723  21.027  0.00  0.00    +0.000 A 
ATOM      4  C   UNL     1       2.128   7.419  19.898  0.00  0.00    +0.000 A 
ATOM      5  C   UNL     1       3.096   6.408  19.569  0.00  0.00    +0.000 A 
ATOM      6  O   UNL     1       3.384   5.496  20.326  0.00  0.00    +0.000 OA
ATOM      7  N   UNL     1       3.690   6.602  18.309  0.00  0.00    +0.000 N 
ATOM      8  C   UNL     1       3.296   7.646  17.487  0.00  0.00    +0.000 A 
ATOM      9  N   UNL     1       2.387   8.527  17.755  0.00  0.00    +0.000 NA
ATOM     10  C   UNL     1       1.839   8.397  18.986  0.00  0.00    +0.000 A 
ENDROOT
BRANCH   1  17
ATOM     11  C   UNL     1      -2.919  11.370  17.278  0.00  0.00    +0.000 C 
ATOM     12  C   UNL     1      -1.557  11.479  17.894  0.00  0.00    +0.000 A 
ATOM     13  C   UNL     1      -0.901  12.706  17.997  0.00  0.00    +0.000 A 
ATOM     14  C   UNL     1       0.352  12.804  18.617  0.00  0.00    +0.000 A 
ATOM     15  C   UNL     1       1.072  14.118  18.684  0.00  0.00    +0.000 C 
ATOM     16  C   UNL     1       0.940  11.657  19.165  0.00  0.00    +0.000 A 
ATOM     17  C   UNL     1       0.305  10.414  19.046  0.00  0.00    +0.000 A 
ATOM     18  C   UNL     1      -0.936  10.336  18.401  0.00  0.00    +0.000 A 
ENDBRANCH   1  17
BRANCH   7  19
ATOM     19  C   UNL     1       4.763   5.675  17.948  0.00  0.00    +0.000 C 
BRANCH  19  20
ATOM     20  C   UNL     1       4.501   4.763  16.740  0.00  0.00    +0.000 C 
BRANCH  20  21
ATOM     21  O   UNL     1       5.585   3.840  16.587  0.00  0.00    +0.000 OA
ATOM     22  H   UNL     1       6.350   4.167  17.093  0.00  0.00    +0.000 HD
ENDBRANCH  20  21
BRANCH  20  23
ATOM     23  C   UNL     1       3.188   4.002  16.891  0.00  0.00    +0.000 C 
BRANCH  23  24
ATOM     24  O   UNL     1       3.442   2.780  17.602  0.00  0.00    +0.000 OA
BRANCH  24  25
ATOM     25  C   UNL     1       2.854   2.734  18.837  0.00  0.00    +0.000 A 
ATOM     26  C   UNL     1       3.558   2.408  19.998  0.00  0.00    +0.000 A 
ATOM     27  C   UNL     1       2.892   2.328  21.219  0.00  0.00    +0.000 A 
ATOM     28  C   UNL     1       1.537   2.586  21.273  0.00  0.00    +0.000 A 
ATOM     29  F   UNL     1       0.900   2.470  22.440  0.00  0.00    +0.000 F 
ATOM     30  C   UNL     1       0.830   2.954  20.133  0.00  0.00    +0.000 A 
ATOM     31  C   UNL     1       1.496   3.048  18.911  0.00  0.00    +0.000 A 
ENDBRANCH  24  25
ENDBRANCH  23  24
ENDBRANCH  20  23
ENDBRANCH  19  20
ENDBRANCH   7  19
TORSDOF 7
ENDMDL
MODEL 5
REMARK VINA RESULT:      -8.1      3.586      8.039
REMARK  Name = 
REMARK  9 active torsions:
REMARK  status: ('A' for Active; 'I' for Inactive)
REMARK    1  A    between atoms: C_1  and  C_2
REMARK    2  A    between atoms: C_4  and  C_5
REMARK    3  A    between atoms: C_7  and  N_8
REMARK    4  A    between atoms: N_14  and  C_15
REMARK    5  A    between atoms: C_15  and  C_16
REMARK    6  A    between atoms: C_16  and  O_17
REMARK    7  A    between atoms: C_16  and  C_18
REMARK    8  A    between atoms: C_18  and  O_19
REMARK    9  A    between atoms: O_19  and  C_20
REMARK                            x       y       z     vdW  Elec       q    Type
REMARK                         _______ _______ _______ _____ _____    ______ ____
ROOT
ATOM      1  N   UNL     1       0.983   9.203  19.490  0.00  0.00    +0.000 N 
ATOM      2  N   UNL     1       0.817   8.802  20.791  0.00  0.00    +0.000 NA
ATOM      3  C   UNL     1       1.582   7.712  20.912  0.00  0.00    +0.000 A 
ATOM      4  C   UNL     1       2.287   7.430  19.741  0.00  0.00    +0.000 A 
ATOM      5  C   UNL     1       3.280   6.462  19.362  0.00  0.00    +0.000 A 
ATOM      6  O   UNL     1       3.656   5.574  20.109  0.00  0.00    +0.000 OA
ATOM      7  N   UNL     1       3.786   6.668  18.067  0.00  0.00    +0.000 N 
ATOM      8  C   UNL     1       3.292   7.682  17.261  0.00  0.00    +0.000 A 
ATOM      9  N   UNL     1       2.360   8.522  17.576  0.00  0.00    +0.000 NA
ATOM     10  C   UNL     1       1.895   8.382  18.839  0.00  0.00    +0.000 A 
ENDROOT
BRANCH   1  17
ATOM     11  C   UNL     1       0.602  14.108  18.855  0.00  0.00    +0.000 C 
ATOM     12  C   UNL     1       0.047  12.730  18.664  0.00  0.00    +0.000 A 
ATOM     13  C   UNL     1      -1.129  12.511  17.943  0.00  0.00    +0.000 A 
ATOM     14  C   UNL     1      -1.613  11.214  17.731  0.00  0.00    +0.000 A 
ATOM     15  C   UNL     1      -2.900  10.989  16.994  0.00  0.00    +0.000 C 
ATOM     16  C   UNL     1      -0.893  10.120  18.226  0.00  0.00    +0.000 A 
ATOM     17  C   UNL     1       0.274  10.325  18.974  0.00  0.00    +0.000 A 
ATOM     18  C   UNL     1       0.728  11.632  19.195  0.00  0.00    +0.000 A 
ENDBRANCH   1  17
BRANCH   7  19
ATOM     19  C   UNL     1       4.877   5.787  17.649  0.00  0.00    +0.000 C 
BRANCH  19  20
ATOM     20  C   UNL     1       4.526   4.704  16.618  0.00  0.00    +0.000 C 
BRANCH  20  21
ATOM     21  O   UNL     1       5.562   3.716  16.584  0.00  0.00    +0.000 OA
ATOM     22  H   UNL     1       6.368   4.118  16.216  0.00  0.00    +0.000 HD
ENDBRANCH  20  21
BRANCH  20  23
ATOM     23  C   UNL     1       3.188   4.044  16.938  0.00  0.00    +0.000 C 
BRANCH  23  24
ATOM     24  O   UNL     1       3.435   2.827  17.660  0.00  0.00    +0.000 OA
BRANCH  24  25
ATOM     25  C   UNL     1       2.831   2.787  18.887  0.00  0.00    +0.000 A 
ATOM     26  C   UNL     1       3.511   2.427  20.054  0.00  0.00    +0.000 A 
ATOM     27  C   UNL     1       2.828   2.356  21.266  0.00  0.00    +0.000 A 
ATOM     28  C   UNL     1       1.481   2.656  21.306  0.00  0.00    +0.000 A 
ATOM     29  F   UNL     1       0.826   2.549  22.464  0.00  0.00    +0.000 F 
ATOM     30  C   UNL     1       0.799   3.059  20.162  0.00  0.00    +0.000 A 
ATOM     31  C   UNL     1       1.484   3.144  18.949  0.00  0.00    +0.000 A 
ENDBRANCH  24  25
ENDBRANCH  23  24
ENDBRANCH  20  23
ENDBRANCH  19  20
ENDBRANCH   7  19
TORSDOF 7
ENDMDL
MODEL 6
REMARK VINA RESULT:      -8.0      0.904      1.322
REMARK  Name = 
REMARK  9 active torsions:
REMARK  status: ('A' for Active; 'I' for Inactive)
REMARK    1  A    between atoms: C_1  and  C_2
REMARK    2  A    between atoms: C_4  and  C_5
REMARK    3  A    between atoms: C_7  and  N_8
REMARK    4  A    between atoms: N_14  and  C_15
REMARK    5  A    between atoms: C_15  and  C_16
REMARK    6  A    between atoms: C_16  and  O_17
REMARK    7  A    between atoms: C_16  and  C_18
REMARK    8  A    between atoms: C_18  and  O_19
REMARK    9  A    between atoms: O_19  and  C_20
REMARK                            x       y       z     vdW  Elec       q    Type
REMARK                         _______ _______ _______ _____ _____    ______ ____
ROOT
ATOM      1  N   UNL     1       6.735   4.434  15.904  0.00  0.00    +0.000 N 
ATOM      2  N   UNL     1       7.837   4.731  16.664  0.00  0.00    +0.000 NA
ATOM      3  C   UNL     1       7.395   4.713  17.925  0.00  0.00    +0.000 A 
ATOM      4  C   UNL     1       6.050   4.354  18.008  0.00  0.00    +0.000 A 
ATOM      5  C   UNL     1       5.130   4.105  19.084  0.00  0.00    +0.000 A 
ATOM      6  O   UNL     1       5.427   4.261  20.257  0.00  0.00    +0.000 OA
ATOM      7  N   UNL     1       3.878   3.639  18.645  0.00  0.00    +0.000 N 
ATOM      8  C   UNL     1       3.599   3.511  17.293  0.00  0.00    +0.000 A 
ATOM      9  N   UNL     1       4.405   3.785  16.318  0.00  0.00    +0.000 NA
ATOM     10  C   UNL     1       5.636   4.182  16.715  0.00  0.00    +0.000 A 
ENDROOT
BRANCH   1  17
ATOM     11  C   UNL     1       5.422   2.391  11.577  0.00  0.00    +0.000 C 
ATOM     12  C   UNL     1       6.205   3.414  12.343  0.00  0.00    +0.000 A 
ATOM     13  C   UNL     1       6.972   4.381  11.692  0.00  0.00    +0.000 A 
ATOM     14  C   UNL     1       7.662   5.362  12.417  0.00  0.00    +0.000 A 
ATOM     15  C   UNL     1       8.520   6.370  11.713  0.00  0.00    +0.000 C 
ATOM     16  C   UNL     1       7.557   5.387  13.813  0.00  0.00    +0.000 A 
ATOM     17  C   UNL     1       6.813   4.407  14.482  0.00  0.00    +0.000 A 
ATOM     18  C   UNL     1       6.150   3.421  13.739  0.00  0.00    +0.000 A 
ENDBRANCH   1  17
BRANCH   7  19
ATOM     19  C   UNL     1       2.923   3.263  19.687  0.00  0.00    +0.000 C 
BRANCH  19  20
ATOM     20  C   UNL     1       2.044   4.390  20.250  0.00  0.00    +0.000 C 
BRANCH  20  21
ATOM     21  O   UNL     1       2.649   4.931  21.429  0.00  0.00    +0.000 OA
ATOM     22  H   UNL     1       2.035   5.570  21.833  0.00  0.00    +0.000 HD
ENDBRANCH  20  21
BRANCH  20  23
ATOM     23  C   UNL     1       1.831   5.495  19.220  0.00  0.00    +0.000 C 
BRANCH  23  24
ATOM     24  O   UNL     1       2.694   6.597  19.540  0.00  0.00    +0.000 OA
BRANCH  24  25
ATOM     25  C   UNL     1       2.135   7.821  19.291  0.00  0.00    +0.000 A 
ATOM     26  C   UNL     1       2.301   8.496  18.079  0.00  0.00    +0.000 A 
ATOM     27  C   UNL     1       1.747   9.762  17.904  0.00  0.00    +0.000 A 
ATOM     28  C   UNL     1       1.025  10.337  18.930  0.00  0.00    +0.000 A 
ATOM     29  F   UNL     1       0.531  11.566  18.767  0.00  0.00    +0.000 F 
ATOM     30  C   UNL     1       0.814   9.660  20.127  0.00  0.00    +0.000 A 
ATOM     31  C   UNL     1       1.355   8.386  20.301  0.00  0.00    +0.000 A 
ENDBRANCH  24  25
ENDBRANCH  23  24
ENDBRANCH  20  23
ENDBRANCH  19  20
ENDBRANCH   7  19
TORSDOF 7
ENDMDL
MODEL 7
REMARK VINA RESULT:      -7.9      0.953      1.938
REMARK  Name = 
REMARK  9 active torsions:
REMARK  status: ('A' for Active; 'I' for Inactive)
REMARK    1  A    between atoms: C_1  and  C_2
REMARK    2  A    between atoms: C_4  and  C_5
REMARK    3  A    between atoms: C_7  and  N_8
REMARK    4  A    between atoms: N_14  and  C_15
REMARK    5  A    between atoms: C_15  and  C_16
REMARK    6  A    between atoms: C_16  and  O_17
REMARK    7  A    between atoms: C_16  and  C_18
REMARK    8  A    between atoms: C_18  and  O_19
REMARK    9  A    between atoms: O_19  and  C_20
REMARK                            x       y       z     vdW  Elec       q    Type
REMARK                         _______ _______ _______ _____ _____    ______ ____
ROOT
ATOM      1  N   UNL     1       6.714   4.414  15.892  0.00  0.00    +0.000 N 
ATOM      2  N   UNL     1       7.822   4.620  16.674  0.00  0.00    +0.000 NA
ATOM      3  C   UNL     1       7.359   4.610  17.928  0.00  0.00    +0.000 A 
ATOM      4  C   UNL     1       5.990   4.344  17.984  0.00  0.00    +0.000 A 
ATOM      5  C   UNL     1       5.037   4.141  19.041  0.00  0.00    +0.000 A 
ATOM      6  O   UNL     1       5.325   4.254  20.221  0.00  0.00    +0.000 OA
ATOM      7  N   UNL     1       3.764   3.771  18.573  0.00  0.00    +0.000 N 
ATOM      8  C   UNL     1       3.499   3.688  17.215  0.00  0.00    +0.000 A 
ATOM      9  N   UNL     1       4.338   3.923  16.258  0.00  0.00    +0.000 NA
ATOM     10  C   UNL     1       5.587   4.225  16.681  0.00  0.00    +0.000 A 
ENDROOT
BRANCH   1  17
ATOM     11  C   UNL     1       8.531   6.377  11.713  0.00  0.00    +0.000 C 
ATOM     12  C   UNL     1       7.672   5.360  12.401  0.00  0.00    +0.000 A 
ATOM     13  C   UNL     1       7.003   4.367  11.683  0.00  0.00    +0.000 A 
ATOM     14  C   UNL     1       6.241   3.393  12.341  0.00  0.00    +0.000 A 
ATOM     15  C   UNL     1       5.489   2.356  11.561  0.00  0.00    +0.000 C 
ATOM     16  C   UNL     1       6.170   3.401  13.739  0.00  0.00    +0.000 A 
ATOM     17  C   UNL     1       6.814   4.408  14.471  0.00  0.00    +0.000 A 
ATOM     18  C   UNL     1       7.552   5.386  13.792  0.00  0.00    +0.000 A 
ENDBRANCH   1  17
BRANCH   7  19
ATOM     19  C   UNL     1       2.768   3.443  19.594  0.00  0.00    +0.000 C 
BRANCH  19  20
ATOM     20  C   UNL     1       2.038   4.629  20.244  0.00  0.00    +0.000 C 
BRANCH  20  21
ATOM     21  O   UNL     1       2.514   4.814  21.581  0.00  0.00    +0.000 OA
ATOM     22  H   UNL     1       1.963   4.290  22.188  0.00  0.00    +0.000 HD
ENDBRANCH  20  21
BRANCH  20  23
ATOM     23  C   UNL     1       2.233   5.910  19.440  0.00  0.00    +0.000 C 
BRANCH  23  24
ATOM     24  O   UNL     1       2.294   7.021  20.348  0.00  0.00    +0.000 OA
BRANCH  24  25
ATOM     25  C   UNL     1       1.705   8.157  19.864  0.00  0.00    +0.000 A 
ATOM     26  C   UNL     1       0.942   9.012  20.663  0.00  0.00    +0.000 A 
ATOM     27  C   UNL     1       0.325  10.127  20.099  0.00  0.00    +0.000 A 
ATOM     28  C   UNL     1       0.484  10.385  18.753  0.00  0.00    +0.000 A 
ATOM     29  F   UNL     1      -0.142  11.434  18.214  0.00  0.00    +0.000 F 
ATOM     30  C   UNL     1       1.276   9.567  17.953  0.00  0.00    +0.000 A 
ATOM     31  C   UNL     1       1.906   8.457  18.517  0.00  0.00    +0.000 A 
ENDBRANCH  24  25
ENDBRANCH  23  24
ENDBRANCH  20  23
ENDBRANCH  19  20
ENDBRANCH   7  19
TORSDOF 7
ENDMDL
MODEL 8
REMARK VINA RESULT:      -7.7      3.549      8.681
REMARK  Name = 
REMARK  9 active torsions:
REMARK  status: ('A' for Active; 'I' for Inactive)
REMARK    1  A    between atoms: C_1  and  C_2
REMARK    2  A    between atoms: C_4  and  C_5
REMARK    3  A    between atoms: C_7  and  N_8
REMARK    4  A    between atoms: N_14  and  C_15
REMARK    5  A    between atoms: C_15  and  C_16
REMARK    6  A    between atoms: C_16  and  O_17
REMARK    7  A    between atoms: C_16  and  C_18
REMARK    8  A    between atoms: C_18  and  O_19
REMARK    9  A    between atoms: O_19  and  C_20
REMARK                            x       y       z     vdW  Elec       q    Type
REMARK                         _______ _______ _______ _____ _____    ______ ____
ROOT
ATOM      1  N   UNL     1       1.104   9.023  19.911  0.00  0.00    +0.000 N 
ATOM      2  N   UNL     1       0.843   8.489  21.147  0.00  0.00    +0.000 NA
ATOM      3  C   UNL     1       1.474   7.311  21.150  0.00  0.00    +0.000 A 
ATOM      4  C   UNL     1       2.187   7.092  19.971  0.00  0.00    +0.000 A 
ATOM      5  C   UNL     1       3.079   6.068  19.499  0.00  0.00    +0.000 A 
ATOM      6  O   UNL     1       3.323   5.058  20.138  0.00  0.00    +0.000 OA
ATOM      7  N   UNL     1       3.655   6.368  18.252  0.00  0.00    +0.000 N 
ATOM      8  C   UNL     1       3.312   7.523  17.567  0.00  0.00    +0.000 A 
ATOM      9  N   UNL     1       2.469   8.422  17.962  0.00  0.00    +0.000 NA
ATOM     10  C   UNL     1       1.942   8.186  19.185  0.00  0.00    +0.000 A 
ENDROOT
BRANCH   1  17
ATOM     11  C   UNL     1       1.164  13.981  20.091  0.00  0.00    +0.000 C 
ATOM     12  C   UNL     1       0.536  12.709  19.606  0.00  0.00    +0.000 A 
ATOM     13  C   UNL     1      -0.555  12.720  18.736  0.00  0.00    +0.000 A 
ATOM     14  C   UNL     1      -1.103  11.524  18.252  0.00  0.00    +0.000 A 
ATOM     15  C   UNL     1      -2.303  11.543  17.353  0.00  0.00    +0.000 C 
ATOM     16  C   UNL     1      -0.531  10.303  18.628  0.00  0.00    +0.000 A 
ATOM     17  C   UNL     1       0.547  10.275  19.522  0.00  0.00    +0.000 A 
ATOM     18  C   UNL     1       1.065  11.481  20.012  0.00  0.00    +0.000 A 
ENDBRANCH   1  17
BRANCH   7  19
ATOM     19  C   UNL     1       4.655   5.423  17.755  0.00  0.00    +0.000 C 
BRANCH  19  20
ATOM     20  C   UNL     1       6.116   5.710  18.134  0.00  0.00    +0.000 C 
BRANCH  20  21
ATOM     21  O   UNL     1       6.437   5.043  19.360  0.00  0.00    +0.000 OA
ATOM     22  H   UNL     1       6.304   5.662  20.099  0.00  0.00    +0.000 HD
ENDBRANCH  20  21
BRANCH  20  23
ATOM     23  C   UNL     1       7.074   5.264  17.034  0.00  0.00    +0.000 C 
BRANCH  23  24
ATOM     24  O   UNL     1       6.759   5.981  15.829  0.00  0.00    +0.000 OA
BRANCH  24  25
ATOM     25  C   UNL     1       6.658   5.178  14.726  0.00  0.00    +0.000 A 
ATOM     26  C   UNL     1       7.590   5.202  13.685  0.00  0.00    +0.000 A 
ATOM     27  C   UNL     1       7.406   4.396  12.564  0.00  0.00    +0.000 A 
ATOM     28  C   UNL     1       6.304   3.568  12.496  0.00  0.00    +0.000 A 
ATOM     29  F   UNL     1       6.115   2.828  11.401  0.00  0.00    +0.000 F 
ATOM     30  C   UNL     1       5.390   3.499  13.543  0.00  0.00    +0.000 A 
ATOM     31  C   UNL     1       5.579   4.295  14.673  0.00  0.00    +0.000 A 
ENDBRANCH  24  25
ENDBRANCH  23  24
ENDBRANCH  20  23
ENDBRANCH  19  20
ENDBRANCH   7  19
TORSDOF 7
ENDMDL
MODEL 9
REMARK VINA RESULT:      -7.6      3.568      8.467
REMARK  Name = 
REMARK  9 active torsions:
REMARK  status: ('A' for Active; 'I' for Inactive)
REMARK    1  A    between atoms: C_1  and  C_2
REMARK    2  A    between atoms: C_4  and  C_5
REMARK    3  A    between atoms: C_7  and  N_8
REMARK    4  A    between atoms: N_14  and  C_15
REMARK    5  A    between atoms: C_15  and  C_16
REMARK    6  A    between atoms: C_16  and  O_17
REMARK    7  A    between atoms: C_16  and  C_18
REMARK    8  A    between atoms: C_18  and  O_19
REMARK    9  A    between atoms: O_19  and  C_20
REMARK                            x       y       z     vdW  Elec       q    Type
REMARK                         _______ _______ _______ _____ _____    ______ ____
ROOT
ATOM      1  N   UNL     1       1.028   9.128  19.727  0.00  0.00    +0.000 N 
ATOM      2  N   UNL     1       0.725   8.686  20.989  0.00  0.00    +0.000 NA
ATOM      3  C   UNL     1       1.359   7.515  21.100  0.00  0.00    +0.000 A 
ATOM      4  C   UNL     1       2.114   7.213  19.966  0.00  0.00    +0.000 A 
ATOM      5  C   UNL     1       3.023   6.161  19.602  0.00  0.00    +0.000 A 
ATOM      6  O   UNL     1       3.247   5.202  20.322  0.00  0.00    +0.000 OA
ATOM      7  N   UNL     1       3.642   6.372  18.357  0.00  0.00    +0.000 N 
ATOM      8  C   UNL     1       3.320   7.471  17.577  0.00  0.00    +0.000 A 
ATOM      9  N   UNL     1       2.461   8.393  17.875  0.00  0.00    +0.000 NA
ATOM     10  C   UNL     1       1.893   8.244  19.094  0.00  0.00    +0.000 A 
ENDROOT
BRANCH   1  17
ATOM     11  C   UNL     1      -2.593  11.545  17.345  0.00  0.00    +0.000 C 
ATOM     12  C   UNL     1      -1.267  11.558  18.045  0.00  0.00    +0.000 A 
ATOM     13  C   UNL     1      -0.574  12.749  18.268  0.00  0.00    +0.000 A 
ATOM     14  C   UNL     1       0.642  12.755  18.965  0.00  0.00    +0.000 A 
ATOM     15  C   UNL     1       1.404  14.031  19.163  0.00  0.00    +0.000 C 
ATOM     16  C   UNL     1       1.153  11.552  19.467  0.00  0.00    +0.000 A 
ATOM     17  C   UNL     1       0.483  10.346  19.228  0.00  0.00    +0.000 A 
ATOM     18  C   UNL     1      -0.720  10.360  18.508  0.00  0.00    +0.000 A 
ENDBRANCH   1  17
BRANCH   7  19
ATOM     19  C   UNL     1       4.660   5.397  17.966  0.00  0.00    +0.000 C 
BRANCH  19  20
ATOM     20  C   UNL     1       6.123   5.853  18.081  0.00  0.00    +0.000 C 
BRANCH  20  21
ATOM     21  O   UNL     1       6.929   4.771  18.560  0.00  0.00    +0.000 OA
ATOM     22  H   UNL     1       6.387   3.962  18.588  0.00  0.00    +0.000 HD
ENDBRANCH  20  21
BRANCH  20  23
ATOM     23  C   UNL     1       6.659   6.346  16.741  0.00  0.00    +0.000 C 
BRANCH  23  24
ATOM     24  O   UNL     1       7.478   5.318  16.164  0.00  0.00    +0.000 OA
BRANCH  24  25
ATOM     25  C   UNL     1       6.971   4.802  15.002  0.00  0.00    +0.000 A 
ATOM     26  C   UNL     1       5.799   4.043  14.959  0.00  0.00    +0.000 A 
ATOM     27  C   UNL     1       5.361   3.504  13.751  0.00  0.00    +0.000 A 
ATOM     28  C   UNL     1       6.086   3.735  12.600  0.00  0.00    +0.000 A 
ATOM     29  F   UNL     1       5.680   3.182  11.455  0.00  0.00    +0.000 F 
ATOM     30  C   UNL     1       7.232   4.525  12.618  0.00  0.00    +0.000 A 
ATOM     31  C   UNL     1       7.665   5.078  13.823  0.00  0.00    +0.000 A 
ENDBRANCH  24  25
ENDBRANCH  23  24
ENDBRANCH  20  23
ENDBRANCH  19  20
ENDBRANCH   7  19
TORSDOF 7
ENDMDL
