MODEL 1
REMARK VINA RESULT:      -8.8      0.000      0.000
REMARK  Name = 
REMARK  5 active torsions:
REMARK  status: ('A' for Active; 'I' for Inactive)
REMARK    1  A    between atoms: C_2  and  C_3
REMARK    2  A    between atoms: C_3  and  O_4
REMARK    3  A    between atoms: O_4  and  C_5
REMARK    4  A    between atoms: C_5  and  C_7
REMARK    5  A    between atoms: N_20  and  C_21
REMARK                            x       y       z     vdW  Elec       q    Type
REMARK                         _______ _______ _______ _____ _____    ______ ____
ROOT
ATOM      1  C   UNL     1       2.486   7.056  18.721  0.00  0.00    +0.000 C 
ATOM      2  O   UNL     1       2.605   7.467  19.867  0.00  0.00    +0.000 OA
ENDROOT
BRANCH   1   3
ATOM      3  C   UNL     1       2.931   5.724  18.231  0.00  0.00    +0.000 A 
ATOM      4  C   UNL     1       3.956   5.628  17.291  0.00  0.00    +0.000 A 
ATOM      5  C   UNL     1       4.375   4.372  16.908  0.00  0.00    +0.000 A 
ATOM      6  N   UNL     1       3.877   3.223  17.384  0.00  0.00    +0.000 NA
ATOM      7  C   UNL     1       2.904   3.303  18.304  0.00  0.00    +0.000 A 
ATOM      8  C   UNL     1       2.427   2.109  18.830  0.00  0.00    +0.000 A 
ATOM      9  C   UNL     1       1.436   2.073  19.811  0.00  0.00    +0.000 A 
ATOM     10  C   UNL     1       0.879   3.256  20.262  0.00  0.00    +0.000 A 
ATOM     11  C   UNL     1       1.327   4.468  19.739  0.00  0.00    +0.000 A 
ATOM     12  C   UNL     1       2.368   4.530  18.771  0.00  0.00    +0.000 A 
ATOM     13  C   UNL     1       5.513   4.413  15.936  0.00  0.00    +0.000 C 
ATOM     14  C   UNL     1       5.773   5.911  15.762  0.00  0.00    +0.000 C 
ATOM     15  C   UNL     1       4.769   6.690  16.625  0.00  0.00    +0.000 C 
ENDBRANCH   1   3
BRANCH   1  16
ATOM     16  O   UNL     1       1.866   7.742  17.736  0.00  0.00    +0.000 OA
BRANCH  16  17
ATOM     17  C   UNL     1       1.959   9.163  17.830  0.00  0.00    +0.000 C 
BRANCH  17  19
ATOM     18  O   UNL     1      -0.268   9.991  18.118  0.00  0.00    +0.000 OA
ATOM     19  C   UNL     1       0.821   9.774  18.645  0.00  0.00    +0.000 C 
ATOM     20  N   UNL     1       1.163  10.084  19.949  0.00  0.00    +0.000 N 
ATOM     21  H   UNL     1       2.156  10.055  20.192  0.00  0.00    +0.000 HD
BRANCH  20  22
ATOM     22  C   UNL     1       0.302  10.633  20.925  0.00  0.00    +0.000 A 
ATOM     23  C   UNL     1      -0.152  11.953  20.896  0.00  0.00    +0.000 A 
ATOM     24  C   UNL     1      -0.935  12.440  21.939  0.00  0.00    +0.000 A 
ATOM     25  F   UNL     1      -1.347  13.715  21.910  0.00  0.00    +0.000 F 
ATOM     26  C   UNL     1      -1.292  11.633  23.014  0.00  0.00    +0.000 A 
ATOM     27  C   UNL     1      -0.888  10.301  23.031  0.00  0.00    +0.000 A 
ATOM     28  C   UNL     1      -0.108   9.809  21.984  0.00  0.00    +0.000 A 
ATOM     29  F   UNL     1       0.277   8.523  22.013  0.00  0.00    +0.000 F 
ENDBRANCH  20  22
ENDBRANCH  17  19
ENDBRANCH  16  17
ENDBRANCH   1  16
TORSDOF 5
ENDMDL
MODEL 2
REMARK VINA RESULT:      -8.8      0.349      3.122
REMARK  Name = 
REMARK  5 active torsions:
REMARK  status: ('A' for Active; 'I' for Inactive)
REMARK    1  A    between atoms: C_2  and  C_3
REMARK    2  A    between atoms: C_3  and  O_4
REMARK    3  A    between atoms: O_4  and  C_5
REMARK    4  A    between atoms: C_5  and  C_7
REMARK    5  A    between atoms: N_20  and  C_21
REMARK                            x       y       z     vdW  Elec       q    Type
REMARK                         _______ _______ _______ _____ _____    ______ ____
ROOT
ATOM      1  C   UNL     1       2.366   7.046  18.921  0.00  0.00    +0.000 C 
ATOM      2  O   UNL     1       2.459   7.489  20.057  0.00  0.00    +0.000 OA
ENDROOT
BRANCH   1   3
ATOM      3  C   UNL     1       2.828   5.704  18.476  0.00  0.00    +0.000 A 
ATOM      4  C   UNL     1       2.242   4.550  18.996  0.00  0.00    +0.000 A 
ATOM      5  C   UNL     1       2.662   3.330  18.513  0.00  0.00    +0.000 A 
ATOM      6  N   UNL     1       3.593   3.164  17.563  0.00  0.00    +0.000 NA
ATOM      7  C   UNL     1       4.149   4.268  17.042  0.00  0.00    +0.000 A 
ATOM      8  C   UNL     1       5.076   4.090  16.022  0.00  0.00    +0.000 A 
ATOM      9  C   UNL     1       5.699   5.166  15.389  0.00  0.00    +0.000 A 
ATOM     10  C   UNL     1       5.416   6.457  15.800  0.00  0.00    +0.000 A 
ATOM     11  C   UNL     1       4.502   6.663  16.832  0.00  0.00    +0.000 A 
ATOM     12  C   UNL     1       3.823   5.582  17.461  0.00  0.00    +0.000 A 
ATOM     13  C   UNL     1       1.916   2.181  19.116  0.00  0.00    +0.000 C 
ATOM     14  C   UNL     1       0.928   2.864  20.065  0.00  0.00    +0.000 C 
ATOM     15  C   UNL     1       1.142   4.383  19.993  0.00  0.00    +0.000 C 
ENDBRANCH   1   3
BRANCH   1  16
ATOM     16  O   UNL     1       1.763   7.701  17.904  0.00  0.00    +0.000 OA
BRANCH  16  17
ATOM     17  C   UNL     1       1.892   9.123  17.933  0.00  0.00    +0.000 C 
BRANCH  17  19
ATOM     18  O   UNL     1      -0.308  10.028  18.195  0.00  0.00    +0.000 OA
ATOM     19  C   UNL     1       0.776   9.799  18.727  0.00  0.00    +0.000 C 
ATOM     20  N   UNL     1       1.133  10.147  20.017  0.00  0.00    +0.000 N 
ATOM     21  H   UNL     1       2.125  10.098  20.259  0.00  0.00    +0.000 HD
BRANCH  20  22
ATOM     22  C   UNL     1       0.292  10.760  20.974  0.00  0.00    +0.000 A 
ATOM     23  C   UNL     1      -0.024  12.119  20.963  0.00  0.00    +0.000 A 
ATOM     24  C   UNL     1      -0.796  12.660  21.988  0.00  0.00    +0.000 A 
ATOM     25  F   UNL     1      -1.076  13.970  21.978  0.00  0.00    +0.000 F 
ATOM     26  C   UNL     1      -1.277  11.869  23.027  0.00  0.00    +0.000 A 
ATOM     27  C   UNL     1      -1.010  10.502  23.023  0.00  0.00    +0.000 A 
ATOM     28  C   UNL     1      -0.242   9.957  21.994  0.00  0.00    +0.000 A 
ATOM     29  F   UNL     1       0.010   8.639  22.003  0.00  0.00    +0.000 F 
ENDBRANCH  20  22
ENDBRANCH  17  19
ENDBRANCH  16  17
ENDBRANCH   1  16
TORSDOF 5
ENDMDL
MODEL 3
REMARK VINA RESULT:      -8.7      2.410      4.158
REMARK  Name = 
REMARK  5 active torsions:
REMARK  status: ('A' for Active; 'I' for Inactive)
REMARK    1  A    between atoms: C_2  and  C_3
REMARK    2  A    between atoms: C_3  and  O_4
REMARK    3  A    between atoms: O_4  and  C_5
REMARK    4  A    between atoms: C_5  and  C_7
REMARK    5  A    between atoms: N_20  and  C_21
REMARK                            x       y       z     vdW  Elec       q    Type
REMARK                         _______ _______ _______ _____ _____    ______ ____
ROOT
ATOM      1  C   UNL     1       2.432   7.007  18.912  0.00  0.00    +0.000 C 
ATOM      2  O   UNL     1       2.557   7.433  20.052  0.00  0.00    +0.000 OA
ENDROOT
BRANCH   1   3
ATOM      3  C   UNL     1       2.874   5.669  18.437  0.00  0.00    +0.000 A 
ATOM      4  C   UNL     1       2.256   4.514  18.914  0.00  0.00    +0.000 A 
ATOM      5  C   UNL     1       2.658   3.299  18.404  0.00  0.00    +0.000 A 
ATOM      6  N   UNL     1       3.601   3.140  17.465  0.00  0.00    +0.000 NA
ATOM      7  C   UNL     1       4.189   4.246  16.984  0.00  0.00    +0.000 A 
ATOM      8  C   UNL     1       5.128   4.077  15.975  0.00  0.00    +0.000 A 
ATOM      9  C   UNL     1       5.784   5.157  15.382  0.00  0.00    +0.000 A 
ATOM     10  C   UNL     1       5.521   6.441  15.825  0.00  0.00    +0.000 A 
ATOM     11  C   UNL     1       4.594   6.638  16.848  0.00  0.00    +0.000 A 
ATOM     12  C   UNL     1       3.883   5.554  17.435  0.00  0.00    +0.000 A 
ATOM     13  C   UNL     1       1.879   2.149  18.963  0.00  0.00    +0.000 C 
ATOM     14  C   UNL     1       0.889   2.826  19.914  0.00  0.00    +0.000 C 
ATOM     15  C   UNL     1       1.136   4.341  19.889  0.00  0.00    +0.000 C 
ENDBRANCH   1   3
BRANCH   1  16
ATOM     16  O   UNL     1       1.808   7.681  17.921  0.00  0.00    +0.000 OA
BRANCH  16  17
ATOM     17  C   UNL     1       1.868   9.104  18.018  0.00  0.00    +0.000 C 
BRANCH  17  19
ATOM     18  O   UNL     1       0.407   9.863  19.754  0.00  0.00    +0.000 OA
ATOM     19  C   UNL     1       0.571   9.713  18.546  0.00  0.00    +0.000 C 
ATOM     20  N   UNL     1      -0.356  10.005  17.562  0.00  0.00    +0.000 N 
ATOM     21  H   UNL     1      -0.181   9.631  16.627  0.00  0.00    +0.000 HD
BRANCH  20  22
ATOM     22  C   UNL     1      -1.625  10.595  17.766  0.00  0.00    +0.000 A 
ATOM     23  C   UNL     1      -1.895  11.503  18.791  0.00  0.00    +0.000 A 
ATOM     24  C   UNL     1      -3.191  11.978  18.972  0.00  0.00    +0.000 A 
ATOM     25  F   UNL     1      -3.443  12.833  19.972  0.00  0.00    +0.000 F 
ATOM     26  C   UNL     1      -4.232  11.577  18.141  0.00  0.00    +0.000 A 
ATOM     27  C   UNL     1      -3.966  10.711  17.084  0.00  0.00    +0.000 A 
ATOM     28  C   UNL     1      -2.666  10.238  16.896  0.00  0.00    +0.000 A 
ATOM     29  F   UNL     1      -2.423   9.401  15.875  0.00  0.00    +0.000 F 
ENDBRANCH  20  22
ENDBRANCH  17  19
ENDBRANCH  16  17
ENDBRANCH   1  16
TORSDOF 5
ENDMDL
MODEL 4
REMARK VINA RESULT:      -8.7      2.381      2.740
REMARK  Name = 
REMARK  5 active torsions:
REMARK  status: ('A' for Active; 'I' for Inactive)
REMARK    1  A    between atoms: C_2  and  C_3
REMARK    2  A    between atoms: C_3  and  O_4
REMARK    3  A    between atoms: O_4  and  C_5
REMARK    4  A    between atoms: C_5  and  C_7
REMARK    5  A    between atoms: N_20  and  C_21
REMARK                            x       y       z     vdW  Elec       q    Type
REMARK                         _______ _______ _______ _____ _____    ______ ____
ROOT
ATOM      1  C   UNL     1       2.564   6.931  18.807  0.00  0.00    +0.000 C 
ATOM      2  O   UNL     1       2.591   7.218  19.996  0.00  0.00    +0.000 OA
ENDROOT
BRANCH   1   3
ATOM      3  C   UNL     1       3.119   5.689  18.205  0.00  0.00    +0.000 A 
ATOM      4  C   UNL     1       4.287   5.738  17.445  0.00  0.00    +0.000 A 
ATOM      5  C   UNL     1       4.797   4.555  16.955  0.00  0.00    +0.000 A 
ATOM      6  N   UNL     1       4.259   3.346  17.165  0.00  0.00    +0.000 NA
ATOM      7  C   UNL     1       3.146   3.285  17.912  0.00  0.00    +0.000 A 
ATOM      8  C   UNL     1       2.622   2.025  18.169  0.00  0.00    +0.000 A 
ATOM      9  C   UNL     1       1.484   1.839  18.955  0.00  0.00    +0.000 A 
ATOM     10  C   UNL     1       0.829   2.940  19.478  0.00  0.00    +0.000 A 
ATOM     11  C   UNL     1       1.324   4.218  19.223  0.00  0.00    +0.000 A 
ATOM     12  C   UNL     1       2.508   4.427  18.461  0.00  0.00    +0.000 A 
ATOM     13  C   UNL     1       6.077   4.744  16.202  0.00  0.00    +0.000 C 
ATOM     14  C   UNL     1       6.322   6.252  16.298  0.00  0.00    +0.000 C 
ATOM     15  C   UNL     1       5.169   6.890  17.089  0.00  0.00    +0.000 C 
ENDBRANCH   1   3
BRANCH   1  16
ATOM     16  O   UNL     1       1.961   7.687  17.863  0.00  0.00    +0.000 OA
BRANCH  16  17
ATOM     17  C   UNL     1       1.979   9.094  18.105  0.00  0.00    +0.000 C 
BRANCH  17  19
ATOM     18  O   UNL     1       0.402   9.630  19.824  0.00  0.00    +0.000 OA
ATOM     19  C   UNL     1       0.640   9.620  18.618  0.00  0.00    +0.000 C 
ATOM     20  N   UNL     1      -0.234  10.007  17.618  0.00  0.00    +0.000 N 
ATOM     21  H   UNL     1       0.004   9.744  16.660  0.00  0.00    +0.000 HD
BRANCH  20  22
ATOM     22  C   UNL     1      -1.525  10.551  17.810  0.00  0.00    +0.000 A 
ATOM     23  C   UNL     1      -1.830  11.476  18.810  0.00  0.00    +0.000 A 
ATOM     24  C   UNL     1      -3.144  11.903  18.982  0.00  0.00    +0.000 A 
ATOM     25  F   UNL     1      -3.428  12.774  19.959  0.00  0.00    +0.000 F 
ATOM     26  C   UNL     1      -4.169  11.438  18.165  0.00  0.00    +0.000 A 
ATOM     27  C   UNL     1      -3.870  10.554  17.131  0.00  0.00    +0.000 A 
ATOM     28  C   UNL     1      -2.553  10.129  16.953  0.00  0.00    +0.000 A 
ATOM     29  F   UNL     1      -2.278   9.275  15.955  0.00  0.00    +0.000 F 
ENDBRANCH  20  22
ENDBRANCH  17  19
ENDBRANCH  16  17
ENDBRANCH   1  16
TORSDOF 5
ENDMDL
MODEL 5
REMARK VINA RESULT:      -8.6      1.031      3.467
REMARK  Name = 
REMARK  5 active torsions:
REMARK  status: ('A' for Active; 'I' for Inactive)
REMARK    1  A    between atoms: C_2  and  C_3
REMARK    2  A    between atoms: C_3  and  O_4
REMARK    3  A    between atoms: O_4  and  C_5
REMARK    4  A    between atoms: C_5  and  C_7
REMARK    5  A    between atoms: N_20  and  C_21
REMARK                            x       y       z     vdW  Elec       q    Type
REMARK                         _______ _______ _______ _____ _____    ______ ____
ROOT
ATOM      1  C   UNL     1       2.379   6.965  18.914  0.00  0.00    +0.000 C 
ATOM      2  O   UNL     1       2.548   7.435  20.031  0.00  0.00    +0.000 OA
ENDROOT
BRANCH   1   3
ATOM      3  C   UNL     1       2.836   5.622  18.465  0.00  0.00    +0.000 A 
ATOM      4  C   UNL     1       2.234   4.470  18.970  0.00  0.00    +0.000 A 
ATOM      5  C   UNL     1       2.650   3.250  18.483  0.00  0.00    +0.000 A 
ATOM      6  N   UNL     1       3.590   3.083  17.542  0.00  0.00    +0.000 NA
ATOM      7  C   UNL     1       4.162   4.185  17.035  0.00  0.00    +0.000 A 
ATOM      8  C   UNL     1       5.098   4.008  16.025  0.00  0.00    +0.000 A 
ATOM      9  C   UNL     1       5.737   5.083  15.407  0.00  0.00    +0.000 A 
ATOM     10  C   UNL     1       5.460   6.373  15.824  0.00  0.00    +0.000 A 
ATOM     11  C   UNL     1       4.536   6.579  16.847  0.00  0.00    +0.000 A 
ATOM     12  C   UNL     1       3.841   5.499  17.461  0.00  0.00    +0.000 A 
ATOM     13  C   UNL     1       1.887   2.102  19.069  0.00  0.00    +0.000 C 
ATOM     14  C   UNL     1       0.894   2.786  20.011  0.00  0.00    +0.000 C 
ATOM     15  C   UNL     1       1.122   4.304  19.953  0.00  0.00    +0.000 C 
ENDBRANCH   1   3
BRANCH   1  16
ATOM     16  O   UNL     1       1.688   7.584  17.932  0.00  0.00    +0.000 OA
BRANCH  16  17
ATOM     17  C   UNL     1       1.901   8.992  17.831  0.00  0.00    +0.000 C 
BRANCH  17  19
ATOM     18  O   UNL     1      -0.212  10.074  18.131  0.00  0.00    +0.000 OA
ATOM     19  C   UNL     1       0.879   9.801  18.626  0.00  0.00    +0.000 C 
ATOM     20  N   UNL     1       1.326  10.208  19.870  0.00  0.00    +0.000 N 
ATOM     21  H   UNL     1       2.323  10.101  20.068  0.00  0.00    +0.000 HD
BRANCH  20  22
ATOM     22  C   UNL     1       0.581  10.944  20.820  0.00  0.00    +0.000 A 
ATOM     23  C   UNL     1      -0.213  10.351  21.803  0.00  0.00    +0.000 A 
ATOM     24  C   UNL     1      -0.978  11.148  22.650  0.00  0.00    +0.000 A 
ATOM     25  F   UNL     1      -1.752  10.567  23.576  0.00  0.00    +0.000 F 
ATOM     26  C   UNL     1      -0.962  12.535  22.550  0.00  0.00    +0.000 A 
ATOM     27  C   UNL     1      -0.136  13.141  21.606  0.00  0.00    +0.000 A 
ATOM     28  C   UNL     1       0.637  12.345  20.760  0.00  0.00    +0.000 A 
ATOM     29  F   UNL     1       1.426  12.941  19.853  0.00  0.00    +0.000 F 
ENDBRANCH  20  22
ENDBRANCH  17  19
ENDBRANCH  16  17
ENDBRANCH   1  16
TORSDOF 5
ENDMDL
MODEL 6
REMARK VINA RESULT:      -8.5      0.929      1.549
REMARK  Name = 
REMARK  5 active torsions:
REMARK  status: ('A' for Active; 'I' for Inactive)
REMARK    1  A    between atoms: C_2  and  C_3
REMARK    2  A    between atoms: C_3  and  O_4
REMARK    3  A    between atoms: O_4  and  C_5
REMARK    4  A    between atoms: C_5  and  C_7
REMARK    5  A    between atoms: N_20  and  C_21
REMARK                            x       y       z     vdW  Elec       q    Type
REMARK                         _______ _______ _______ _____ _____    ______ ____
ROOT
ATOM      1  C   UNL     1       2.435   7.073  18.751  0.00  0.00    +0.000 C 
ATOM      2  O   UNL     1       2.533   7.511  19.890  0.00  0.00    +0.000 OA
ENDROOT
BRANCH   1   3
ATOM      3  C   UNL     1       2.886   5.730  18.301  0.00  0.00    +0.000 A 
ATOM      4  C   UNL     1       3.896   5.611  17.346  0.00  0.00    +0.000 A 
ATOM      5  C   UNL     1       4.323   4.347  17.000  0.00  0.00    +0.000 A 
ATOM      6  N   UNL     1       3.845   3.210  17.525  0.00  0.00    +0.000 NA
ATOM      7  C   UNL     1       2.887   3.313  18.458  0.00  0.00    +0.000 A 
ATOM      8  C   UNL     1       2.433   2.133  19.034  0.00  0.00    +0.000 A 
ATOM      9  C   UNL     1       1.458   2.121  20.033  0.00  0.00    +0.000 A 
ATOM     10  C   UNL     1       0.896   3.314  20.451  0.00  0.00    +0.000 A 
ATOM     11  C   UNL     1       1.322   4.511  19.879  0.00  0.00    +0.000 A 
ATOM     12  C   UNL     1       2.346   4.550  18.891  0.00  0.00    +0.000 A 
ATOM     13  C   UNL     1       5.443   4.366  16.008  0.00  0.00    +0.000 C 
ATOM     14  C   UNL     1       5.683   5.860  15.777  0.00  0.00    +0.000 C 
ATOM     15  C   UNL     1       4.686   6.658  16.630  0.00  0.00    +0.000 C 
ENDBRANCH   1   3
BRANCH   1  16
ATOM     16  O   UNL     1       1.835   7.737  17.739  0.00  0.00    +0.000 OA
BRANCH  16  17
ATOM     17  C   UNL     1       2.000   9.155  17.757  0.00  0.00    +0.000 C 
BRANCH  17  19
ATOM     18  O   UNL     1      -0.215  10.017  18.039  0.00  0.00    +0.000 OA
ATOM     19  C   UNL     1       0.898   9.866  18.539  0.00  0.00    +0.000 C 
ATOM     20  N   UNL     1       1.298  10.334  19.778  0.00  0.00    +0.000 N 
ATOM     21  H   UNL     1       2.300  10.334  19.978  0.00  0.00    +0.000 HD
BRANCH  20  22
ATOM     22  C   UNL     1       0.479  11.004  20.716  0.00  0.00    +0.000 A 
ATOM     23  C   UNL     1      -0.147  10.363  21.786  0.00  0.00    +0.000 A 
ATOM     24  C   UNL     1      -1.002  11.079  22.619  0.00  0.00    +0.000 A 
ATOM     25  F   UNL     1      -1.614  10.449  23.631  0.00  0.00    +0.000 F 
ATOM     26  C   UNL     1      -1.241  12.435  22.419  0.00  0.00    +0.000 A 
ATOM     27  C   UNL     1      -0.583  13.097  21.385  0.00  0.00    +0.000 A 
ATOM     28  C   UNL     1       0.279  12.383  20.553  0.00  0.00    +0.000 A 
ATOM     29  F   UNL     1       0.904  13.032  19.558  0.00  0.00    +0.000 F 
ENDBRANCH  20  22
ENDBRANCH  17  19
ENDBRANCH  16  17
ENDBRANCH   1  16
TORSDOF 5
ENDMDL
MODEL 7
REMARK VINA RESULT:      -8.2      1.409      3.532
REMARK  Name = 
REMARK  5 active torsions:
REMARK  status: ('A' for Active; 'I' for Inactive)
REMARK    1  A    between atoms: C_2  and  C_3
REMARK    2  A    between atoms: C_3  and  O_4
REMARK    3  A    between atoms: O_4  and  C_5
REMARK    4  A    between atoms: C_5  and  C_7
REMARK    5  A    between atoms: N_20  and  C_21
REMARK                            x       y       z     vdW  Elec       q    Type
REMARK                         _______ _______ _______ _____ _____    ______ ____
ROOT
ATOM      1  C   UNL     1       2.390   6.995  19.011  0.00  0.00    +0.000 C 
ATOM      2  O   UNL     1       2.592   7.444  20.130  0.00  0.00    +0.000 OA
ENDROOT
BRANCH   1   3
ATOM      3  C   UNL     1       2.817   5.655  18.527  0.00  0.00    +0.000 A 
ATOM      4  C   UNL     1       2.194   4.503  19.006  0.00  0.00    +0.000 A 
ATOM      5  C   UNL     1       2.583   3.287  18.489  0.00  0.00    +0.000 A 
ATOM      6  N   UNL     1       3.516   3.124  17.540  0.00  0.00    +0.000 NA
ATOM      7  C   UNL     1       4.108   4.226  17.058  0.00  0.00    +0.000 A 
ATOM      8  C   UNL     1       5.037   4.054  16.040  0.00  0.00    +0.000 A 
ATOM      9  C   UNL     1       5.696   5.131  15.445  0.00  0.00    +0.000 A 
ATOM     10  C   UNL     1       5.447   6.416  15.894  0.00  0.00    +0.000 A 
ATOM     11  C   UNL     1       4.530   6.616  16.926  0.00  0.00    +0.000 A 
ATOM     12  C   UNL     1       3.816   5.536  17.516  0.00  0.00    +0.000 A 
ATOM     13  C   UNL     1       1.800   2.141  19.050  0.00  0.00    +0.000 C 
ATOM     14  C   UNL     1       0.824   2.822  20.013  0.00  0.00    +0.000 C 
ATOM     15  C   UNL     1       1.082   4.336  19.990  0.00  0.00    +0.000 C 
ENDBRANCH   1   3
BRANCH   1  16
ATOM     16  O   UNL     1       1.682   7.640  18.057  0.00  0.00    +0.000 OA
BRANCH  16  17
ATOM     17  C   UNL     1       2.216   8.899  17.647  0.00  0.00    +0.000 C 
BRANCH  17  19
ATOM     18  O   UNL     1       2.064  11.198  18.294  0.00  0.00    +0.000 OA
ATOM     19  C   UNL     1       1.566  10.077  18.369  0.00  0.00    +0.000 C 
ATOM     20  N   UNL     1       0.452   9.737  19.115  0.00  0.00    +0.000 N 
ATOM     21  H   UNL     1       0.275   8.742  19.266  0.00  0.00    +0.000 HD
BRANCH  20  22
ATOM     22  C   UNL     1      -0.353  10.630  19.859  0.00  0.00    +0.000 A 
ATOM     23  C   UNL     1      -0.210  10.833  21.232  0.00  0.00    +0.000 A 
ATOM     24  C   UNL     1      -1.095  11.670  21.905  0.00  0.00    +0.000 A 
ATOM     25  F   UNL     1      -0.961  11.841  23.227  0.00  0.00    +0.000 F 
ATOM     26  C   UNL     1      -2.121  12.328  21.235  0.00  0.00    +0.000 A 
ATOM     27  C   UNL     1      -2.244  12.173  19.857  0.00  0.00    +0.000 A 
ATOM     28  C   UNL     1      -1.355  11.339  19.179  0.00  0.00    +0.000 A 
ATOM     29  F   UNL     1      -1.485  11.197  17.851  0.00  0.00    +0.000 F 
ENDBRANCH  20  22
ENDBRANCH  17  19
ENDBRANCH  16  17
ENDBRANCH   1  16
TORSDOF 5
ENDMDL
MODEL 8
REMARK VINA RESULT:      -8.2      2.202      2.613
REMARK  Name = 
REMARK  5 active torsions:
REMARK  status: ('A' for Active; 'I' for Inactive)
REMARK    1  A    between atoms: C_2  and  C_3
REMARK    2  A    between atoms: C_3  and  O_4
REMARK    3  A    between atoms: O_4  and  C_5
REMARK    4  A    between atoms: C_5  and  C_7
REMARK    5  A    between atoms: N_20  and  C_21
REMARK                            x       y       z     vdW  Elec       q    Type
REMARK                         _______ _______ _______ _____ _____    ______ ____
ROOT
ATOM      1  C   UNL     1       2.736   6.903  18.632  0.00  0.00    +0.000 C 
ATOM      2  O   UNL     1       2.941   7.254  19.785  0.00  0.00    +0.000 OA
ENDROOT
BRANCH   1   3
ATOM      3  C   UNL     1       3.131   5.595  18.043  0.00  0.00    +0.000 A 
ATOM      4  C   UNL     1       4.185   5.523  17.134  0.00  0.00    +0.000 A 
ATOM      5  C   UNL     1       4.554   4.284  16.658  0.00  0.00    +0.000 A 
ATOM      6  N   UNL     1       3.979   3.127  17.015  0.00  0.00    +0.000 NA
ATOM      7  C   UNL     1       2.976   3.182  17.905  0.00  0.00    +0.000 A 
ATOM      8  C   UNL     1       2.419   1.976  18.309  0.00  0.00    +0.000 A 
ATOM      9  C   UNL     1       1.389   1.911  19.249  0.00  0.00    +0.000 A 
ATOM     10  C   UNL     1       0.877   3.080  19.781  0.00  0.00    +0.000 A 
ATOM     11  C   UNL     1       1.407   4.306  19.381  0.00  0.00    +0.000 A 
ATOM     12  C   UNL     1       2.486   4.392  18.458  0.00  0.00    +0.000 A 
ATOM     13  C   UNL     1       5.729   4.344  15.733  0.00  0.00    +0.000 C 
ATOM     14  C   UNL     1       6.072   5.836  15.698  0.00  0.00    +0.000 C 
ATOM     15  C   UNL     1       5.077   6.592  16.591  0.00  0.00    +0.000 C 
ENDBRANCH   1   3
BRANCH   1  16
ATOM     16  O   UNL     1       2.055   7.643  17.729  0.00  0.00    +0.000 OA
BRANCH  16  17
ATOM     17  C   UNL     1       2.075   9.053  17.956  0.00  0.00    +0.000 C 
BRANCH  17  19
ATOM     18  O   UNL     1       0.659   9.394  19.855  0.00  0.00    +0.000 OA
ATOM     19  C   UNL     1       0.808   9.555  18.646  0.00  0.00    +0.000 C 
ATOM     20  N   UNL     1      -0.113  10.128  17.787  0.00  0.00    +0.000 N 
ATOM     21  H   UNL     1       0.040  10.001  16.784  0.00  0.00    +0.000 HD
BRANCH  20  22
ATOM     22  C   UNL     1      -1.353  10.695  18.158  0.00  0.00    +0.000 A 
ATOM     23  C   UNL     1      -2.587  10.171  17.766  0.00  0.00    +0.000 A 
ATOM     24  C   UNL     1      -3.761  10.835  18.108  0.00  0.00    +0.000 A 
ATOM     25  F   UNL     1      -4.938  10.335  17.709  0.00  0.00    +0.000 F 
ATOM     26  C   UNL     1      -3.739  12.012  18.850  0.00  0.00    +0.000 A 
ATOM     27  C   UNL     1      -2.518  12.517  19.290  0.00  0.00    +0.000 A 
ATOM     28  C   UNL     1      -1.339  11.850  18.954  0.00  0.00    +0.000 A 
ATOM     29  F   UNL     1      -0.169  12.349  19.382  0.00  0.00    +0.000 F 
ENDBRANCH  20  22
ENDBRANCH  17  19
ENDBRANCH  16  17
ENDBRANCH   1  16
TORSDOF 5
ENDMDL
MODEL 9
REMARK VINA RESULT:      -8.2      1.459      1.716
REMARK  Name = 
REMARK  5 active torsions:
REMARK  status: ('A' for Active; 'I' for Inactive)
REMARK    1  A    between atoms: C_2  and  C_3
REMARK    2  A    between atoms: C_3  and  O_4
REMARK    3  A    between atoms: O_4  and  C_5
REMARK    4  A    between atoms: C_5  and  C_7
REMARK    5  A    between atoms: N_20  and  C_21
REMARK                            x       y       z     vdW  Elec       q    Type
REMARK                         _______ _______ _______ _____ _____    ______ ____
ROOT
ATOM      1  C   UNL     1       2.548   6.914  18.850  0.00  0.00    +0.000 C 
ATOM      2  O   UNL     1       2.633   7.226  20.030  0.00  0.00    +0.000 OA
ENDROOT
BRANCH   1   3
ATOM      3  C   UNL     1       3.103   5.676  18.241  0.00  0.00    +0.000 A 
ATOM      4  C   UNL     1       4.291   5.723  17.512  0.00  0.00    +0.000 A 
ATOM      5  C   UNL     1       4.798   4.542  17.015  0.00  0.00    +0.000 A 
ATOM      6  N   UNL     1       4.239   3.337  17.190  0.00  0.00    +0.000 NA
ATOM      7  C   UNL     1       3.107   3.277  17.906  0.00  0.00    +0.000 A 
ATOM      8  C   UNL     1       2.560   2.020  18.126  0.00  0.00    +0.000 A 
ATOM      9  C   UNL     1       1.400   1.835  18.879  0.00  0.00    +0.000 A 
ATOM     10  C   UNL     1       0.745   2.935  19.404  0.00  0.00    +0.000 A 
ATOM     11  C   UNL     1       1.263   4.210  19.185  0.00  0.00    +0.000 A 
ATOM     12  C   UNL     1       2.469   4.417  18.458  0.00  0.00    +0.000 A 
ATOM     13  C   UNL     1       6.100   4.728  16.299  0.00  0.00    +0.000 C 
ATOM     14  C   UNL     1       6.361   6.231  16.429  0.00  0.00    +0.000 C 
ATOM     15  C   UNL     1       5.196   6.869  17.200  0.00  0.00    +0.000 C 
ENDBRANCH   1   3
BRANCH   1  16
ATOM     16  O   UNL     1       1.871   7.635  17.929  0.00  0.00    +0.000 OA
BRANCH  16  17
ATOM     17  C   UNL     1       2.449   8.896  17.595  0.00  0.00    +0.000 C 
BRANCH  17  19
ATOM     18  O   UNL     1       2.150  11.214  18.110  0.00  0.00    +0.000 OA
ATOM     19  C   UNL     1       1.738  10.067  18.270  0.00  0.00    +0.000 C 
ATOM     20  N   UNL     1       0.677   9.694  19.075  0.00  0.00    +0.000 N 
ATOM     21  H   UNL     1       0.579   8.700  19.291  0.00  0.00    +0.000 HD
BRANCH  20  22
ATOM     22  C   UNL     1      -0.167  10.570  19.795  0.00  0.00    +0.000 A 
ATOM     23  C   UNL     1      -0.031  10.820  21.162  0.00  0.00    +0.000 A 
ATOM     24  C   UNL     1      -0.953  11.635  21.812  0.00  0.00    +0.000 A 
ATOM     25  F   UNL     1      -0.824  11.850  23.129  0.00  0.00    +0.000 F 
ATOM     26  C   UNL     1      -2.008  12.226  21.126  0.00  0.00    +0.000 A 
ATOM     27  C   UNL     1      -2.126  12.026  19.753  0.00  0.00    +0.000 A 
ATOM     28  C   UNL     1      -1.200  11.214  19.097  0.00  0.00    +0.000 A 
ATOM     29  F   UNL     1      -1.326  11.027  17.774  0.00  0.00    +0.000 F 
ENDBRANCH  20  22
ENDBRANCH  17  19
ENDBRANCH  16  17
ENDBRANCH   1  16
TORSDOF 5
ENDMDL
