MODEL 1
REMARK VINA RESULT:      -8.2      0.000      0.000
REMARK  Name = 
REMARK  4 active torsions:
REMARK  status: ('A' for Active; 'I' for Inactive)
REMARK    1  A    between atoms: C_1  and  C_2
REMARK    2  A    between atoms: C_5  and  C_6
REMARK    3  A    between atoms: N_8  and  C_9
REMARK    4  A    between atoms: C_14  and  C_15
REMARK                            x       y       z     vdW  Elec       q    Type
REMARK                         _______ _______ _______ _____ _____    ______ ____
ROOT
ATOM      1  C   UNL     1       7.823   8.043  18.035  0.00  0.00    +0.000 A 
ATOM      2  C   UNL     1       8.384   7.021  18.807  0.00  0.00    +0.000 A 
ATOM      3  C   UNL     1       7.750   5.786  18.979  0.00  0.00    +0.000 A 
ATOM      4  C   UNL     1       6.528   5.623  18.337  0.00  0.00    +0.000 A 
ATOM      5  N   UNL     1       5.688   4.551  18.231  0.00  0.00    +0.000 N 
ATOM      6  C   UNL     1       4.614   4.910  17.456  0.00  0.00    +0.000 A 
ATOM      7  N   UNL     1       4.709   6.175  17.085  0.00  0.00    +0.000 NA
ATOM      8  C   UNL     1       5.905   6.624  17.605  0.00  0.00    +0.000 A 
ATOM      9  C   UNL     1       6.545   7.870  17.469  0.00  0.00    +0.000 A 
ATOM     10  H   UNL     1       5.834   3.622  18.599  0.00  0.00    +0.000 HD
ENDROOT
BRANCH   6  11
ATOM     11  C   UNL     1       3.556   3.920  17.103  0.00  0.00    +0.000 C 
ATOM     12  C   UNL     1       2.231   4.178  17.795  0.00  0.00    +0.000 C 
ATOM     13  C   UNL     1       1.675   2.784  17.950  0.00  0.00    +0.000 C 
ATOM     14  C   UNL     1       2.918   1.971  18.228  0.00  0.00    +0.000 C 
ATOM     15  O   UNL     1       3.999   2.612  17.537  0.00  0.00    +0.000 OA
ENDBRANCH   6  11
BRANCH   1  18
ATOM     16  C   UNL     1       9.026  10.125  18.717  0.00  0.00    +0.000 C 
ATOM     17  O   UNL     1       8.992   9.960  19.934  0.00  0.00    +0.000 OA
ATOM     18  N   UNL     1       8.498   9.258  17.771  0.00  0.00    +0.000 N 
ATOM     19  H   UNL     1       8.709   9.446  16.796  0.00  0.00    +0.000 HD
BRANCH  16  24
ATOM     20  C   UNL     1      11.912  14.813  16.846  0.00  0.00    +0.000 C 
ATOM     21  C   UNL     1      11.169  13.597  17.313  0.00  0.00    +0.000 A 
ATOM     22  C   UNL     1      11.843  12.510  17.875  0.00  0.00    +0.000 A 
ATOM     23  C   UNL     1      11.131  11.390  18.319  0.00  0.00    +0.000 A 
ATOM     24  C   UNL     1       9.731  11.339  18.211  0.00  0.00    +0.000 A 
ATOM     25  C   UNL     1       9.070  12.426  17.643  0.00  0.00    +0.000 A 
ATOM     26  F   UNL     1       7.735  12.428  17.502  0.00  0.00    +0.000 F 
ATOM     27  C   UNL     1       9.775  13.545  17.199  0.00  0.00    +0.000 A 
ENDBRANCH  16  24
ENDBRANCH   1  18
TORSDOF 3
ENDMDL
MODEL 2
REMARK VINA RESULT:      -8.0      7.237      8.951
REMARK  Name = 
REMARK  4 active torsions:
REMARK  status: ('A' for Active; 'I' for Inactive)
REMARK    1  A    between atoms: C_1  and  C_2
REMARK    2  A    between atoms: C_5  and  C_6
REMARK    3  A    between atoms: N_8  and  C_9
REMARK    4  A    between atoms: C_14  and  C_15
REMARK                            x       y       z     vdW  Elec       q    Type
REMARK                         _______ _______ _______ _____ _____    ______ ____
ROOT
ATOM      1  C   UNL     1       0.926   9.312  19.797  0.00  0.00    +0.000 A 
ATOM      2  C   UNL     1       1.372   9.659  18.517  0.00  0.00    +0.000 A 
ATOM      3  C   UNL     1       2.210   8.823  17.771  0.00  0.00    +0.000 A 
ATOM      4  C   UNL     1       2.577   7.623  18.367  0.00  0.00    +0.000 A 
ATOM      5  N   UNL     1       3.308   6.563  17.911  0.00  0.00    +0.000 N 
ATOM      6  C   UNL     1       3.355   5.606  18.894  0.00  0.00    +0.000 A 
ATOM      7  N   UNL     1       2.714   6.017  19.975  0.00  0.00    +0.000 NA
ATOM      8  C   UNL     1       2.205   7.258  19.654  0.00  0.00    +0.000 A 
ATOM      9  C   UNL     1       1.386   8.126  20.400  0.00  0.00    +0.000 A 
ATOM     10  H   UNL     1       3.708   6.447  16.990  0.00  0.00    +0.000 HD
ENDROOT
BRANCH   6  11
ATOM     11  C   UNL     1       4.027   4.296  18.660  0.00  0.00    +0.000 C 
ATOM     12  C   UNL     1       3.516   3.564  17.434  0.00  0.00    +0.000 C 
ATOM     13  C   UNL     1       3.683   2.118  17.831  0.00  0.00    +0.000 C 
ATOM     14  C   UNL     1       3.353   2.151  19.306  0.00  0.00    +0.000 C 
ATOM     15  O   UNL     1       3.752   3.439  19.794  0.00  0.00    +0.000 OA
ENDBRANCH   6  11
BRANCH   1  18
ATOM     16  C   UNL     1       0.292  11.240  21.256  0.00  0.00    +0.000 C 
ATOM     17  O   UNL     1       1.405  11.742  21.383  0.00  0.00    +0.000 OA
ATOM     18  N   UNL     1       0.000  10.100  20.521  0.00  0.00    +0.000 N 
ATOM     19  H   UNL     1      -0.979   9.866  20.390  0.00  0.00    +0.000 HD
BRANCH  16  24
ATOM     20  C   UNL     1      -4.103  14.108  23.761  0.00  0.00    +0.000 C 
ATOM     21  C   UNL     1      -2.981  13.361  23.105  0.00  0.00    +0.000 A 
ATOM     22  C   UNL     1      -2.267  13.918  22.040  0.00  0.00    +0.000 A 
ATOM     23  C   UNL     1      -1.213  13.212  21.450  0.00  0.00    +0.000 A 
ATOM     24  C   UNL     1      -0.852  11.936  21.916  0.00  0.00    +0.000 A 
ATOM     25  C   UNL     1      -1.575  11.388  22.973  0.00  0.00    +0.000 A 
ATOM     26  F   UNL     1      -1.284  10.168  23.451  0.00  0.00    +0.000 F 
ATOM     27  C   UNL     1      -2.626  12.087  23.565  0.00  0.00    +0.000 A 
ENDBRANCH  16  24
ENDBRANCH   1  18
TORSDOF 3
ENDMDL
MODEL 3
REMARK VINA RESULT:      -7.9      0.970      1.364
REMARK  Name = 
REMARK  4 active torsions:
REMARK  status: ('A' for Active; 'I' for Inactive)
REMARK    1  A    between atoms: C_1  and  C_2
REMARK    2  A    between atoms: C_5  and  C_6
REMARK    3  A    between atoms: N_8  and  C_9
REMARK    4  A    between atoms: C_14  and  C_15
REMARK                            x       y       z     vdW  Elec       q    Type
REMARK                         _______ _______ _______ _____ _____    ______ ____
ROOT
ATOM      1  C   UNL     1       7.831   8.204  18.045  0.00  0.00    +0.000 A 
ATOM      2  C   UNL     1       8.436   7.185  18.790  0.00  0.00    +0.000 A 
ATOM      3  C   UNL     1       7.852   5.922  18.932  0.00  0.00    +0.000 A 
ATOM      4  C   UNL     1       6.635   5.727  18.291  0.00  0.00    +0.000 A 
ATOM      5  N   UNL     1       5.838   4.626  18.161  0.00  0.00    +0.000 N 
ATOM      6  C   UNL     1       4.746   4.961  17.399  0.00  0.00    +0.000 A 
ATOM      7  N   UNL     1       4.789   6.238  17.060  0.00  0.00    +0.000 NA
ATOM      8  C   UNL     1       5.969   6.721  17.586  0.00  0.00    +0.000 A 
ATOM      9  C   UNL     1       6.559   7.994  17.480  0.00  0.00    +0.000 A 
ATOM     10  H   UNL     1       6.022   3.694  18.504  0.00  0.00    +0.000 HD
ENDROOT
BRANCH   6  11
ATOM     11  C   UNL     1       3.727   3.939  17.024  0.00  0.00    +0.000 C 
ATOM     12  C   UNL     1       2.388   4.141  17.708  0.00  0.00    +0.000 C 
ATOM     13  C   UNL     1       1.880   2.727  17.841  0.00  0.00    +0.000 C 
ATOM     14  C   UNL     1       3.149   1.955  18.120  0.00  0.00    +0.000 C 
ATOM     15  O   UNL     1       4.212   2.642  17.446  0.00  0.00    +0.000 OA
ENDBRANCH   6  11
BRANCH   1  18
ATOM     16  C   UNL     1       9.043  10.267  18.767  0.00  0.00    +0.000 C 
ATOM     17  O   UNL     1       9.113  10.022  19.969  0.00  0.00    +0.000 OA
ATOM     18  N   UNL     1       8.456   9.451  17.811  0.00  0.00    +0.000 N 
ATOM     19  H   UNL     1       8.581   9.709  16.837  0.00  0.00    +0.000 HD
BRANCH  16  24
ATOM     20  C   UNL     1      11.361  15.228  16.810  0.00  0.00    +0.000 C 
ATOM     21  C   UNL     1      10.763  13.955  17.330  0.00  0.00    +0.000 A 
ATOM     22  C   UNL     1       9.380  13.760  17.344  0.00  0.00    +0.000 A 
ATOM     23  C   UNL     1       8.840  12.559  17.819  0.00  0.00    +0.000 A 
ATOM     24  C   UNL     1       9.677  11.531  18.288  0.00  0.00    +0.000 A 
ATOM     25  C   UNL     1      11.054  11.740  18.276  0.00  0.00    +0.000 A 
ATOM     26  F   UNL     1      11.900  10.799  18.723  0.00  0.00    +0.000 F 
ATOM     27  C   UNL     1      11.597  12.934  17.802  0.00  0.00    +0.000 A 
ENDBRANCH  16  24
ENDBRANCH   1  18
TORSDOF 3
ENDMDL
MODEL 4
REMARK VINA RESULT:      -7.8      7.544      9.943
REMARK  Name = 
REMARK  4 active torsions:
REMARK  status: ('A' for Active; 'I' for Inactive)
REMARK    1  A    between atoms: C_1  and  C_2
REMARK    2  A    between atoms: C_5  and  C_6
REMARK    3  A    between atoms: N_8  and  C_9
REMARK    4  A    between atoms: C_14  and  C_15
REMARK                            x       y       z     vdW  Elec       q    Type
REMARK                         _______ _______ _______ _____ _____    ______ ____
ROOT
ATOM      1  C   UNL     1       0.700   9.746  18.210  0.00  0.00    +0.000 A 
ATOM      2  C   UNL     1       1.094  10.781  19.066  0.00  0.00    +0.000 A 
ATOM      3  C   UNL     1       0.187  11.731  19.547  0.00  0.00    +0.000 A 
ATOM      4  C   UNL     1      -1.132  11.593  19.134  0.00  0.00    +0.000 A 
ATOM      5  N   UNL     1      -2.267  12.282  19.457  0.00  0.00    +0.000 N 
ATOM      6  C   UNL     1      -3.326  11.722  18.787  0.00  0.00    +0.000 A 
ATOM      7  N   UNL     1      -2.919  10.724  18.021  0.00  0.00    +0.000 NA
ATOM      8  C   UNL     1      -1.561  10.617  18.245  0.00  0.00    +0.000 A 
ATOM      9  C   UNL     1      -0.628   9.689  17.748  0.00  0.00    +0.000 A 
ATOM     10  H   UNL     1      -2.355  13.039  20.119  0.00  0.00    +0.000 HD
ENDROOT
BRANCH   6  11
ATOM     11  C   UNL     1      -4.717  12.218  18.995  0.00  0.00    +0.000 C 
ATOM     12  C   UNL     1      -5.037  12.532  20.444  0.00  0.00    +0.000 C 
ATOM     13  C   UNL     1      -6.511  12.223  20.521  0.00  0.00    +0.000 C 
ATOM     14  C   UNL     1      -6.637  11.029  19.603  0.00  0.00    +0.000 C 
ATOM     15  O   UNL     1      -5.634  11.174  18.588  0.00  0.00    +0.000 OA
ENDBRANCH   6  11
BRANCH   1  18
ATOM     16  C   UNL     1       2.209   7.795  18.618  0.00  0.00    +0.000 C 
ATOM     17  O   UNL     1       2.080   7.721  19.837  0.00  0.00    +0.000 OA
ATOM     18  N   UNL     1       1.585   8.722  17.796  0.00  0.00    +0.000 N 
ATOM     19  H   UNL     1       1.675   8.593  16.793  0.00  0.00    +0.000 HD
BRANCH  16  24
ATOM     20  C   UNL     1       5.670   3.963  15.943  0.00  0.00    +0.000 C 
ATOM     21  C   UNL     1       4.786   4.950  16.647  0.00  0.00    +0.000 A 
ATOM     22  C   UNL     1       5.056   6.320  16.605  0.00  0.00    +0.000 A 
ATOM     23  C   UNL     1       4.212   7.227  17.255  0.00  0.00    +0.000 A 
ATOM     24  C   UNL     1       3.080   6.778  17.958  0.00  0.00    +0.000 A 
ATOM     25  C   UNL     1       2.825   5.410  17.999  0.00  0.00    +0.000 A 
ATOM     26  F   UNL     1       1.767   4.923  18.667  0.00  0.00    +0.000 F 
ATOM     27  C   UNL     1       3.663   4.501  17.353  0.00  0.00    +0.000 A 
ENDBRANCH  16  24
ENDBRANCH   1  18
TORSDOF 3
ENDMDL
MODEL 5
REMARK VINA RESULT:      -7.7      7.147      8.847
REMARK  Name = 
REMARK  4 active torsions:
REMARK  status: ('A' for Active; 'I' for Inactive)
REMARK    1  A    between atoms: C_1  and  C_2
REMARK    2  A    between atoms: C_5  and  C_6
REMARK    3  A    between atoms: N_8  and  C_9
REMARK    4  A    between atoms: C_14  and  C_15
REMARK                            x       y       z     vdW  Elec       q    Type
REMARK                         _______ _______ _______ _____ _____    ______ ____
ROOT
ATOM      1  C   UNL     1       0.911   9.378  19.817  0.00  0.00    +0.000 A 
ATOM      2  C   UNL     1       1.350   9.688  18.525  0.00  0.00    +0.000 A 
ATOM      3  C   UNL     1       2.167   8.822  17.791  0.00  0.00    +0.000 A 
ATOM      4  C   UNL     1       2.520   7.629  18.411  0.00  0.00    +0.000 A 
ATOM      5  N   UNL     1       3.229   6.547  17.972  0.00  0.00    +0.000 N 
ATOM      6  C   UNL     1       3.270   5.612  18.977  0.00  0.00    +0.000 A 
ATOM      7  N   UNL     1       2.647   6.058  20.054  0.00  0.00    +0.000 NA
ATOM      8  C   UNL     1       2.155   7.300  19.709  0.00  0.00    +0.000 A 
ATOM      9  C   UNL     1       1.358   8.198  20.443  0.00  0.00    +0.000 A 
ATOM     10  H   UNL     1       3.618   6.404  17.051  0.00  0.00    +0.000 HD
ENDROOT
BRANCH   6  11
ATOM     11  C   UNL     1       3.919   4.286  18.767  0.00  0.00    +0.000 C 
ATOM     12  C   UNL     1       3.501   3.606  17.477  0.00  0.00    +0.000 C 
ATOM     13  C   UNL     1       3.583   2.145  17.845  0.00  0.00    +0.000 C 
ATOM     14  C   UNL     1       3.119   2.150  19.283  0.00  0.00    +0.000 C 
ATOM     15  O   UNL     1       3.512   3.410  19.845  0.00  0.00    +0.000 OA
ENDBRANCH   6  11
BRANCH   1  18
ATOM     16  C   UNL     1       0.329  11.320  21.279  0.00  0.00    +0.000 C 
ATOM     17  O   UNL     1       1.460  11.777  21.427  0.00  0.00    +0.000 OA
ATOM     18  N   UNL     1       0.005  10.197  20.531  0.00  0.00    +0.000 N 
ATOM     19  H   UNL     1      -0.980  10.003  20.384  0.00  0.00    +0.000 HD
BRANCH  16  24
ATOM     20  C   UNL     1      -4.128  14.031  23.847  0.00  0.00    +0.000 C 
ATOM     21  C   UNL     1      -2.968  13.338  23.197  0.00  0.00    +0.000 A 
ATOM     22  C   UNL     1      -2.622  12.029  23.542  0.00  0.00    +0.000 A 
ATOM     23  C   UNL     1      -1.546  11.394  22.913  0.00  0.00    +0.000 A 
ATOM     24  C   UNL     1      -0.797  12.057  21.925  0.00  0.00    +0.000 A 
ATOM     25  C   UNL     1      -1.146  13.364  21.594  0.00  0.00    +0.000 A 
ATOM     26  F   UNL     1      -0.459  14.050  20.668  0.00  0.00    +0.000 F 
ATOM     27  C   UNL     1      -2.219  14.002  22.218  0.00  0.00    +0.000 A 
ENDBRANCH  16  24
ENDBRANCH   1  18
TORSDOF 3
ENDMDL
MODEL 6
REMARK VINA RESULT:      -7.7      5.887      7.664
REMARK  Name = 
REMARK  4 active torsions:
REMARK  status: ('A' for Active; 'I' for Inactive)
REMARK    1  A    between atoms: C_1  and  C_2
REMARK    2  A    between atoms: C_5  and  C_6
REMARK    3  A    between atoms: N_8  and  C_9
REMARK    4  A    between atoms: C_14  and  C_15
REMARK                            x       y       z     vdW  Elec       q    Type
REMARK                         _______ _______ _______ _____ _____    ______ ____
ROOT
ATOM      1  C   UNL     1       3.122   6.077  19.219  0.00  0.00    +0.000 A 
ATOM      2  C   UNL     1       3.420   4.825  19.767  0.00  0.00    +0.000 A 
ATOM      3  C   UNL     1       4.233   3.898  19.105  0.00  0.00    +0.000 A 
ATOM      4  C   UNL     1       4.736   4.288  17.869  0.00  0.00    +0.000 A 
ATOM      5  N   UNL     1       5.597   3.680  17.001  0.00  0.00    +0.000 N 
ATOM      6  C   UNL     1       5.793   4.508  15.924  0.00  0.00    +0.000 A 
ATOM      7  N   UNL     1       5.070   5.608  16.044  0.00  0.00    +0.000 NA
ATOM      8  C   UNL     1       4.426   5.496  17.260  0.00  0.00    +0.000 A 
ATOM      9  C   UNL     1       3.582   6.402  17.928  0.00  0.00    +0.000 A 
ATOM     10  H   UNL     1       6.073   2.798  17.130  0.00  0.00    +0.000 HD
ENDROOT
BRANCH   6  11
ATOM     11  C   UNL     1       6.745   4.142  14.836  0.00  0.00    +0.000 C 
ATOM     12  C   UNL     1       7.281   5.339  14.074  0.00  0.00    +0.000 C 
ATOM     13  C   UNL     1       7.494   4.770  12.693  0.00  0.00    +0.000 C 
ATOM     14  C   UNL     1       6.332   3.814  12.557  0.00  0.00    +0.000 C 
ATOM     15  O   UNL     1       6.037   3.325  13.873  0.00  0.00    +0.000 OA
ENDBRANCH   6  11
BRANCH   1  18
ATOM     16  C   UNL     1       1.780   8.180  19.369  0.00  0.00    +0.000 C 
ATOM     17  O   UNL     1       1.789   8.484  18.179  0.00  0.00    +0.000 OA
ATOM     18  N   UNL     1       2.385   7.060  19.920  0.00  0.00    +0.000 N 
ATOM     19  H   UNL     1       2.192   6.857  20.896  0.00  0.00    +0.000 HD
BRANCH  16  24
ATOM     20  C   UNL     1      -1.264  11.503  23.044  0.00  0.00    +0.000 C 
ATOM     21  C   UNL     1      -0.465  10.649  22.106  0.00  0.00    +0.000 A 
ATOM     22  C   UNL     1      -0.324   9.275  22.320  0.00  0.00    +0.000 A 
ATOM     23  C   UNL     1       0.413   8.493  21.424  0.00  0.00    +0.000 A 
ATOM     24  C   UNL     1       1.021   9.070  20.296  0.00  0.00    +0.000 A 
ATOM     25  C   UNL     1       0.880  10.442  20.097  0.00  0.00    +0.000 A 
ATOM     26  F   UNL     1       1.449  11.050  19.045  0.00  0.00    +0.000 F 
ATOM     27  C   UNL     1       0.146  11.226  20.986  0.00  0.00    +0.000 A 
ENDBRANCH  16  24
ENDBRANCH   1  18
TORSDOF 3
ENDMDL
MODEL 7
REMARK VINA RESULT:      -7.6      6.736      9.234
REMARK  Name = 
REMARK  4 active torsions:
REMARK  status: ('A' for Active; 'I' for Inactive)
REMARK    1  A    between atoms: C_1  and  C_2
REMARK    2  A    between atoms: C_5  and  C_6
REMARK    3  A    between atoms: N_8  and  C_9
REMARK    4  A    between atoms: C_14  and  C_15
REMARK                            x       y       z     vdW  Elec       q    Type
REMARK                         _______ _______ _______ _____ _____    ______ ____
ROOT
ATOM      1  C   UNL     1       1.954   8.192  19.152  0.00  0.00    +0.000 A 
ATOM      2  C   UNL     1       1.688   7.736  20.448  0.00  0.00    +0.000 A 
ATOM      3  C   UNL     1       0.864   8.444  21.330  0.00  0.00    +0.000 A 
ATOM      4  C   UNL     1       0.317   9.628  20.851  0.00  0.00    +0.000 A 
ATOM      5  N   UNL     1      -0.565  10.514  21.400  0.00  0.00    +0.000 N 
ATOM      6  C   UNL     1      -0.805  11.516  20.492  0.00  0.00    +0.000 A 
ATOM      7  N   UNL     1      -0.091  11.331  19.395  0.00  0.00    +0.000 NA
ATOM      8  C   UNL     1       0.593  10.149  19.593  0.00  0.00    +0.000 A 
ATOM      9  C   UNL     1       1.448   9.437  18.732  0.00  0.00    +0.000 A 
ATOM     10  H   UNL     1      -1.027  10.442  22.295  0.00  0.00    +0.000 HD
ENDROOT
BRANCH   6  11
ATOM     11  C   UNL     1      -1.788  12.598  20.783  0.00  0.00    +0.000 C 
ATOM     12  C   UNL     1      -2.503  12.425  22.110  0.00  0.00    +0.000 C 
ATOM     13  C   UNL     1      -3.850  13.044  21.830  0.00  0.00    +0.000 C 
ATOM     14  C   UNL     1      -4.094  12.648  20.392  0.00  0.00    +0.000 C 
ATOM     15  O   UNL     1      -2.810  12.567  19.758  0.00  0.00    +0.000 OA
ENDBRANCH   6  11
BRANCH   1  18
ATOM     16  C   UNL     1       3.533   6.365  18.507  0.00  0.00    +0.000 C 
ATOM     17  O   UNL     1       3.738   5.902  19.626  0.00  0.00    +0.000 OA
ATOM     18  N   UNL     1       2.702   7.438  18.218  0.00  0.00    +0.000 N 
ATOM     19  H   UNL     1       2.519   7.637  17.239  0.00  0.00    +0.000 HD
BRANCH  16  24
ATOM     20  C   UNL     1       6.140   3.902  13.930  0.00  0.00    +0.000 C 
ATOM     21  C   UNL     1       5.482   4.536  15.119  0.00  0.00    +0.000 A 
ATOM     22  C   UNL     1       5.503   5.920  15.305  0.00  0.00    +0.000 A 
ATOM     23  C   UNL     1       4.870   6.495  16.412  0.00  0.00    +0.000 A 
ATOM     24  C   UNL     1       4.203   5.693  17.355  0.00  0.00    +0.000 A 
ATOM     25  C   UNL     1       4.194   4.313  17.163  0.00  0.00    +0.000 A 
ATOM     26  F   UNL     1       3.584   3.497  18.037  0.00  0.00    +0.000 F 
ATOM     27  C   UNL     1       4.823   3.736  16.060  0.00  0.00    +0.000 A 
ENDBRANCH  16  24
ENDBRANCH   1  18
TORSDOF 3
ENDMDL
MODEL 8
REMARK VINA RESULT:      -7.6      6.366      8.155
REMARK  Name = 
REMARK  4 active torsions:
REMARK  status: ('A' for Active; 'I' for Inactive)
REMARK    1  A    between atoms: C_1  and  C_2
REMARK    2  A    between atoms: C_5  and  C_6
REMARK    3  A    between atoms: N_8  and  C_9
REMARK    4  A    between atoms: C_14  and  C_15
REMARK                            x       y       z     vdW  Elec       q    Type
REMARK                         _______ _______ _______ _____ _____    ______ ____
ROOT
ATOM      1  C   UNL     1       1.545   7.717  20.073  0.00  0.00    +0.000 A 
ATOM      2  C   UNL     1       1.486   6.529  20.811  0.00  0.00    +0.000 A 
ATOM      3  C   UNL     1       2.245   5.405  20.470  0.00  0.00    +0.000 A 
ATOM      4  C   UNL     1       3.069   5.528  19.357  0.00  0.00    +0.000 A 
ATOM      5  N   UNL     1       3.977   4.677  18.795  0.00  0.00    +0.000 N 
ATOM      6  C   UNL     1       4.549   5.298  17.713  0.00  0.00    +0.000 A 
ATOM      7  N   UNL     1       4.027   6.499  17.534  0.00  0.00    +0.000 NA
ATOM      8  C   UNL     1       3.122   6.666  18.563  0.00  0.00    +0.000 A 
ATOM      9  C   UNL     1       2.328   7.775  18.905  0.00  0.00    +0.000 A 
ATOM     10  H   UNL     1       4.247   3.763  19.130  0.00  0.00    +0.000 HD
ENDROOT
BRANCH   6  11
ATOM     11  C   UNL     1       5.636   4.638  16.934  0.00  0.00    +0.000 C 
ATOM     12  C   UNL     1       6.639   5.614  16.348  0.00  0.00    +0.000 C 
ATOM     13  C   UNL     1       7.067   4.913  15.083  0.00  0.00    +0.000 C 
ATOM     14  C   UNL     1       5.784   4.254  14.631  0.00  0.00    +0.000 C 
ATOM     15  O   UNL     1       5.033   3.947  15.814  0.00  0.00    +0.000 OA
ENDBRANCH   6  11
BRANCH   1  18
ATOM     16  C   UNL     1       1.044   9.594  21.645  0.00  0.00    +0.000 C 
ATOM     17  O   UNL     1       1.842   9.303  22.532  0.00  0.00    +0.000 OA
ATOM     18  N   UNL     1       0.860   8.891  20.464  0.00  0.00    +0.000 N 
ATOM     19  H   UNL     1       0.262   9.312  19.759  0.00  0.00    +0.000 HD
BRANCH  16  24
ATOM     20  C   UNL     1      -1.989  14.511  22.311  0.00  0.00    +0.000 C 
ATOM     21  C   UNL     1      -1.218  13.238  22.128  0.00  0.00    +0.000 A 
ATOM     22  C   UNL     1      -0.184  13.147  21.193  0.00  0.00    +0.000 A 
ATOM     23  C   UNL     1       0.535  11.955  21.048  0.00  0.00    +0.000 A 
ATOM     24  C   UNL     1       0.231  10.832  21.836  0.00  0.00    +0.000 A 
ATOM     25  C   UNL     1      -0.806  10.931  22.760  0.00  0.00    +0.000 A 
ATOM     26  F   UNL     1      -1.149   9.887  23.530  0.00  0.00    +0.000 F 
ATOM     27  C   UNL     1      -1.525  12.117  22.910  0.00  0.00    +0.000 A 
ENDBRANCH  16  24
ENDBRANCH   1  18
TORSDOF 3
ENDMDL
MODEL 9
REMARK VINA RESULT:      -7.5      6.995      9.565
REMARK  Name = 
REMARK  4 active torsions:
REMARK  status: ('A' for Active; 'I' for Inactive)
REMARK    1  A    between atoms: C_1  and  C_2
REMARK    2  A    between atoms: C_5  and  C_6
REMARK    3  A    between atoms: N_8  and  C_9
REMARK    4  A    between atoms: C_14  and  C_15
REMARK                            x       y       z     vdW  Elec       q    Type
REMARK                         _______ _______ _______ _____ _____    ______ ____
ROOT
ATOM      1  C   UNL     1       1.278   8.935  18.626  0.00  0.00    +0.000 A 
ATOM      2  C   UNL     1       0.411   9.726  17.862  0.00  0.00    +0.000 A 
ATOM      3  C   UNL     1      -0.499  10.611  18.450  0.00  0.00    +0.000 A 
ATOM      4  C   UNL     1      -0.497  10.669  19.839  0.00  0.00    +0.000 A 
ATOM      5  N   UNL     1      -1.185  11.453  20.720  0.00  0.00    +0.000 N 
ATOM      6  C   UNL     1      -0.793  11.128  21.995  0.00  0.00    +0.000 A 
ATOM      7  N   UNL     1       0.092  10.147  21.975  0.00  0.00    +0.000 NA
ATOM      8  C   UNL     1       0.305   9.868  20.640  0.00  0.00    +0.000 A 
ATOM      9  C   UNL     1       1.192   8.962  20.031  0.00  0.00    +0.000 A 
ATOM     10  H   UNL     1      -1.834  12.195  20.501  0.00  0.00    +0.000 HD
ENDROOT
BRANCH   6  11
ATOM     11  C   UNL     1      -1.324  11.869  23.175  0.00  0.00    +0.000 C 
ATOM     12  C   UNL     1      -2.764  12.316  23.011  0.00  0.00    +0.000 C 
ATOM     13  C   UNL     1      -2.798  13.591  23.816  0.00  0.00    +0.000 C 
ATOM     14  C   UNL     1      -1.431  14.176  23.548  0.00  0.00    +0.000 C 
ATOM     15  O   UNL     1      -0.537  13.073  23.342  0.00  0.00    +0.000 OA
ENDBRANCH   6  11
BRANCH   1  18
ATOM     16  C   UNL     1       2.704   6.885  18.525  0.00  0.00    +0.000 C 
ATOM     17  O   UNL     1       2.282   6.325  19.534  0.00  0.00    +0.000 OA
ATOM     18  N   UNL     1       2.269   8.111  18.043  0.00  0.00    +0.000 N 
ATOM     19  H   UNL     1       2.606   8.400  17.130  0.00  0.00    +0.000 HD
BRANCH  16  24
ATOM     20  C   UNL     1       6.812   4.255  15.360  0.00  0.00    +0.000 C 
ATOM     21  C   UNL     1       5.760   4.928  16.190  0.00  0.00    +0.000 A 
ATOM     22  C   UNL     1       5.877   6.272  16.554  0.00  0.00    +0.000 A 
ATOM     23  C   UNL     1       4.878   6.888  17.316  0.00  0.00    +0.000 A 
ATOM     24  C   UNL     1       3.742   6.169  17.728  0.00  0.00    +0.000 A 
ATOM     25  C   UNL     1       3.640   4.828  17.366  0.00  0.00    +0.000 A 
ATOM     26  F   UNL     1       2.585   4.089  17.742  0.00  0.00    +0.000 F 
ATOM     27  C   UNL     1       4.633   4.210  16.606  0.00  0.00    +0.000 A 
ENDBRANCH  16  24
ENDBRANCH   1  18
TORSDOF 3
ENDMDL
