MODEL 1
REMARK VINA RESULT:      -7.8      0.000      0.000
REMARK  Name = 
REMARK  4 active torsions:
REMARK  status: ('A' for Active; 'I' for Inactive)
REMARK    1  A    between atoms: C_2  and  C_3
REMARK    2  A    between atoms: C_6  and  N_7
REMARK    3  A    between atoms: C_8  and  C_10
REMARK    4  A    between atoms: C_10  and  N_11
REMARK                            x       y       z     vdW  Elec       q    Type
REMARK                         _______ _______ _______ _____ _____    ______ ____
ROOT
ATOM      1  N   UNL     1      -0.022  11.288  21.888  0.00  0.00    +0.000 N 
ATOM      2  C   UNL     1       0.669  12.164  21.120  0.00  0.00    +0.000 C 
ATOM      3  O   UNL     1       1.882  12.229  20.998  0.00  0.00    +0.000 OA
ATOM      4  N   UNL     1      -0.226  12.975  20.460  0.00  0.00    +0.000 N 
ATOM      5  C   UNL     1      -1.605  12.567  20.681  0.00  0.00    +0.000 C 
ATOM      6  C   UNL     1      -2.471  13.796  20.976  0.00  0.00    +0.000 C 
ATOM      7  C   UNL     1      -3.960  13.468  20.993  0.00  0.00    +0.000 C 
ATOM      8  C   UNL     1      -4.423  12.878  19.666  0.00  0.00    +0.000 C 
ATOM      9  C   UNL     1      -3.490  11.837  19.101  0.00  0.00    +0.000 A 
ATOM     10  C   UNL     1      -3.984  10.993  18.088  0.00  0.00    +0.000 A 
ATOM     11  C   UNL     1      -3.176  10.019  17.507  0.00  0.00    +0.000 A 
ATOM     12  C   UNL     1      -1.856   9.893  17.912  0.00  0.00    +0.000 A 
ATOM     13  C   UNL     1      -1.348  10.738  18.897  0.00  0.00    +0.000 A 
ATOM     14  C   UNL     1      -2.148  11.720  19.520  0.00  0.00    +0.000 A 
ATOM     15  C   UNL     1      -1.346  11.652  21.918  0.00  0.00    +0.000 C 
ATOM     16  O   UNL     1      -2.173  11.285  22.739  0.00  0.00    +0.000 OA
ATOM     17  H   UNL     1       0.078  13.596  19.723  0.00  0.00    +0.000 HD
ENDROOT
BRANCH   1  18
ATOM     18  C   UNL     1       0.566  10.144  22.558  0.00  0.00    +0.000 C 
BRANCH  18  20
ATOM     19  N   UNL     1       1.713   8.396  21.203  0.00  0.00    +0.000 N 
ATOM     20  C   UNL     1       0.487   8.918  21.622  0.00  0.00    +0.000 C 
ATOM     21  O   UNL     1      -0.603   8.526  21.213  0.00  0.00    +0.000 OA
ATOM     22  H   UNL     1       2.558   8.892  21.476  0.00  0.00    +0.000 HD
BRANCH  19  26
ATOM     23  C   UNL     1       2.146   5.035  18.602  0.00  0.00    +0.000 A 
ATOM     24  C   UNL     1       2.458   6.319  18.151  0.00  0.00    +0.000 A 
ATOM     25  C   UNL     1       2.318   7.427  18.997  0.00  0.00    +0.000 A 
ATOM     26  C   UNL     1       1.866   7.293  20.315  0.00  0.00    +0.000 A 
ATOM     27  C   UNL     1       1.543   6.003  20.763  0.00  0.00    +0.000 A 
ATOM     28  C   UNL     1       1.688   4.885  19.915  0.00  0.00    +0.000 A 
ATOM     29 CL   UNL     1       1.277   3.329  20.553  0.00  0.00    +0.000 Cl
BRANCH  23  31
ATOM     30  N   UNL     1       2.400   3.015  16.994  0.00  0.00    +0.000 NA
ATOM     31  C   UNL     1       2.300   3.925  17.696  0.00  0.00    +0.000 C 
ENDBRANCH  23  31
ENDBRANCH  19  26
ENDBRANCH  18  20
ENDBRANCH   1  18
TORSDOF 4
ENDMDL
MODEL 2
REMARK VINA RESULT:      -7.6      5.396      7.070
REMARK  Name = 
REMARK  4 active torsions:
REMARK  status: ('A' for Active; 'I' for Inactive)
REMARK    1  A    between atoms: C_2  and  C_3
REMARK    2  A    between atoms: C_6  and  N_7
REMARK    3  A    between atoms: C_8  and  C_10
REMARK    4  A    between atoms: C_10  and  N_11
REMARK                            x       y       z     vdW  Elec       q    Type
REMARK                         _______ _______ _______ _____ _____    ______ ____
ROOT
ATOM      1  N   UNL     1      -5.716  13.512  23.313  0.00  0.00    +0.000 N 
ATOM      2  C   UNL     1      -5.527  12.596  24.293  0.00  0.00    +0.000 C 
ATOM      3  O   UNL     1      -6.245  11.642  24.547  0.00  0.00    +0.000 OA
ATOM      4  N   UNL     1      -4.362  12.895  24.960  0.00  0.00    +0.000 N 
ATOM      5  C   UNL     1      -3.639  13.996  24.340  0.00  0.00    +0.000 C 
ATOM      6  C   UNL     1      -3.153  14.972  25.416  0.00  0.00    +0.000 C 
ATOM      7  C   UNL     1      -2.200  16.024  24.860  0.00  0.00    +0.000 C 
ATOM      8  C   UNL     1      -0.972  15.388  24.217  0.00  0.00    +0.000 C 
ATOM      9  C   UNL     1      -1.287  14.204  23.339  0.00  0.00    +0.000 A 
ATOM     10  C   UNL     1      -0.295  13.774  22.437  0.00  0.00    +0.000 A 
ATOM     11  C   UNL     1      -0.506  12.676  21.606  0.00  0.00    +0.000 A 
ATOM     12  C   UNL     1      -1.702  11.979  21.684  0.00  0.00    +0.000 A 
ATOM     13  C   UNL     1      -2.683  12.380  22.589  0.00  0.00    +0.000 A 
ATOM     14  C   UNL     1      -2.506  13.501  23.428  0.00  0.00    +0.000 A 
ATOM     15  C   UNL     1      -4.814  14.537  23.466  0.00  0.00    +0.000 C 
ATOM     16  O   UNL     1      -4.899  15.649  22.968  0.00  0.00    +0.000 OA
ATOM     17  H   UNL     1      -3.962  12.250  25.628  0.00  0.00    +0.000 HD
ENDROOT
BRANCH   1  18
ATOM     18  C   UNL     1      -6.716  13.403  22.269  0.00  0.00    +0.000 C 
BRANCH  18  20
ATOM     19  N   UNL     1      -5.494  13.172  20.110  0.00  0.00    +0.000 N 
ATOM     20  C   UNL     1      -6.166  12.507  21.138  0.00  0.00    +0.000 C 
ATOM     21  O   UNL     1      -6.420  11.305  21.128  0.00  0.00    +0.000 OA
ATOM     22  H   UNL     1      -5.474  14.189  20.136  0.00  0.00    +0.000 HD
BRANCH  19  26
ATOM     23  C   UNL     1      -3.762  11.268  16.701  0.00  0.00    +0.000 A 
ATOM     24  C   UNL     1      -5.056  11.789  16.635  0.00  0.00    +0.000 A 
ATOM     25  C   UNL     1      -5.632  12.414  17.749  0.00  0.00    +0.000 A 
ATOM     26  C   UNL     1      -4.940  12.542  18.959  0.00  0.00    +0.000 A 
ATOM     27  C   UNL     1      -3.644  12.010  19.027  0.00  0.00    +0.000 A 
ATOM     28  C   UNL     1      -3.060  11.384  17.905  0.00  0.00    +0.000 A 
ATOM     29 CL   UNL     1      -1.452  10.765  18.073  0.00  0.00    +0.000 Cl
BRANCH  23  31
ATOM     30  N   UNL     1      -2.735  10.116  14.616  0.00  0.00    +0.000 NA
ATOM     31  C   UNL     1      -3.211  10.628  15.533  0.00  0.00    +0.000 C 
ENDBRANCH  23  31
ENDBRANCH  19  26
ENDBRANCH  18  20
ENDBRANCH   1  18
TORSDOF 4
ENDMDL
MODEL 3
REMARK VINA RESULT:      -7.6      6.623      9.747
REMARK  Name = 
REMARK  4 active torsions:
REMARK  status: ('A' for Active; 'I' for Inactive)
REMARK    1  A    between atoms: C_2  and  C_3
REMARK    2  A    between atoms: C_6  and  N_7
REMARK    3  A    between atoms: C_8  and  C_10
REMARK    4  A    between atoms: C_10  and  N_11
REMARK                            x       y       z     vdW  Elec       q    Type
REMARK                         _______ _______ _______ _____ _____    ______ ____
ROOT
ATOM      1  N   UNL     1       5.646   4.792  17.323  0.00  0.00    +0.000 N 
ATOM      2  C   UNL     1       6.376   4.496  18.425  0.00  0.00    +0.000 C 
ATOM      3  O   UNL     1       7.485   4.923  18.701  0.00  0.00    +0.000 OA
ATOM      4  N   UNL     1       5.649   3.640  19.220  0.00  0.00    +0.000 N 
ATOM      5  C   UNL     1       4.302   3.426  18.711  0.00  0.00    +0.000 C 
ATOM      6  C   UNL     1       3.954   1.935  18.770  0.00  0.00    +0.000 C 
ATOM      7  C   UNL     1       2.484   1.669  18.466  0.00  0.00    +0.000 C 
ATOM      8  C   UNL     1       1.565   2.402  19.437  0.00  0.00    +0.000 C 
ATOM      9  C   UNL     1       1.971   3.829  19.702  0.00  0.00    +0.000 A 
ATOM     10  C   UNL     1       1.018   4.685  20.289  0.00  0.00    +0.000 A 
ATOM     11  C   UNL     1       1.326   6.011  20.579  0.00  0.00    +0.000 A 
ATOM     12  C   UNL     1       2.597   6.494  20.311  0.00  0.00    +0.000 A 
ATOM     13  C   UNL     1       3.557   5.651  19.753  0.00  0.00    +0.000 A 
ATOM     14  C   UNL     1       3.269   4.308  19.428  0.00  0.00    +0.000 A 
ATOM     15  C   UNL     1       4.545   3.972  17.270  0.00  0.00    +0.000 C 
ATOM     16  O   UNL     1       3.859   3.753  16.282  0.00  0.00    +0.000 OA
ATOM     17  H   UNL     1       5.951   3.417  20.158  0.00  0.00    +0.000 HD
ENDROOT
BRANCH   1  18
ATOM     18  C   UNL     1       5.988   5.826  16.365  0.00  0.00    +0.000 C 
BRANCH  18  20
ATOM     19  N   UNL     1       7.600   7.567  17.123  0.00  0.00    +0.000 N 
ATOM     20  C   UNL     1       6.271   7.141  17.124  0.00  0.00    +0.000 C 
ATOM     21  O   UNL     1       5.374   7.687  17.763  0.00  0.00    +0.000 OA
ATOM     22  H   UNL     1       8.294   6.959  16.695  0.00  0.00    +0.000 HD
BRANCH  19  26
ATOM     23  C   UNL     1       9.010  11.105  19.057  0.00  0.00    +0.000 A 
ATOM     24  C   UNL     1       9.281   9.849  19.604  0.00  0.00    +0.000 A 
ATOM     25  C   UNL     1       8.821   8.684  18.976  0.00  0.00    +0.000 A 
ATOM     26  C   UNL     1       8.083   8.731  17.789  0.00  0.00    +0.000 A 
ATOM     27  C   UNL     1       7.803   9.995  17.247  0.00  0.00    +0.000 A 
ATOM     28  C   UNL     1       8.268  11.170  17.874  0.00  0.00    +0.000 A 
ATOM     29 CL   UNL     1       7.888  12.686  17.131  0.00  0.00    +0.000 Cl
BRANCH  23  31
ATOM     30  N   UNL     1       9.883  13.237  20.253  0.00  0.00    +0.000 NA
ATOM     31  C   UNL     1       9.498  12.278  19.740  0.00  0.00    +0.000 C 
ENDBRANCH  23  31
ENDBRANCH  19  26
ENDBRANCH  18  20
ENDBRANCH   1  18
TORSDOF 4
ENDMDL
MODEL 4
REMARK VINA RESULT:      -7.3      1.274      1.535
REMARK  Name = 
REMARK  4 active torsions:
REMARK  status: ('A' for Active; 'I' for Inactive)
REMARK    1  A    between atoms: C_2  and  C_3
REMARK    2  A    between atoms: C_6  and  N_7
REMARK    3  A    between atoms: C_8  and  C_10
REMARK    4  A    between atoms: C_10  and  N_11
REMARK                            x       y       z     vdW  Elec       q    Type
REMARK                         _______ _______ _______ _____ _____    ______ ____
ROOT
ATOM      1  N   UNL     1       0.333  11.292  21.054  0.00  0.00    +0.000 N 
ATOM      2  C   UNL     1       0.849  12.230  20.225  0.00  0.00    +0.000 C 
ATOM      3  O   UNL     1       2.030  12.410  19.972  0.00  0.00    +0.000 OA
ATOM      4  N   UNL     1      -0.185  12.951  19.674  0.00  0.00    +0.000 N 
ATOM      5  C   UNL     1      -1.487  12.414  20.039  0.00  0.00    +0.000 C 
ATOM      6  C   UNL     1      -2.429  13.554  20.439  0.00  0.00    +0.000 C 
ATOM      7  C   UNL     1      -3.869  13.085  20.614  0.00  0.00    +0.000 C 
ATOM      8  C   UNL     1      -4.416  12.454  19.339  0.00  0.00    +0.000 C 
ATOM      9  C   UNL     1      -3.455  11.506  18.666  0.00  0.00    +0.000 A 
ATOM     10  C   UNL     1      -3.974  10.619  17.704  0.00  0.00    +0.000 A 
ATOM     11  C   UNL     1      -3.145   9.727  17.028  0.00  0.00    +0.000 A 
ATOM     12  C   UNL     1      -1.783   9.727  17.286  0.00  0.00    +0.000 A 
ATOM     13  C   UNL     1      -1.253  10.617  18.219  0.00  0.00    +0.000 A 
ATOM     14  C   UNL     1      -2.071  11.518  18.935  0.00  0.00    +0.000 A 
ATOM     15  C   UNL     1      -1.009  11.528  21.232  0.00  0.00    +0.000 C 
ATOM     16  O   UNL     1      -1.703  11.083  22.134  0.00  0.00    +0.000 OA
ATOM     17  H   UNL     1      -0.024  13.599  18.915  0.00  0.00    +0.000 HD
ENDROOT
BRANCH   1  18
ATOM     18  C   UNL     1       1.096  10.209  21.645  0.00  0.00    +0.000 C 
BRANCH  18  20
ATOM     19  N   UNL     1       1.645   7.831  21.146  0.00  0.00    +0.000 N 
ATOM     20  C   UNL     1       1.183   9.045  20.633  0.00  0.00    +0.000 C 
ATOM     21  O   UNL     1       0.954   9.247  19.443  0.00  0.00    +0.000 OA
ATOM     22  H   UNL     1       1.957   7.812  22.114  0.00  0.00    +0.000 HD
BRANCH  19  26
ATOM     23  C   UNL     1       2.268   4.313  18.803  0.00  0.00    +0.000 A 
ATOM     24  C   UNL     1       1.371   4.296  19.874  0.00  0.00    +0.000 A 
ATOM     25  C   UNL     1       1.161   5.446  20.648  0.00  0.00    +0.000 A 
ATOM     26  C   UNL     1       1.833   6.644  20.381  0.00  0.00    +0.000 A 
ATOM     27  C   UNL     1       2.742   6.656  19.312  0.00  0.00    +0.000 A 
ATOM     28  C   UNL     1       2.951   5.502  18.528  0.00  0.00    +0.000 A 
ATOM     29 CL   UNL     1       4.081   5.608  17.221  0.00  0.00    +0.000 Cl
BRANCH  23  31
ATOM     30  N   UNL     1       2.638   2.131  17.450  0.00  0.00    +0.000 NA
ATOM     31  C   UNL     1       2.456   3.107  18.038  0.00  0.00    +0.000 C 
ENDBRANCH  23  31
ENDBRANCH  19  26
ENDBRANCH  18  20
ENDBRANCH   1  18
TORSDOF 4
ENDMDL
MODEL 5
REMARK VINA RESULT:      -7.2      2.265      3.376
REMARK  Name = 
REMARK  4 active torsions:
REMARK  status: ('A' for Active; 'I' for Inactive)
REMARK    1  A    between atoms: C_2  and  C_3
REMARK    2  A    between atoms: C_6  and  N_7
REMARK    3  A    between atoms: C_8  and  C_10
REMARK    4  A    between atoms: C_10  and  N_11
REMARK                            x       y       z     vdW  Elec       q    Type
REMARK                         _______ _______ _______ _____ _____    ______ ____
ROOT
ATOM      1  N   UNL     1      -2.247  13.693  21.918  0.00  0.00    +0.000 N 
ATOM      2  C   UNL     1      -2.263  14.755  21.077  0.00  0.00    +0.000 C 
ATOM      3  O   UNL     1      -1.442  15.658  21.026  0.00  0.00    +0.000 OA
ATOM      4  N   UNL     1      -3.357  14.648  20.249  0.00  0.00    +0.000 N 
ATOM      5  C   UNL     1      -4.068  13.393  20.437  0.00  0.00    +0.000 C 
ATOM      6  C   UNL     1      -5.577  13.652  20.492  0.00  0.00    +0.000 C 
ATOM      7  C   UNL     1      -6.390  12.363  20.460  0.00  0.00    +0.000 C 
ATOM      8  C   UNL     1      -6.103  11.547  19.205  0.00  0.00    +0.000 C 
ATOM      9  C   UNL     1      -4.639  11.451  18.860  0.00  0.00    +0.000 A 
ATOM     10  C   UNL     1      -4.242  10.452  17.950  0.00  0.00    +0.000 A 
ATOM     11  C   UNL     1      -2.909  10.314  17.571  0.00  0.00    +0.000 A 
ATOM     12  C   UNL     1      -1.959  11.189  18.075  0.00  0.00    +0.000 A 
ATOM     13  C   UNL     1      -2.342  12.197  18.958  0.00  0.00    +0.000 A 
ATOM     14  C   UNL     1      -3.682  12.348  19.378  0.00  0.00    +0.000 A 
ATOM     15  C   UNL     1      -3.432  13.007  21.808  0.00  0.00    +0.000 C 
ATOM     16  O   UNL     1      -3.876  12.206  22.618  0.00  0.00    +0.000 OA
ATOM     17  H   UNL     1      -3.469  15.259  19.452  0.00  0.00    +0.000 HD
ENDROOT
BRANCH   1  18
ATOM     18  C   UNL     1      -1.136  13.349  22.784  0.00  0.00    +0.000 C 
BRANCH  18  20
ATOM     19  N   UNL     1      -0.579  11.073  21.937  0.00  0.00    +0.000 N 
ATOM     20  C   UNL     1      -0.177  12.408  22.022  0.00  0.00    +0.000 C 
ATOM     21  O   UNL     1       0.908  12.826  21.626  0.00  0.00    +0.000 OA
ATOM     22  H   UNL     1      -1.422  10.798  22.435  0.00  0.00    +0.000 HD
BRANCH  19  26
ATOM     23  C   UNL     1       1.674   8.012  19.988  0.00  0.00    +0.000 A 
ATOM     24  C   UNL     1       1.240   7.836  21.304  0.00  0.00    +0.000 A 
ATOM     25  C   UNL     1       0.501   8.836  21.950  0.00  0.00    +0.000 A 
ATOM     26  C   UNL     1       0.171  10.036  21.311  0.00  0.00    +0.000 A 
ATOM     27  C   UNL     1       0.617  10.215  19.992  0.00  0.00    +0.000 A 
ATOM     28  C   UNL     1       1.356   9.208  19.337  0.00  0.00    +0.000 A 
ATOM     29 CL   UNL     1       1.857   9.506  17.707  0.00  0.00    +0.000 Cl
BRANCH  23  31
ATOM     30  N   UNL     1       3.029   6.126  18.829  0.00  0.00    +0.000 NA
ATOM     31  C   UNL     1       2.436   6.959  19.364  0.00  0.00    +0.000 C 
ENDBRANCH  23  31
ENDBRANCH  19  26
ENDBRANCH  18  20
ENDBRANCH   1  18
TORSDOF 4
ENDMDL
MODEL 6
REMARK VINA RESULT:      -7.1      2.750      4.443
REMARK  Name = 
REMARK  4 active torsions:
REMARK  status: ('A' for Active; 'I' for Inactive)
REMARK    1  A    between atoms: C_2  and  C_3
REMARK    2  A    between atoms: C_6  and  N_7
REMARK    3  A    between atoms: C_8  and  C_10
REMARK    4  A    between atoms: C_10  and  N_11
REMARK                            x       y       z     vdW  Elec       q    Type
REMARK                         _______ _______ _______ _____ _____    ______ ____
ROOT
ATOM      1  N   UNL     1      -3.675  13.978  22.839  0.00  0.00    +0.000 N 
ATOM      2  C   UNL     1      -3.813  15.103  22.097  0.00  0.00    +0.000 C 
ATOM      3  O   UNL     1      -3.103  16.095  22.137  0.00  0.00    +0.000 OA
ATOM      4  N   UNL     1      -4.887  14.946  21.252  0.00  0.00    +0.000 N 
ATOM      5  C   UNL     1      -5.449  13.605  21.318  0.00  0.00    +0.000 C 
ATOM      6  C   UNL     1      -6.978  13.683  21.381  0.00  0.00    +0.000 C 
ATOM      7  C   UNL     1      -7.637  12.317  21.224  0.00  0.00    +0.000 C 
ATOM      8  C   UNL     1      -7.257  11.656  19.904  0.00  0.00    +0.000 C 
ATOM      9  C   UNL     1      -5.791  11.761  19.568  0.00  0.00    +0.000 A 
ATOM     10  C   UNL     1      -5.282  10.901  18.576  0.00  0.00    +0.000 A 
ATOM     11  C   UNL     1      -3.942  10.952  18.199  0.00  0.00    +0.000 A 
ATOM     12  C   UNL     1      -3.100  11.881  18.790  0.00  0.00    +0.000 A 
ATOM     13  C   UNL     1      -3.597  12.754  19.757  0.00  0.00    +0.000 A 
ATOM     14  C   UNL     1      -4.945  12.712  20.174  0.00  0.00    +0.000 A 
ATOM     15  C   UNL     1      -4.773  13.172  22.656  0.00  0.00    +0.000 C 
ATOM     16  O   UNL     1      -5.122  12.256  23.386  0.00  0.00    +0.000 OA
ATOM     17  H   UNL     1      -5.070  15.609  20.511  0.00  0.00    +0.000 HD
ENDROOT
BRANCH   1  18
ATOM     18  C   UNL     1      -2.533  13.686  23.683  0.00  0.00    +0.000 C 
BRANCH  18  20
ATOM     19  N   UNL     1      -1.636  11.506  22.877  0.00  0.00    +0.000 N 
ATOM     20  C   UNL     1      -1.490  12.895  22.862  0.00  0.00    +0.000 C 
ATOM     21  O   UNL     1      -0.550  13.482  22.334  0.00  0.00    +0.000 OA
ATOM     22  H   UNL     1      -2.358  11.110  23.474  0.00  0.00    +0.000 HD
BRANCH  19  26
ATOM     23  C   UNL     1       0.948   8.793  20.825  0.00  0.00    +0.000 A 
ATOM     24  C   UNL     1       0.837   8.743  22.216  0.00  0.00    +0.000 A 
ATOM     25  C   UNL     1      -0.008   9.630  22.897  0.00  0.00    +0.000 A 
ATOM     26  C   UNL     1      -0.767  10.589  22.218  0.00  0.00    +0.000 A 
ATOM     27  C   UNL     1      -0.646  10.645  20.821  0.00  0.00    +0.000 A 
ATOM     28  C   UNL     1       0.200   9.751  20.132  0.00  0.00    +0.000 A 
ATOM     29 CL   UNL     1       0.280   9.881  18.408  0.00  0.00    +0.000 Cl
BRANCH  23  31
ATOM     30  N   UNL     1       2.555   7.112  19.675  0.00  0.00    +0.000 NA
ATOM     31  C   UNL     1       1.833   7.866  20.166  0.00  0.00    +0.000 C 
ENDBRANCH  23  31
ENDBRANCH  19  26
ENDBRANCH  18  20
ENDBRANCH   1  18
TORSDOF 4
ENDMDL
MODEL 7
REMARK VINA RESULT:      -7.1      1.805      2.527
REMARK  Name = 
REMARK  4 active torsions:
REMARK  status: ('A' for Active; 'I' for Inactive)
REMARK    1  A    between atoms: C_2  and  C_3
REMARK    2  A    between atoms: C_6  and  N_7
REMARK    3  A    between atoms: C_8  and  C_10
REMARK    4  A    between atoms: C_10  and  N_11
REMARK                            x       y       z     vdW  Elec       q    Type
REMARK                         _______ _______ _______ _____ _____    ______ ____
ROOT
ATOM      1  N   UNL     1      -1.873  13.040  21.833  0.00  0.00    +0.000 N 
ATOM      2  C   UNL     1      -1.591  14.093  21.028  0.00  0.00    +0.000 C 
ATOM      3  O   UNL     1      -0.545  14.721  20.989  0.00  0.00    +0.000 OA
ATOM      4  N   UNL     1      -2.678  14.338  20.222  0.00  0.00    +0.000 N 
ATOM      5  C   UNL     1      -3.721  13.336  20.383  0.00  0.00    +0.000 C 
ATOM      6  C   UNL     1      -5.089  14.018  20.481  0.00  0.00    +0.000 C 
ATOM      7  C   UNL     1      -6.241  13.021  20.424  0.00  0.00    +0.000 C 
ATOM      8  C   UNL     1      -6.218  12.205  19.137  0.00  0.00    +0.000 C 
ATOM      9  C   UNL     1      -4.848  11.704  18.756  0.00  0.00    +0.000 A 
ATOM     10  C   UNL     1      -4.768  10.668  17.805  0.00  0.00    +0.000 A 
ATOM     11  C   UNL     1      -3.537  10.166  17.392  0.00  0.00    +0.000 A 
ATOM     12  C   UNL     1      -2.369  10.708  17.903  0.00  0.00    +0.000 A 
ATOM     13  C   UNL     1      -2.433  11.750  18.828  0.00  0.00    +0.000 A 
ATOM     14  C   UNL     1      -3.666  12.265  19.282  0.00  0.00    +0.000 A 
ATOM     15  C   UNL     1      -3.207  12.730  21.727  0.00  0.00    +0.000 C 
ATOM     16  O   UNL     1      -3.855  12.062  22.519  0.00  0.00    +0.000 OA
ATOM     17  H   UNL     1      -2.618  14.985  19.448  0.00  0.00    +0.000 HD
ENDROOT
BRANCH   1  18
ATOM     18  C   UNL     1      -0.900  12.357  22.662  0.00  0.00    +0.000 C 
BRANCH  18  20
ATOM     19  N   UNL     1      -0.241  10.370  21.310  0.00  0.00    +0.000 N 
ATOM     20  C   UNL     1       0.124  11.644  21.752  0.00  0.00    +0.000 C 
ATOM     21  O   UNL     1       1.221  12.156  21.542  0.00  0.00    +0.000 OA
ATOM     22  H   UNL     1      -1.106   9.973  21.670  0.00  0.00    +0.000 HD
BRANCH  19  26
ATOM     23  C   UNL     1       2.186   7.788  18.925  0.00  0.00    +0.000 A 
ATOM     24  C   UNL     1       1.783   9.030  18.430  0.00  0.00    +0.000 A 
ATOM     25  C   UNL     1       0.986   9.883  19.206  0.00  0.00    +0.000 A 
ATOM     26  C   UNL     1       0.568   9.529  20.494  0.00  0.00    +0.000 A 
ATOM     27  C   UNL     1       0.965   8.275  20.985  0.00  0.00    +0.000 A 
ATOM     28  C   UNL     1       1.771   7.417  20.208  0.00  0.00    +0.000 A 
ATOM     29 CL   UNL     1       2.225   5.894  20.896  0.00  0.00    +0.000 Cl
BRANCH  23  31
ATOM     30  N   UNL     1       3.684   6.280  17.438  0.00  0.00    +0.000 NA
ATOM     31  C   UNL     1       3.000   6.941  18.090  0.00  0.00    +0.000 C 
ENDBRANCH  23  31
ENDBRANCH  19  26
ENDBRANCH  18  20
ENDBRANCH   1  18
TORSDOF 4
ENDMDL
MODEL 8
REMARK VINA RESULT:      -7.1      4.077      6.291
REMARK  Name = 
REMARK  4 active torsions:
REMARK  status: ('A' for Active; 'I' for Inactive)
REMARK    1  A    between atoms: C_2  and  C_3
REMARK    2  A    between atoms: C_6  and  N_7
REMARK    3  A    between atoms: C_8  and  C_10
REMARK    4  A    between atoms: C_10  and  N_11
REMARK                            x       y       z     vdW  Elec       q    Type
REMARK                         _______ _______ _______ _____ _____    ______ ____
ROOT
ATOM      1  N   UNL     1      -6.254  13.015  20.495  0.00  0.00    +0.000 N 
ATOM      2  C   UNL     1      -6.678  12.053  21.348  0.00  0.00    +0.000 C 
ATOM      3  O   UNL     1      -7.158  10.971  21.048  0.00  0.00    +0.000 OA
ATOM      4  N   UNL     1      -6.458  12.477  22.638  0.00  0.00    +0.000 N 
ATOM      5  C   UNL     1      -5.735  13.739  22.687  0.00  0.00    +0.000 C 
ATOM      6  C   UNL     1      -6.385  14.673  23.712  0.00  0.00    +0.000 C 
ATOM      7  C   UNL     1      -5.548  15.920  23.977  0.00  0.00    +0.000 C 
ATOM      8  C   UNL     1      -4.155  15.566  24.485  0.00  0.00    +0.000 C 
ATOM      9  C   UNL     1      -3.499  14.437  23.732  0.00  0.00    +0.000 A 
ATOM     10  C   UNL     1      -2.108  14.269  23.881  0.00  0.00    +0.000 A 
ATOM     11  C   UNL     1      -1.435  13.238  23.231  0.00  0.00    +0.000 A 
ATOM     12  C   UNL     1      -2.146  12.345  22.444  0.00  0.00    +0.000 A 
ATOM     13  C   UNL     1      -3.527  12.485  22.308  0.00  0.00    +0.000 A 
ATOM     14  C   UNL     1      -4.233  13.533  22.937  0.00  0.00    +0.000 A 
ATOM     15  C   UNL     1      -5.965  14.157  21.201  0.00  0.00    +0.000 C 
ATOM     16  O   UNL     1      -5.861  15.283  20.736  0.00  0.00    +0.000 OA
ATOM     17  H   UNL     1      -6.566  11.847  23.421  0.00  0.00    +0.000 HD
ENDROOT
BRANCH   1  18
ATOM     18  C   UNL     1      -6.124  12.841  19.061  0.00  0.00    +0.000 C 
BRANCH  18  20
ATOM     19  N   UNL     1      -3.676  12.420  18.871  0.00  0.00    +0.000 N 
ATOM     20  C   UNL     1      -4.956  11.871  18.775  0.00  0.00    +0.000 C 
ATOM     21  O   UNL     1      -5.188  10.728  18.389  0.00  0.00    +0.000 OA
ATOM     22  H   UNL     1      -3.599  13.419  19.046  0.00  0.00    +0.000 HD
BRANCH  19  26
ATOM     23  C   UNL     1      -0.004  10.360  18.147  0.00  0.00    +0.000 A 
ATOM     24  C   UNL     1      -1.211   9.831  17.685  0.00  0.00    +0.000 A 
ATOM     25  C   UNL     1      -2.420  10.500  17.919  0.00  0.00    +0.000 A 
ATOM     26  C   UNL     1      -2.466  11.713  18.616  0.00  0.00    +0.000 A 
ATOM     27  C   UNL     1      -1.254  12.237  19.089  0.00  0.00    +0.000 A 
ATOM     28  C   UNL     1      -0.035  11.569  18.850  0.00  0.00    +0.000 A 
ATOM     29 CL   UNL     1       1.416  12.292  19.459  0.00  0.00    +0.000 Cl
BRANCH  23  31
ATOM     30  N   UNL     1       2.198   9.082  17.654  0.00  0.00    +0.000 NA
ATOM     31  C   UNL     1       1.214   9.635  17.889  0.00  0.00    +0.000 C 
ENDBRANCH  23  31
ENDBRANCH  19  26
ENDBRANCH  18  20
ENDBRANCH   1  18
TORSDOF 4
ENDMDL
MODEL 9
REMARK VINA RESULT:      -7.1      6.494      9.520
REMARK  Name = 
REMARK  4 active torsions:
REMARK  status: ('A' for Active; 'I' for Inactive)
REMARK    1  A    between atoms: C_2  and  C_3
REMARK    2  A    between atoms: C_6  and  N_7
REMARK    3  A    between atoms: C_8  and  C_10
REMARK    4  A    between atoms: C_10  and  N_11
REMARK                            x       y       z     vdW  Elec       q    Type
REMARK                         _______ _______ _______ _____ _____    ______ ____
ROOT
ATOM      1  N   UNL     1       5.537   6.125  17.561  0.00  0.00    +0.000 N 
ATOM      2  C   UNL     1       4.698   6.505  16.569  0.00  0.00    +0.000 C 
ATOM      3  O   UNL     1       5.011   6.864  15.445  0.00  0.00    +0.000 OA
ATOM      4  N   UNL     1       3.402   6.400  17.021  0.00  0.00    +0.000 N 
ATOM      5  C   UNL     1       3.328   5.802  18.346  0.00  0.00    +0.000 C 
ATOM      6  C   UNL     1       2.352   6.594  19.221  0.00  0.00    +0.000 C 
ATOM      7  C   UNL     1       2.056   5.894  20.543  0.00  0.00    +0.000 C 
ATOM      8  C   UNL     1       1.466   4.505  20.325  0.00  0.00    +0.000 C 
ATOM      9  C   UNL     1       2.167   3.704  19.257  0.00  0.00    +0.000 A 
ATOM     10  C   UNL     1       1.939   2.315  19.223  0.00  0.00    +0.000 A 
ATOM     11  C   UNL     1       2.538   1.512  18.255  0.00  0.00    +0.000 A 
ATOM     12  C   UNL     1       3.352   2.091  17.294  0.00  0.00    +0.000 A 
ATOM     13  C   UNL     1       3.568   3.468  17.302  0.00  0.00    +0.000 A 
ATOM     14  C   UNL     1       2.992   4.304  18.283  0.00  0.00    +0.000 A 
ATOM     15  C   UNL     1       4.829   5.985  18.730  0.00  0.00    +0.000 C 
ATOM     16  O   UNL     1       5.301   5.960  19.857  0.00  0.00    +0.000 OA
ATOM     17  H   UNL     1       2.620   6.493  16.388  0.00  0.00    +0.000 HD
ENDROOT
BRANCH   1  18
ATOM     18  C   UNL     1       6.959   5.898  17.391  0.00  0.00    +0.000 C 
BRANCH  18  20
ATOM     19  N   UNL     1       7.639   8.288  17.563  0.00  0.00    +0.000 N 
ATOM     20  C   UNL     1       7.738   7.013  18.123  0.00  0.00    +0.000 C 
ATOM     21  O   UNL     1       8.469   6.732  19.069  0.00  0.00    +0.000 OA
ATOM     22  H   UNL     1       7.132   8.384  16.686  0.00  0.00    +0.000 HD
BRANCH  19  26
ATOM     23  C   UNL     1       9.583  11.814  18.991  0.00  0.00    +0.000 A 
ATOM     24  C   UNL     1       9.893  10.568  19.541  0.00  0.00    +0.000 A 
ATOM     25  C   UNL     1       9.259   9.407  19.079  0.00  0.00    +0.000 A 
ATOM     26  C   UNL     1       8.303   9.448  18.058  0.00  0.00    +0.000 A 
ATOM     27  C   UNL     1       7.985  10.702  17.514  0.00  0.00    +0.000 A 
ATOM     28  C   UNL     1       8.625  11.872  17.974  0.00  0.00    +0.000 A 
ATOM     29 CL   UNL     1       8.183  13.376  17.240  0.00  0.00    +0.000 Cl
BRANCH  23  31
ATOM     30  N   UNL     1      10.814  13.894  19.935  0.00  0.00    +0.000 NA
ATOM     31  C   UNL     1      10.255  12.982  19.502  0.00  0.00    +0.000 C 
ENDBRANCH  23  31
ENDBRANCH  19  26
ENDBRANCH  18  20
ENDBRANCH   1  18
TORSDOF 4
ENDMDL
