MODEL 1
REMARK VINA RESULT:      -8.9      0.000      0.000
REMARK  Name = 
REMARK  2 active torsions:
REMARK  status: ('A' for Active; 'I' for Inactive)
REMARK    1  A    between atoms: C_2  and  C_15
REMARK    2  A    between atoms: C_8  and  C_9
REMARK                            x       y       z     vdW  Elec       q    Type
REMARK                         _______ _______ _______ _____ _____    ______ ____
ROOT
ATOM      1  O   UNL     1       6.318   5.815  17.305  0.00  0.00    +0.000 OA
ATOM      2  C   UNL     1       5.506   5.137  16.693  0.00  0.00    +0.000 C 
ATOM      3  N   UNL     1       5.607   4.723  15.370  0.00  0.00    +0.000 N 
ATOM      4  C   UNL     1       6.682   4.990  14.539  0.00  0.00    +0.000 A 
ATOM      5  N   UNL     1       7.717   5.761  14.868  0.00  0.00    +0.000 NA
ATOM      6  O   UNL     1       8.539   5.786  13.761  0.00  0.00    +0.000 OA
ATOM      7  N   UNL     1       8.025   5.014  12.737  0.00  0.00    +0.000 NA
ATOM      8  C   UNL     1       6.880   4.505  13.211  0.00  0.00    +0.000 A 
ATOM      9  H   UNL     1       4.813   4.228  14.980  0.00  0.00    +0.000 HD
ENDROOT
BRANCH   2  10
ATOM     10  C   UNL     1       4.291   4.521  17.394  0.00  0.00    +0.000 C 
ATOM     11  C   UNL     1       4.196   3.020  17.086  0.00  0.00    +0.000 C 
ATOM     12  O   UNL     1       3.530   2.213  18.069  0.00  0.00    +0.000 OA
ATOM     13  C   UNL     1       2.843   2.943  18.993  0.00  0.00    +0.000 A 
ATOM     14  C   UNL     1       1.717   2.363  19.565  0.00  0.00    +0.000 A 
ATOM     15  C   UNL     1       0.952   3.097  20.472  0.00  0.00    +0.000 A 
ATOM     16  C   UNL     1       1.347   4.386  20.844  0.00  0.00    +0.000 A 
ATOM     17  C   UNL     1       2.509   4.946  20.309  0.00  0.00    +0.000 A 
ATOM     18  C   UNL     1       3.235   4.227  19.366  0.00  0.00    +0.000 A 
ATOM     19  O   UNL     1       4.330   4.816  18.794  0.00  0.00    +0.000 OA
ENDBRANCH   2  10
BRANCH   8  20
ATOM     20  C   UNL     1       6.070   3.605  12.384  0.00  0.00    +0.000 A 
ATOM     21  C   UNL     1       4.741   3.895  12.052  0.00  0.00    +0.000 A 
ATOM     22  C   UNL     1       4.001   3.017  11.254  0.00  0.00    +0.000 A 
ATOM     23  C   UNL     1       4.575   1.834  10.793  0.00  0.00    +0.000 A 
ATOM     24  C   UNL     1       5.886   1.518  11.140  0.00  0.00    +0.000 A 
ATOM     25  C   UNL     1       6.629   2.396  11.931  0.00  0.00    +0.000 A 
ENDBRANCH   8  20
TORSDOF 2
ENDMDL
MODEL 2
REMARK VINA RESULT:      -8.5      3.194      8.079
REMARK  Name = 
REMARK  2 active torsions:
REMARK  status: ('A' for Active; 'I' for Inactive)
REMARK    1  A    between atoms: C_2  and  C_15
REMARK    2  A    between atoms: C_8  and  C_9
REMARK                            x       y       z     vdW  Elec       q    Type
REMARK                         _______ _______ _______ _____ _____    ______ ____
ROOT
ATOM      1  O   UNL     1       4.718   3.137  18.039  0.00  0.00    +0.000 OA
ATOM      2  C   UNL     1       4.481   4.210  17.502  0.00  0.00    +0.000 C 
ATOM      3  N   UNL     1       3.666   5.219  18.001  0.00  0.00    +0.000 N 
ATOM      4  C   UNL     1       3.016   5.179  19.222  0.00  0.00    +0.000 A 
ATOM      5  N   UNL     1       3.008   4.126  20.038  0.00  0.00    +0.000 NA
ATOM      6  O   UNL     1       2.233   4.487  21.120  0.00  0.00    +0.000 OA
ATOM      7  N   UNL     1       1.764   5.782  20.989  0.00  0.00    +0.000 NA
ATOM      8  C   UNL     1       2.253   6.225  19.824  0.00  0.00    +0.000 A 
ATOM      9  H   UNL     1       3.506   6.021  17.402  0.00  0.00    +0.000 HD
ENDROOT
BRANCH   2  10
ATOM     10  C   UNL     1       5.202   4.638  16.220  0.00  0.00    +0.000 C 
ATOM     11  C   UNL     1       6.343   5.613  16.545  0.00  0.00    +0.000 C 
ATOM     12  O   UNL     1       7.435   5.643  15.613  0.00  0.00    +0.000 OA
ATOM     13  C   UNL     1       7.163   5.002  14.441  0.00  0.00    +0.000 A 
ATOM     14  C   UNL     1       7.803   5.458  13.294  0.00  0.00    +0.000 A 
ATOM     15  C   UNL     1       7.509   4.868  12.064  0.00  0.00    +0.000 A 
ATOM     16  C   UNL     1       6.621   3.791  11.995  0.00  0.00    +0.000 A 
ATOM     17  C   UNL     1       6.022   3.300  13.155  0.00  0.00    +0.000 A 
ATOM     18  C   UNL     1       6.279   3.928  14.369  0.00  0.00    +0.000 A 
ATOM     19  O   UNL     1       5.628   3.484  15.488  0.00  0.00    +0.000 OA
ENDBRANCH   2  10
BRANCH   8  20
ATOM     20  C   UNL     1       1.970   7.591  19.372  0.00  0.00    +0.000 A 
ATOM     21  C   UNL     1       2.323   8.038  18.093  0.00  0.00    +0.000 A 
ATOM     22  C   UNL     1       2.029   9.346  17.692  0.00  0.00    +0.000 A 
ATOM     23  C   UNL     1       1.395  10.223  18.570  0.00  0.00    +0.000 A 
ATOM     24  C   UNL     1       1.065   9.801  19.855  0.00  0.00    +0.000 A 
ATOM     25  C   UNL     1       1.351   8.494  20.255  0.00  0.00    +0.000 A 
ENDBRANCH   8  20
TORSDOF 2
ENDMDL
MODEL 3
REMARK VINA RESULT:      -8.5      4.850      7.237
REMARK  Name = 
REMARK  2 active torsions:
REMARK  status: ('A' for Active; 'I' for Inactive)
REMARK    1  A    between atoms: C_2  and  C_15
REMARK    2  A    between atoms: C_8  and  C_9
REMARK                            x       y       z     vdW  Elec       q    Type
REMARK                         _______ _______ _______ _____ _____    ______ ____
ROOT
ATOM      1  O   UNL     1       1.024   5.287  20.814  0.00  0.00    +0.000 OA
ATOM      2  C   UNL     1       1.850   6.168  20.624  0.00  0.00    +0.000 C 
ATOM      3  N   UNL     1       3.126   6.004  20.099  0.00  0.00    +0.000 N 
ATOM      4  C   UNL     1       3.653   4.799  19.667  0.00  0.00    +0.000 A 
ATOM      5  N   UNL     1       3.042   3.621  19.788  0.00  0.00    +0.000 NA
ATOM      6  O   UNL     1       3.910   2.686  19.264  0.00  0.00    +0.000 OA
ATOM      7  N   UNL     1       5.067   3.283  18.797  0.00  0.00    +0.000 NA
ATOM      8  C   UNL     1       4.915   4.593  19.030  0.00  0.00    +0.000 A 
ATOM      9  H   UNL     1       3.724   6.822  20.074  0.00  0.00    +0.000 HD
ENDROOT
BRANCH   2  10
ATOM     10  C   UNL     1       1.501   7.646  20.826  0.00  0.00    +0.000 C 
ATOM     11  C   UNL     1       1.623   8.414  19.502  0.00  0.00    +0.000 C 
ATOM     12  O   UNL     1       0.809   9.589  19.374  0.00  0.00    +0.000 OA
ATOM     13  C   UNL     1       0.257   9.996  20.552  0.00  0.00    +0.000 A 
ATOM     14  C   UNL     1       0.005  11.353  20.710  0.00  0.00    +0.000 A 
ATOM     15  C   UNL     1      -0.506  11.820  21.922  0.00  0.00    +0.000 A 
ATOM     16  C   UNL     1      -0.813  10.922  22.949  0.00  0.00    +0.000 A 
ATOM     17  C   UNL     1      -0.609   9.553  22.767  0.00  0.00    +0.000 A 
ATOM     18  C   UNL     1      -0.051   9.102  21.576  0.00  0.00    +0.000 A 
ATOM     19  O   UNL     1       0.213   7.767  21.440  0.00  0.00    +0.000 OA
ENDBRANCH   2  10
BRANCH   8  20
ATOM     20  C   UNL     1       5.958   5.543  18.632  0.00  0.00    +0.000 A 
ATOM     21  C   UNL     1       7.177   5.636  19.316  0.00  0.00    +0.000 A 
ATOM     22  C   UNL     1       8.153   6.549  18.904  0.00  0.00    +0.000 A 
ATOM     23  C   UNL     1       7.916   7.387  17.816  0.00  0.00    +0.000 A 
ATOM     24  C   UNL     1       6.697   7.326  17.145  0.00  0.00    +0.000 A 
ATOM     25  C   UNL     1       5.724   6.411  17.551  0.00  0.00    +0.000 A 
ENDBRANCH   8  20
TORSDOF 2
ENDMDL
MODEL 4
REMARK VINA RESULT:      -8.5      0.959      1.207
REMARK  Name = 
REMARK  2 active torsions:
REMARK  status: ('A' for Active; 'I' for Inactive)
REMARK    1  A    between atoms: C_2  and  C_15
REMARK    2  A    between atoms: C_8  and  C_9
REMARK                            x       y       z     vdW  Elec       q    Type
REMARK                         _______ _______ _______ _____ _____    ______ ____
ROOT
ATOM      1  O   UNL     1       6.757   5.526  17.347  0.00  0.00    +0.000 OA
ATOM      2  C   UNL     1       5.934   4.816  16.786  0.00  0.00    +0.000 C 
ATOM      3  N   UNL     1       5.913   4.486  15.437  0.00  0.00    +0.000 N 
ATOM      4  C   UNL     1       6.861   4.886  14.511  0.00  0.00    +0.000 A 
ATOM      5  N   UNL     1       7.866   5.721  14.771  0.00  0.00    +0.000 NA
ATOM      6  O   UNL     1       8.551   5.876  13.585  0.00  0.00    +0.000 OA
ATOM      7  N   UNL     1       7.982   5.120  12.576  0.00  0.00    +0.000 NA
ATOM      8  C   UNL     1       6.942   4.493  13.140  0.00  0.00    +0.000 A 
ATOM      9  H   UNL     1       5.120   3.948  15.106  0.00  0.00    +0.000 HD
ENDROOT
BRANCH   2  10
ATOM     10  C   UNL     1       4.859   4.064  17.576  0.00  0.00    +0.000 C 
ATOM     11  C   UNL     1       5.360   3.737  18.990  0.00  0.00    +0.000 C 
ATOM     12  O   UNL     1       4.352   3.589  20.001  0.00  0.00    +0.000 OA
ATOM     13  C   UNL     1       3.090   3.489  19.495  0.00  0.00    +0.000 A 
ATOM     14  C   UNL     1       2.161   2.754  20.222  0.00  0.00    +0.000 A 
ATOM     15  C   UNL     1       0.873   2.579  19.712  0.00  0.00    +0.000 A 
ATOM     16  C   UNL     1       0.506   3.185  18.507  0.00  0.00    +0.000 A 
ATOM     17  C   UNL     1       1.425   3.968  17.806  0.00  0.00    +0.000 A 
ATOM     18  C   UNL     1       2.720   4.093  18.295  0.00  0.00    +0.000 A 
ATOM     19  O   UNL     1       3.632   4.802  17.561  0.00  0.00    +0.000 OA
ENDBRANCH   2  10
BRANCH   8  20
ATOM     20  C   UNL     1       6.114   3.574  12.353  0.00  0.00    +0.000 A 
ATOM     21  C   UNL     1       4.776   3.855  12.050  0.00  0.00    +0.000 A 
ATOM     22  C   UNL     1       4.017   2.959  11.289  0.00  0.00    +0.000 A 
ATOM     23  C   UNL     1       4.583   1.769  10.836  0.00  0.00    +0.000 A 
ATOM     24  C   UNL     1       5.904   1.463  11.154  0.00  0.00    +0.000 A 
ATOM     25  C   UNL     1       6.664   2.358  11.908  0.00  0.00    +0.000 A 
ENDBRANCH   8  20
TORSDOF 2
ENDMDL
MODEL 5
REMARK VINA RESULT:      -8.4      5.484      8.238
REMARK  Name = 
REMARK  2 active torsions:
REMARK  status: ('A' for Active; 'I' for Inactive)
REMARK    1  A    between atoms: C_2  and  C_15
REMARK    2  A    between atoms: C_8  and  C_9
REMARK                            x       y       z     vdW  Elec       q    Type
REMARK                         _______ _______ _______ _____ _____    ______ ____
ROOT
ATOM      1  O   UNL     1       2.150  10.076  18.299  0.00  0.00    +0.000 OA
ATOM      2  C   UNL     1       1.507   9.292  18.984  0.00  0.00    +0.000 C 
ATOM      3  N   UNL     1       1.673   7.914  19.035  0.00  0.00    +0.000 N 
ATOM      4  C   UNL     1       2.636   7.207  18.334  0.00  0.00    +0.000 A 
ATOM      5  N   UNL     1       3.467   7.745  17.443  0.00  0.00    +0.000 NA
ATOM      6  O   UNL     1       4.235   6.706  16.963  0.00  0.00    +0.000 OA
ATOM      7  N   UNL     1       3.895   5.510  17.568  0.00  0.00    +0.000 NA
ATOM      8  C   UNL     1       2.913   5.810  18.428  0.00  0.00    +0.000 A 
ATOM      9  H   UNL     1       1.010   7.390  19.595  0.00  0.00    +0.000 HD
ENDROOT
BRANCH   2  10
ATOM     10  C   UNL     1       0.487   9.784  20.015  0.00  0.00    +0.000 C 
ATOM     11  C   UNL     1       0.968   9.470  21.439  0.00  0.00    +0.000 C 
ATOM     12  O   UNL     1       0.479  10.332  22.478  0.00  0.00    +0.000 OA
ATOM     13  C   UNL     1      -0.554  11.127  22.079  0.00  0.00    +0.000 A 
ATOM     14  C   UNL     1      -1.483  11.507  23.040  0.00  0.00    +0.000 A 
ATOM     15  C   UNL     1      -2.586  12.274  22.663  0.00  0.00    +0.000 A 
ATOM     16  C   UNL     1      -2.726  12.702  21.339  0.00  0.00    +0.000 A 
ATOM     17  C   UNL     1      -1.762  12.365  20.387  0.00  0.00    +0.000 A 
ATOM     18  C   UNL     1      -0.694  11.556  20.761  0.00  0.00    +0.000 A 
ATOM     19  O   UNL     1       0.203  11.171  19.802  0.00  0.00    +0.000 OA
ENDBRANCH   2  10
BRANCH   8  20
ATOM     20  C   UNL     1       2.320   4.766  19.270  0.00  0.00    +0.000 A 
ATOM     21  C   UNL     1       1.413   3.829  18.762  0.00  0.00    +0.000 A 
ATOM     22  C   UNL     1       0.873   2.841  19.593  0.00  0.00    +0.000 A 
ATOM     23  C   UNL     1       1.223   2.789  20.941  0.00  0.00    +0.000 A 
ATOM     24  C   UNL     1       2.102   3.733  21.466  0.00  0.00    +0.000 A 
ATOM     25  C   UNL     1       2.646   4.716  20.638  0.00  0.00    +0.000 A 
ENDBRANCH   8  20
TORSDOF 2
ENDMDL
MODEL 6
REMARK VINA RESULT:      -8.3      5.510      8.251
REMARK  Name = 
REMARK  2 active torsions:
REMARK  status: ('A' for Active; 'I' for Inactive)
REMARK    1  A    between atoms: C_2  and  C_15
REMARK    2  A    between atoms: C_8  and  C_9
REMARK                            x       y       z     vdW  Elec       q    Type
REMARK                         _______ _______ _______ _____ _____    ______ ____
ROOT
ATOM      1  O   UNL     1       2.165  10.045  18.093  0.00  0.00    +0.000 OA
ATOM      2  C   UNL     1       1.519   9.290  18.807  0.00  0.00    +0.000 C 
ATOM      3  N   UNL     1       1.690   7.916  18.922  0.00  0.00    +0.000 N 
ATOM      4  C   UNL     1       2.661   7.182  18.261  0.00  0.00    +0.000 A 
ATOM      5  N   UNL     1       3.497   7.683  17.353  0.00  0.00    +0.000 NA
ATOM      6  O   UNL     1       4.273   6.626  16.926  0.00  0.00    +0.000 OA
ATOM      7  N   UNL     1       3.932   5.457  17.581  0.00  0.00    +0.000 NA
ATOM      8  C   UNL     1       2.942   5.792  18.420  0.00  0.00    +0.000 A 
ATOM      9  H   UNL     1       1.024   7.415  19.499  0.00  0.00    +0.000 HD
ENDROOT
BRANCH   2  10
ATOM     10  C   UNL     1       0.490   9.824  19.808  0.00  0.00    +0.000 C 
ATOM     11  C   UNL     1       0.997   9.649  21.247  0.00  0.00    +0.000 C 
ATOM     12  O   UNL     1       0.482  10.573  22.217  0.00  0.00    +0.000 OA
ATOM     13  C   UNL     1      -0.587  11.290  21.766  0.00  0.00    +0.000 A 
ATOM     14  C   UNL     1      -1.522  11.710  22.705  0.00  0.00    +0.000 A 
ATOM     15  C   UNL     1      -2.660  12.397  22.279  0.00  0.00    +0.000 A 
ATOM     16  C   UNL     1      -2.830  12.708  20.927  0.00  0.00    +0.000 A 
ATOM     17  C   UNL     1      -1.862  12.332  19.994  0.00  0.00    +0.000 A 
ATOM     18  C   UNL     1      -0.758  11.602  20.419  0.00  0.00    +0.000 A 
ATOM     19  O   UNL     1       0.146  11.175  19.484  0.00  0.00    +0.000 OA
ENDBRANCH   2  10
BRANCH   8  20
ATOM     20  C   UNL     1       2.346   4.784  19.303  0.00  0.00    +0.000 A 
ATOM     21  C   UNL     1       2.613   4.751  20.677  0.00  0.00    +0.000 A 
ATOM     22  C   UNL     1       2.020   3.780  21.492  0.00  0.00    +0.000 A 
ATOM     23  C   UNL     1       1.168   2.825  20.939  0.00  0.00    +0.000 A 
ATOM     24  C   UNL     1       0.917   2.829  19.570  0.00  0.00    +0.000 A 
ATOM     25  C   UNL     1       1.503   3.800  18.756  0.00  0.00    +0.000 A 
ENDBRANCH   8  20
TORSDOF 2
ENDMDL
MODEL 7
REMARK VINA RESULT:      -8.1      1.118      1.729
REMARK  Name = 
REMARK  2 active torsions:
REMARK  status: ('A' for Active; 'I' for Inactive)
REMARK    1  A    between atoms: C_2  and  C_15
REMARK    2  A    between atoms: C_8  and  C_9
REMARK                            x       y       z     vdW  Elec       q    Type
REMARK                         _______ _______ _______ _____ _____    ______ ____
ROOT
ATOM      1  O   UNL     1       6.868   6.150  17.073  0.00  0.00    +0.000 OA
ATOM      2  C   UNL     1       5.978   5.481  16.566  0.00  0.00    +0.000 C 
ATOM      3  N   UNL     1       5.951   4.999  15.263  0.00  0.00    +0.000 N 
ATOM      4  C   UNL     1       6.963   5.171  14.335  0.00  0.00    +0.000 A 
ATOM      5  N   UNL     1       8.055   5.907  14.537  0.00  0.00    +0.000 NA
ATOM      6  O   UNL     1       8.782   5.838  13.368  0.00  0.00    +0.000 OA
ATOM      7  N   UNL     1       8.151   5.042  12.431  0.00  0.00    +0.000 NA
ATOM      8  C   UNL     1       7.028   4.613  13.022  0.00  0.00    +0.000 A 
ATOM      9  H   UNL     1       5.106   4.524  14.965  0.00  0.00    +0.000 HD
ENDROOT
BRANCH   2  10
ATOM     10  C   UNL     1       4.800   4.960  17.394  0.00  0.00    +0.000 C 
ATOM     11  C   UNL     1       3.816   6.097  17.705  0.00  0.00    +0.000 C 
ATOM     12  O   UNL     1       2.452   5.711  17.929  0.00  0.00    +0.000 OA
ATOM     13  C   UNL     1       2.292   4.369  18.104  0.00  0.00    +0.000 A 
ATOM     14  C   UNL     1       1.239   3.944  18.905  0.00  0.00    +0.000 A 
ATOM     15  C   UNL     1       1.074   2.581  19.156  0.00  0.00    +0.000 A 
ATOM     16  C   UNL     1       1.927   1.648  18.561  0.00  0.00    +0.000 A 
ATOM     17  C   UNL     1       2.950   2.074  17.712  0.00  0.00    +0.000 A 
ATOM     18  C   UNL     1       3.141   3.436  17.510  0.00  0.00    +0.000 A 
ATOM     19  O   UNL     1       4.193   3.843  16.736  0.00  0.00    +0.000 OA
ENDBRANCH   2  10
BRANCH   8  20
ATOM     20  C   UNL     1       6.114   3.713  12.313  0.00  0.00    +0.000 A 
ATOM     21  C   UNL     1       4.792   4.073  12.025  0.00  0.00    +0.000 A 
ATOM     22  C   UNL     1       3.949   3.192  11.339  0.00  0.00    +0.000 A 
ATOM     23  C   UNL     1       4.414   1.937  10.948  0.00  0.00    +0.000 A 
ATOM     24  C   UNL     1       5.717   1.554  11.255  0.00  0.00    +0.000 A 
ATOM     25  C   UNL     1       6.561   2.434  11.934  0.00  0.00    +0.000 A 
ENDBRANCH   8  20
TORSDOF 2
ENDMDL
MODEL 8
REMARK VINA RESULT:      -8.1      5.641      8.022
REMARK  Name = 
REMARK  2 active torsions:
REMARK  status: ('A' for Active; 'I' for Inactive)
REMARK    1  A    between atoms: C_2  and  C_15
REMARK    2  A    between atoms: C_8  and  C_9
REMARK                            x       y       z     vdW  Elec       q    Type
REMARK                         _______ _______ _______ _____ _____    ______ ____
ROOT
ATOM      1  O   UNL     1       2.578  10.129  17.462  0.00  0.00    +0.000 OA
ATOM      2  C   UNL     1       1.715   9.373  17.886  0.00  0.00    +0.000 C 
ATOM      3  N   UNL     1       1.852   8.009  18.111  0.00  0.00    +0.000 N 
ATOM      4  C   UNL     1       3.020   7.290  17.923  0.00  0.00    +0.000 A 
ATOM      5  N   UNL     1       4.141   7.794  17.408  0.00  0.00    +0.000 NA
ATOM      6  O   UNL     1       5.043   6.752  17.367  0.00  0.00    +0.000 OA
ATOM      7  N   UNL     1       4.490   5.591  17.875  0.00  0.00    +0.000 NA
ATOM      8  C   UNL     1       3.241   5.915  18.234  0.00  0.00    +0.000 A 
ATOM      9  H   UNL     1       1.020   7.502  18.393  0.00  0.00    +0.000 HD
ENDROOT
BRANCH   2  10
ATOM     10  C   UNL     1       0.360   9.900  18.370  0.00  0.00    +0.000 C 
ATOM     11  C   UNL     1       0.540  11.209  19.152  0.00  0.00    +0.000 C 
ATOM     12  O   UNL     1      -0.583  12.103  19.157  0.00  0.00    +0.000 OA
ATOM     13  C   UNL     1      -1.732  11.531  18.697  0.00  0.00    +0.000 A 
ATOM     14  C   UNL     1      -2.936  12.008  19.203  0.00  0.00    +0.000 A 
ATOM     15  C   UNL     1      -4.132  11.411  18.802  0.00  0.00    +0.000 A 
ATOM     16  C   UNL     1      -4.123  10.380  17.858  0.00  0.00    +0.000 A 
ATOM     17  C   UNL     1      -2.916   9.940  17.311  0.00  0.00    +0.000 A 
ATOM     18  C   UNL     1      -1.725  10.504  17.755  0.00  0.00    +0.000 A 
ATOM     19  O   UNL     1      -0.545  10.013  17.267  0.00  0.00    +0.000 OA
ENDBRANCH   2  10
BRANCH   8  20
ATOM     20  C   UNL     1       2.361   4.913  18.843  0.00  0.00    +0.000 A 
ATOM     21  C   UNL     1       2.034   4.940  20.204  0.00  0.00    +0.000 A 
ATOM     22  C   UNL     1       1.184   3.972  20.750  0.00  0.00    +0.000 A 
ATOM     23  C   UNL     1       0.665   2.960  19.944  0.00  0.00    +0.000 A 
ATOM     24  C   UNL     1       1.005   2.903  18.595  0.00  0.00    +0.000 A 
ATOM     25  C   UNL     1       1.848   3.872  18.048  0.00  0.00    +0.000 A 
ENDBRANCH   8  20
TORSDOF 2
ENDMDL
MODEL 9
REMARK VINA RESULT:      -8.0      4.576      7.305
REMARK  Name = 
REMARK  2 active torsions:
REMARK  status: ('A' for Active; 'I' for Inactive)
REMARK    1  A    between atoms: C_2  and  C_15
REMARK    2  A    between atoms: C_8  and  C_9
REMARK                            x       y       z     vdW  Elec       q    Type
REMARK                         _______ _______ _______ _____ _____    ______ ____
ROOT
ATOM      1  O   UNL     1       3.275   8.640  17.165  0.00  0.00    +0.000 OA
ATOM      2  C   UNL     1       2.604   8.171  18.073  0.00  0.00    +0.000 C 
ATOM      3  N   UNL     1       2.570   6.839  18.469  0.00  0.00    +0.000 N 
ATOM      4  C   UNL     1       3.334   5.829  17.910  0.00  0.00    +0.000 A 
ATOM      5  N   UNL     1       4.130   5.982  16.853  0.00  0.00    +0.000 NA
ATOM      6  O   UNL     1       4.678   4.741  16.607  0.00  0.00    +0.000 OA
ATOM      7  N   UNL     1       4.235   3.806  17.524  0.00  0.00    +0.000 NA
ATOM      8  C   UNL     1       3.411   4.471  18.344  0.00  0.00    +0.000 A 
ATOM      9  H   UNL     1       1.903   6.589  19.191  0.00  0.00    +0.000 HD
ENDROOT
BRANCH   2  10
ATOM     10  C   UNL     1       1.790   9.067  19.010  0.00  0.00    +0.000 C 
ATOM     11  C   UNL     1       0.747   9.869  18.218  0.00  0.00    +0.000 C 
ATOM     12  O   UNL     1      -0.425  10.272  18.941  0.00  0.00    +0.000 OA
ATOM     13  C   UNL     1      -0.307  10.120  20.290  0.00  0.00    +0.000 A 
ATOM     14  C   UNL     1      -1.026  10.989  21.102  0.00  0.00    +0.000 A 
ATOM     15  C   UNL     1      -0.890  10.904  22.488  0.00  0.00    +0.000 A 
ATOM     16  C   UNL     1      -0.080   9.917  23.056  0.00  0.00    +0.000 A 
ATOM     17  C   UNL     1       0.597   9.009  22.240  0.00  0.00    +0.000 A 
ATOM     18  C   UNL     1       0.498   9.135  20.859  0.00  0.00    +0.000 A 
ATOM     19  O   UNL     1       1.226   8.287  20.069  0.00  0.00    +0.000 OA
ENDBRANCH   2  10
BRANCH   8  20
ATOM     20  C   UNL     1       2.768   3.782  19.468  0.00  0.00    +0.000 A 
ATOM     21  C   UNL     1       3.508   3.101  20.442  0.00  0.00    +0.000 A 
ATOM     22  C   UNL     1       2.862   2.462  21.506  0.00  0.00    +0.000 A 
ATOM     23  C   UNL     1       1.472   2.484  21.598  0.00  0.00    +0.000 A 
ATOM     24  C   UNL     1       0.722   3.132  20.620  0.00  0.00    +0.000 A 
ATOM     25  C   UNL     1       1.365   3.776  19.561  0.00  0.00    +0.000 A 
ENDBRANCH   8  20
TORSDOF 2
ENDMDL
