MODEL 1
REMARK VINA RESULT:      -8.9      0.000      0.000
REMARK  Name = 
REMARK  4 active torsions:
REMARK  status: ('A' for Active; 'I' for Inactive)
REMARK    1  A    between atoms: S_2  and  C_4
REMARK    2  A    between atoms: S_2  and  N_11
REMARK    3  A    between atoms: C_15  and  C_16
REMARK    4  A    between atoms: C_22  and  C_23
REMARK                            x       y       z     vdW  Elec       q    Type
REMARK                         _______ _______ _______ _____ _____    ______ ____
ROOT
ATOM      1  N   UNL     1       3.696   5.889  17.405  0.00  0.00    +0.000 NA
ATOM      2  C   UNL     1       3.830   5.288  18.769  0.00  0.00    +0.000 C 
ATOM      3  C   UNL     1       2.549   5.496  19.572  0.00  0.00    +0.000 C 
ATOM      4  C   UNL     1       2.217   6.979  19.708  0.00  0.00    +0.000 C 
ATOM      5  C   UNL     1       2.115   7.642  18.329  0.00  0.00    +0.000 C 
ATOM      6  C   UNL     1       3.362   7.357  17.476  0.00  0.00    +0.000 C 
ENDROOT
BRANCH   5   7
ATOM      7  C   UNL     1       1.919   9.124  18.471  0.00  0.00    +0.000 A 
ATOM      8  N   UNL     1       2.291  10.034  17.592  0.00  0.00    +0.000 NA
ATOM      9  N   UNL     1       1.945  11.277  18.066  0.00  0.00    +0.000 NA
ATOM     10  C   UNL     1       1.361  11.107  19.230  0.00  0.00    +0.000 A 
ATOM     11  C   UNL     1       0.807  12.023  20.165  0.00  0.00    +0.000 A 
ATOM     12  C   UNL     1       0.255  11.562  21.306  0.00  0.00    +0.000 A 
ATOM     13  C   UNL     1       0.202  10.128  21.612  0.00  0.00    +0.000 A 
ATOM     14  C   UNL     1       0.736   9.268  20.717  0.00  0.00    +0.000 A 
ATOM     15  N   UNL     1       1.309   9.756  19.542  0.00  0.00    +0.000 N 
BRANCH  13  16
ATOM     16  C   UNL     1      -0.442   9.668  22.891  0.00  0.00    +0.000 C 
ATOM     17  F   UNL     1      -1.364  10.543  23.368  0.00  0.00    +0.000 F 
ATOM     18  F   UNL     1      -1.074   8.480  22.724  0.00  0.00    +0.000 F 
ATOM     19  F   UNL     1       0.478   9.490  23.873  0.00  0.00    +0.000 F 
ENDBRANCH  13  16
ENDBRANCH   5   7
BRANCH   1  21
ATOM     20  O   UNL     1       4.989   6.573  15.295  0.00  0.00    +0.000 OA
ATOM     21  S   UNL     1       5.108   5.664  16.416  0.00  0.00    +0.000 S 
ATOM     22  O   UNL     1       5.289   4.243  16.216  0.00  0.00    +0.000 OA
BRANCH  21  23
ATOM     23  C   UNL     1       6.453   6.211  17.430  0.00  0.00    +0.000 A 
ATOM     24  C   UNL     1       6.958   5.381  18.440  0.00  0.00    +0.000 A 
ATOM     25  C   UNL     1       7.998   5.839  19.252  0.00  0.00    +0.000 A 
ATOM     26  C   UNL     1       8.519   7.119  19.056  0.00  0.00    +0.000 A 
ATOM     27  C   UNL     1       7.991   7.936  18.059  0.00  0.00    +0.000 A 
ATOM     28  F   UNL     1       8.497   9.163  17.880  0.00  0.00    +0.000 F 
ATOM     29  C   UNL     1       6.957   7.499  17.244  0.00  0.00    +0.000 A 
ENDBRANCH  21  23
ENDBRANCH   1  21
TORSDOF 4
ENDMDL
MODEL 2
REMARK VINA RESULT:      -8.9      2.173      2.788
REMARK  Name = 
REMARK  4 active torsions:
REMARK  status: ('A' for Active; 'I' for Inactive)
REMARK    1  A    between atoms: S_2  and  C_4
REMARK    2  A    between atoms: S_2  and  N_11
REMARK    3  A    between atoms: C_15  and  C_16
REMARK    4  A    between atoms: C_22  and  C_23
REMARK                            x       y       z     vdW  Elec       q    Type
REMARK                         _______ _______ _______ _____ _____    ______ ____
ROOT
ATOM      1  N   UNL     1       4.515   5.518  18.279  0.00  0.00    +0.000 NA
ATOM      2  C   UNL     1       4.235   5.040  19.668  0.00  0.00    +0.000 C 
ATOM      3  C   UNL     1       2.740   5.120  19.969  0.00  0.00    +0.000 C 
ATOM      4  C   UNL     1       2.223   6.547  19.815  0.00  0.00    +0.000 C 
ATOM      5  C   UNL     1       2.532   7.090  18.415  0.00  0.00    +0.000 C 
ATOM      6  C   UNL     1       4.019   6.925  18.065  0.00  0.00    +0.000 C 
ENDROOT
BRANCH   5   7
ATOM      7  C   UNL     1       2.137   8.535  18.312  0.00  0.00    +0.000 A 
ATOM      8  N   UNL     1       2.379   9.323  17.283  0.00  0.00    +0.000 NA
ATOM      9  N   UNL     1       1.870  10.572  17.552  0.00  0.00    +0.000 NA
ATOM     10  C   UNL     1       1.321  10.526  18.743  0.00  0.00    +0.000 A 
ATOM     11  C   UNL     1       0.653  11.507  19.527  0.00  0.00    +0.000 A 
ATOM     12  C   UNL     1       0.174  11.177  20.744  0.00  0.00    +0.000 A 
ATOM     13  C   UNL     1       0.318   9.822  21.287  0.00  0.00    +0.000 A 
ATOM     14  C   UNL     1       0.958   8.900  20.534  0.00  0.00    +0.000 A 
ATOM     15  N   UNL     1       1.453   9.254  19.278  0.00  0.00    +0.000 N 
BRANCH  13  16
ATOM     16  C   UNL     1      -0.251   9.505  22.643  0.00  0.00    +0.000 C 
ATOM     17  F   UNL     1      -0.979   8.359  22.662  0.00  0.00    +0.000 F 
ATOM     18  F   UNL     1       0.730   9.364  23.569  0.00  0.00    +0.000 F 
ATOM     19  F   UNL     1      -1.067  10.497  23.083  0.00  0.00    +0.000 F 
ENDBRANCH  13  16
ENDBRANCH   5   7
BRANCH   1  21
ATOM     20  O   UNL     1       6.779   4.359  18.638  0.00  0.00    +0.000 OA
ATOM     21  S   UNL     1       6.198   5.427  17.851  0.00  0.00    +0.000 S 
ATOM     22  O   UNL     1       6.740   6.768  17.885  0.00  0.00    +0.000 OA
BRANCH  21  23
ATOM     23  C   UNL     1       6.198   4.923  16.152  0.00  0.00    +0.000 A 
ATOM     24  C   UNL     1       5.216   4.044  15.678  0.00  0.00    +0.000 A 
ATOM     25  C   UNL     1       5.247   3.630  14.344  0.00  0.00    +0.000 A 
ATOM     26  C   UNL     1       6.259   4.089  13.500  0.00  0.00    +0.000 A 
ATOM     27  C   UNL     1       7.236   4.948  13.994  0.00  0.00    +0.000 A 
ATOM     28  F   UNL     1       8.204   5.383  13.176  0.00  0.00    +0.000 F 
ATOM     29  C   UNL     1       7.223   5.369  15.317  0.00  0.00    +0.000 A 
ENDBRANCH  21  23
ENDBRANCH   1  21
TORSDOF 4
ENDMDL
MODEL 3
REMARK VINA RESULT:      -8.9      6.532     10.308
REMARK  Name = 
REMARK  4 active torsions:
REMARK  status: ('A' for Active; 'I' for Inactive)
REMARK    1  A    between atoms: S_2  and  C_4
REMARK    2  A    between atoms: S_2  and  N_11
REMARK    3  A    between atoms: C_15  and  C_16
REMARK    4  A    between atoms: C_22  and  C_23
REMARK                            x       y       z     vdW  Elec       q    Type
REMARK                         _______ _______ _______ _____ _____    ______ ____
ROOT
ATOM      1  N   UNL     1      -3.610  13.612  21.775  0.00  0.00    +0.000 NA
ATOM      2  C   UNL     1      -3.063  14.784  22.525  0.00  0.00    +0.000 C 
ATOM      3  C   UNL     1      -1.586  14.986  22.195  0.00  0.00    +0.000 C 
ATOM      4  C   UNL     1      -0.769  13.744  22.537  0.00  0.00    +0.000 C 
ATOM      5  C   UNL     1      -1.328  12.510  21.819  0.00  0.00    +0.000 C 
ATOM      6  C   UNL     1      -2.837  12.352  22.069  0.00  0.00    +0.000 C 
ENDROOT
BRANCH   5   7
ATOM      7  C   UNL     1      -0.603  11.271  22.260  0.00  0.00    +0.000 A 
ATOM      8  N   UNL     1      -0.515  10.837  23.502  0.00  0.00    +0.000 NA
ATOM      9  N   UNL     1       0.224   9.678  23.515  0.00  0.00    +0.000 NA
ATOM     10  C   UNL     1       0.574   9.419  22.277  0.00  0.00    +0.000 A 
ATOM     11  C   UNL     1       1.337   8.367  21.697  0.00  0.00    +0.000 A 
ATOM     12  C   UNL     1       1.543   8.348  20.365  0.00  0.00    +0.000 A 
ATOM     13  C   UNL     1       0.997   9.386  19.484  0.00  0.00    +0.000 A 
ATOM     14  C   UNL     1       0.278  10.383  20.048  0.00  0.00    +0.000 A 
ATOM     15  N   UNL     1       0.074  10.395  21.428  0.00  0.00    +0.000 N 
BRANCH  13  16
ATOM     16  C   UNL     1       1.244   9.304  18.003  0.00  0.00    +0.000 C 
ATOM     17  F   UNL     1       2.125  10.236  17.557  0.00  0.00    +0.000 F 
ATOM     18  F   UNL     1       1.741   8.092  17.653  0.00  0.00    +0.000 F 
ATOM     19  F   UNL     1       0.096   9.477  17.298  0.00  0.00    +0.000 F 
ENDBRANCH  13  16
ENDBRANCH   5   7
BRANCH   1  21
ATOM     20  O   UNL     1      -5.948  14.631  22.083  0.00  0.00    +0.000 OA
ATOM     21  S   UNL     1      -5.301  13.336  22.075  0.00  0.00    +0.000 S 
ATOM     22  O   UNL     1      -5.411  12.433  23.201  0.00  0.00    +0.000 OA
BRANCH  21  23
ATOM     23  C   UNL     1      -5.866  12.445  20.652  0.00  0.00    +0.000 A 
ATOM     24  C   UNL     1      -6.850  11.456  20.784  0.00  0.00    +0.000 A 
ATOM     25  C   UNL     1      -7.263  10.741  19.658  0.00  0.00    +0.000 A 
ATOM     26  C   UNL     1      -6.687  11.011  18.415  0.00  0.00    +0.000 A 
ATOM     27  C   UNL     1      -5.698  11.985  18.308  0.00  0.00    +0.000 A 
ATOM     28  F   UNL     1      -5.151  12.236  17.112  0.00  0.00    +0.000 F 
ATOM     29  C   UNL     1      -5.273  12.705  19.416  0.00  0.00    +0.000 A 
ENDBRANCH  21  23
ENDBRANCH   1  21
TORSDOF 4
ENDMDL
MODEL 4
REMARK VINA RESULT:      -8.7      3.217      8.239
REMARK  Name = 
REMARK  4 active torsions:
REMARK  status: ('A' for Active; 'I' for Inactive)
REMARK    1  A    between atoms: S_2  and  C_4
REMARK    2  A    between atoms: S_2  and  N_11
REMARK    3  A    between atoms: C_15  and  C_16
REMARK    4  A    between atoms: C_22  and  C_23
REMARK                            x       y       z     vdW  Elec       q    Type
REMARK                         _______ _______ _______ _____ _____    ______ ____
ROOT
ATOM      1  N   UNL     1       1.616   9.470  19.765  0.00  0.00    +0.000 NA
ATOM      2  C   UNL     1       0.496   9.221  20.726  0.00  0.00    +0.000 C 
ATOM      3  C   UNL     1       0.844   8.069  21.664  0.00  0.00    +0.000 C 
ATOM      4  C   UNL     1       1.131   6.790  20.886  0.00  0.00    +0.000 C 
ATOM      5  C   UNL     1       2.246   7.017  19.858  0.00  0.00    +0.000 C 
ATOM      6  C   UNL     1       1.950   8.235  18.968  0.00  0.00    +0.000 C 
ENDROOT
BRANCH   5   7
ATOM      7  C   UNL     1       2.434   5.794  19.007  0.00  0.00    +0.000 A 
ATOM      8  N   UNL     1       1.534   4.850  18.814  0.00  0.00    +0.000 NA
ATOM      9  N   UNL     1       2.065   3.896  17.978  0.00  0.00    +0.000 NA
ATOM     10  C   UNL     1       3.284   4.274  17.670  0.00  0.00    +0.000 A 
ATOM     11  C   UNL     1       4.291   3.688  16.856  0.00  0.00    +0.000 A 
ATOM     12  C   UNL     1       5.478   4.310  16.709  0.00  0.00    +0.000 A 
ATOM     13  C   UNL     1       5.765   5.589  17.368  0.00  0.00    +0.000 A 
ATOM     14  C   UNL     1       4.801   6.134  18.143  0.00  0.00    +0.000 A 
ATOM     15  N   UNL     1       3.577   5.479  18.291  0.00  0.00    +0.000 N 
BRANCH  13  16
ATOM     16  C   UNL     1       7.100   6.248  17.155  0.00  0.00    +0.000 C 
ATOM     17  F   UNL     1       8.003   5.947  18.123  0.00  0.00    +0.000 F 
ATOM     18  F   UNL     1       7.650   5.875  15.972  0.00  0.00    +0.000 F 
ATOM     19  F   UNL     1       6.987   7.600  17.127  0.00  0.00    +0.000 F 
ENDBRANCH  13  16
ENDBRANCH   5   7
BRANCH   1  21
ATOM     20  O   UNL     1       1.935  10.461  17.417  0.00  0.00    +0.000 OA
ATOM     21  S   UNL     1       1.306  10.792  18.680  0.00  0.00    +0.000 S 
ATOM     22  O   UNL     1       1.618  12.022  19.375  0.00  0.00    +0.000 OA
BRANCH  21  23
ATOM     23  C   UNL     1      -0.450  10.772  18.444  0.00  0.00    +0.000 A 
ATOM     24  C   UNL     1      -1.031   9.862  17.552  0.00  0.00    +0.000 A 
ATOM     25  C   UNL     1      -2.413   9.879  17.352  0.00  0.00    +0.000 A 
ATOM     26  C   UNL     1      -3.201  10.807  18.037  0.00  0.00    +0.000 A 
ATOM     27  C   UNL     1      -2.602  11.715  18.906  0.00  0.00    +0.000 A 
ATOM     28  F   UNL     1      -3.366  12.601  19.557  0.00  0.00    +0.000 F 
ATOM     29  C   UNL     1      -1.230  11.714  19.115  0.00  0.00    +0.000 A 
ENDBRANCH  21  23
ENDBRANCH   1  21
TORSDOF 4
ENDMDL
MODEL 5
REMARK VINA RESULT:      -8.6      1.107      1.607
REMARK  Name = 
REMARK  4 active torsions:
REMARK  status: ('A' for Active; 'I' for Inactive)
REMARK    1  A    between atoms: S_2  and  C_4
REMARK    2  A    between atoms: S_2  and  N_11
REMARK    3  A    between atoms: C_15  and  C_16
REMARK    4  A    between atoms: C_22  and  C_23
REMARK                            x       y       z     vdW  Elec       q    Type
REMARK                         _______ _______ _______ _____ _____    ______ ____
ROOT
ATOM      1  N   UNL     1       3.445   4.972  17.871  0.00  0.00    +0.000 NA
ATOM      2  C   UNL     1       3.517   4.541  19.302  0.00  0.00    +0.000 C 
ATOM      3  C   UNL     1       2.244   4.938  20.044  0.00  0.00    +0.000 C 
ATOM      4  C   UNL     1       2.016   6.445  19.983  0.00  0.00    +0.000 C 
ATOM      5  C   UNL     1       1.980   6.932  18.530  0.00  0.00    +0.000 C 
ATOM      6  C   UNL     1       3.215   6.456  17.748  0.00  0.00    +0.000 C 
ENDROOT
BRANCH   5   7
ATOM      7  C   UNL     1       1.887   8.430  18.479  0.00  0.00    +0.000 A 
ATOM      8  N   UNL     1       2.284   9.188  17.475  0.00  0.00    +0.000 NA
ATOM      9  N   UNL     1       2.038  10.504  17.790  0.00  0.00    +0.000 NA
ATOM     10  C   UNL     1       1.491  10.529  18.983  0.00  0.00    +0.000 A 
ATOM     11  C   UNL     1       1.036  11.597  19.804  0.00  0.00    +0.000 A 
ATOM     12  C   UNL     1       0.500  11.329  21.012  0.00  0.00    +0.000 A 
ATOM     13  C   UNL     1       0.365   9.955  21.508  0.00  0.00    +0.000 A 
ATOM     14  C   UNL     1       0.806   8.950  20.720  0.00  0.00    +0.000 A 
ATOM     15  N   UNL     1       1.363   9.238  19.474  0.00  0.00    +0.000 N 
BRANCH  13  16
ATOM     16  C   UNL     1      -0.257   9.713  22.856  0.00  0.00    +0.000 C 
ATOM     17  F   UNL     1       0.656   9.448  23.825  0.00  0.00    +0.000 F 
ATOM     18  F   UNL     1      -0.970  10.791  23.270  0.00  0.00    +0.000 F 
ATOM     19  F   UNL     1      -1.116   8.663  22.825  0.00  0.00    +0.000 F 
ENDBRANCH  13  16
ENDBRANCH   5   7
BRANCH   1  21
ATOM     20  O   UNL     1       4.611   4.940  15.583  0.00  0.00    +0.000 OA
ATOM     21  S   UNL     1       4.851   4.526  16.950  0.00  0.00    +0.000 S 
ATOM     22  O   UNL     1       5.179   3.155  17.274  0.00  0.00    +0.000 OA
BRANCH  21  23
ATOM     23  C   UNL     1       6.152   5.530  17.611  0.00  0.00    +0.000 A 
ATOM     24  C   UNL     1       6.486   6.744  16.997  0.00  0.00    +0.000 A 
ATOM     25  C   UNL     1       7.536   7.510  17.510  0.00  0.00    +0.000 A 
ATOM     26  C   UNL     1       8.245   7.056  18.623  0.00  0.00    +0.000 A 
ATOM     27  C   UNL     1       7.910   5.838  19.208  0.00  0.00    +0.000 A 
ATOM     28  F   UNL     1       8.597   5.410  20.275  0.00  0.00    +0.000 F 
ATOM     29  C   UNL     1       6.871   5.062  18.711  0.00  0.00    +0.000 A 
ENDBRANCH  21  23
ENDBRANCH   1  21
TORSDOF 4
ENDMDL
MODEL 6
REMARK VINA RESULT:      -8.6      3.544      8.169
REMARK  Name = 
REMARK  4 active torsions:
REMARK  status: ('A' for Active; 'I' for Inactive)
REMARK    1  A    between atoms: S_2  and  C_4
REMARK    2  A    between atoms: S_2  and  N_11
REMARK    3  A    between atoms: C_15  and  C_16
REMARK    4  A    between atoms: C_22  and  C_23
REMARK                            x       y       z     vdW  Elec       q    Type
REMARK                         _______ _______ _______ _____ _____    ______ ____
ROOT
ATOM      1  N   UNL     1       1.386   9.829  19.909  0.00  0.00    +0.000 NA
ATOM      2  C   UNL     1       0.304   9.857  20.941  0.00  0.00    +0.000 C 
ATOM      3  C   UNL     1       0.648   8.925  22.100  0.00  0.00    +0.000 C 
ATOM      4  C   UNL     1       0.843   7.492  21.617  0.00  0.00    +0.000 C 
ATOM      5  C   UNL     1       1.917   7.428  20.524  0.00  0.00    +0.000 C 
ATOM      6  C   UNL     1       1.630   8.433  19.397  0.00  0.00    +0.000 C 
ENDROOT
BRANCH   5   7
ATOM      7  C   UNL     1       2.013   6.039  19.962  0.00  0.00    +0.000 A 
ATOM      8  N   UNL     1       1.334   4.992  20.387  0.00  0.00    +0.000 NA
ATOM      9  N   UNL     1       1.685   3.899  19.631  0.00  0.00    +0.000 NA
ATOM     10  C   UNL     1       2.574   4.297  18.751  0.00  0.00    +0.000 A 
ATOM     11  C   UNL     1       3.282   3.609  17.727  0.00  0.00    +0.000 A 
ATOM     12  C   UNL     1       4.154   4.282  16.949  0.00  0.00    +0.000 A 
ATOM     13  C   UNL     1       4.394   5.718  17.125  0.00  0.00    +0.000 A 
ATOM     14  C   UNL     1       3.719   6.359  18.105  0.00  0.00    +0.000 A 
ATOM     15  N   UNL     1       2.822   5.652  18.906  0.00  0.00    +0.000 N 
BRANCH  13  16
ATOM     16  C   UNL     1       5.365   6.422  16.217  0.00  0.00    +0.000 C 
ATOM     17  F   UNL     1       6.176   5.570  15.540  0.00  0.00    +0.000 F 
ATOM     18  F   UNL     1       4.718   7.171  15.290  0.00  0.00    +0.000 F 
ATOM     19  F   UNL     1       6.171   7.266  16.911  0.00  0.00    +0.000 F 
ENDBRANCH  13  16
ENDBRANCH   5   7
BRANCH   1  21
ATOM     20  O   UNL     1       1.726  10.310  17.409  0.00  0.00    +0.000 OA
ATOM     21  S   UNL     1       1.081  10.892  18.568  0.00  0.00    +0.000 S 
ATOM     22  O   UNL     1       1.377  12.243  18.994  0.00  0.00    +0.000 OA
BRANCH  21  23
ATOM     23  C   UNL     1      -0.672  10.808  18.324  0.00  0.00    +0.000 A 
ATOM     24  C   UNL     1      -1.219   9.843  17.469  0.00  0.00    +0.000 A 
ATOM     25  C   UNL     1      -2.600   9.810  17.261  0.00  0.00    +0.000 A 
ATOM     26  C   UNL     1      -3.420  10.742  17.901  0.00  0.00    +0.000 A 
ATOM     27  C   UNL     1      -2.854  11.704  18.732  0.00  0.00    +0.000 A 
ATOM     28  F   UNL     1      -3.649  12.594  19.341  0.00  0.00    +0.000 F 
ATOM     29  C   UNL     1      -1.484  11.755  18.949  0.00  0.00    +0.000 A 
ENDBRANCH  21  23
ENDBRANCH   1  21
TORSDOF 4
ENDMDL
MODEL 7
REMARK VINA RESULT:      -8.6      2.302      2.880
REMARK  Name = 
REMARK  4 active torsions:
REMARK  status: ('A' for Active; 'I' for Inactive)
REMARK    1  A    between atoms: S_2  and  C_4
REMARK    2  A    between atoms: S_2  and  N_11
REMARK    3  A    between atoms: C_15  and  C_16
REMARK    4  A    between atoms: C_22  and  C_23
REMARK                            x       y       z     vdW  Elec       q    Type
REMARK                         _______ _______ _______ _____ _____    ______ ____
ROOT
ATOM      1  N   UNL     1       3.695   4.775  18.981  0.00  0.00    +0.000 NA
ATOM      2  C   UNL     1       2.982   4.367  20.232  0.00  0.00    +0.000 C 
ATOM      3  C   UNL     1       1.500   4.720  20.141  0.00  0.00    +0.000 C 
ATOM      4  C   UNL     1       1.301   6.214  19.914  0.00  0.00    +0.000 C 
ATOM      5  C   UNL     1       2.054   6.680  18.662  0.00  0.00    +0.000 C 
ATOM      6  C   UNL     1       3.528   6.246  18.701  0.00  0.00    +0.000 C 
ENDROOT
BRANCH   5   7
ATOM      7  C   UNL     1       1.962   8.172  18.517  0.00  0.00    +0.000 A 
ATOM      8  N   UNL     1       2.351   8.864  17.464  0.00  0.00    +0.000 NA
ATOM      9  N   UNL     1       2.110  10.197  17.696  0.00  0.00    +0.000 NA
ATOM     10  C   UNL     1       1.573  10.299  18.889  0.00  0.00    +0.000 A 
ATOM     11  C   UNL     1       1.126  11.418  19.645  0.00  0.00    +0.000 A 
ATOM     12  C   UNL     1       0.600  11.228  20.872  0.00  0.00    +0.000 A 
ATOM     13  C   UNL     1       0.468   9.888  21.456  0.00  0.00    +0.000 A 
ATOM     14  C   UNL     1       0.901   8.834  20.729  0.00  0.00    +0.000 A 
ATOM     15  N   UNL     1       1.447   9.042  19.462  0.00  0.00    +0.000 N 
BRANCH  13  16
ATOM     16  C   UNL     1      -0.143   9.734  22.822  0.00  0.00    +0.000 C 
ATOM     17  F   UNL     1       0.769   9.443  23.784  0.00  0.00    +0.000 F 
ATOM     18  F   UNL     1      -0.777  10.869  23.209  0.00  0.00    +0.000 F 
ATOM     19  F   UNL     1      -1.068   8.740  22.842  0.00  0.00    +0.000 F 
ENDBRANCH  13  16
ENDBRANCH   5   7
BRANCH   1  21
ATOM     20  O   UNL     1       5.492   2.983  19.376  0.00  0.00    +0.000 OA
ATOM     21  S   UNL     1       5.387   4.377  18.997  0.00  0.00    +0.000 S 
ATOM     22  O   UNL     1       6.081   5.411  19.733  0.00  0.00    +0.000 OA
BRANCH  21  23
ATOM     23  C   UNL     1       5.895   4.528  17.306  0.00  0.00    +0.000 A 
ATOM     24  C   UNL     1       7.148   5.071  16.992  0.00  0.00    +0.000 A 
ATOM     25  C   UNL     1       7.521   5.213  15.654  0.00  0.00    +0.000 A 
ATOM     26  C   UNL     1       6.642   4.821  14.644  0.00  0.00    +0.000 A 
ATOM     27  C   UNL     1       5.394   4.300  14.976  0.00  0.00    +0.000 A 
ATOM     28  F   UNL     1       4.558   3.927  13.999  0.00  0.00    +0.000 F 
ATOM     29  C   UNL     1       5.005   4.153  16.300  0.00  0.00    +0.000 A 
ENDBRANCH  21  23
ENDBRANCH   1  21
TORSDOF 4
ENDMDL
MODEL 8
REMARK VINA RESULT:      -8.6      3.431      8.207
REMARK  Name = 
REMARK  4 active torsions:
REMARK  status: ('A' for Active; 'I' for Inactive)
REMARK    1  A    between atoms: S_2  and  C_4
REMARK    2  A    between atoms: S_2  and  N_11
REMARK    3  A    between atoms: C_15  and  C_16
REMARK    4  A    between atoms: C_22  and  C_23
REMARK                            x       y       z     vdW  Elec       q    Type
REMARK                         _______ _______ _______ _____ _____    ______ ____
ROOT
ATOM      1  N   UNL     1       1.603   9.481  19.751  0.00  0.00    +0.000 NA
ATOM      2  C   UNL     1       0.444   9.273  20.673  0.00  0.00    +0.000 C 
ATOM      3  C   UNL     1       0.741   8.147  21.660  0.00  0.00    +0.000 C 
ATOM      4  C   UNL     1       1.044   6.841  20.932  0.00  0.00    +0.000 C 
ATOM      5  C   UNL     1       2.202   7.026  19.943  0.00  0.00    +0.000 C 
ATOM      6  C   UNL     1       1.954   8.219  19.006  0.00  0.00    +0.000 C 
ENDROOT
BRANCH   5   7
ATOM      7  C   UNL     1       2.409   5.776  19.137  0.00  0.00    +0.000 A 
ATOM      8  N   UNL     1       1.532   4.801  18.996  0.00  0.00    +0.000 NA
ATOM      9  N   UNL     1       2.076   3.829  18.189  0.00  0.00    +0.000 NA
ATOM     10  C   UNL     1       3.279   4.227  17.847  0.00  0.00    +0.000 A 
ATOM     11  C   UNL     1       4.289   3.636  17.039  0.00  0.00    +0.000 A 
ATOM     12  C   UNL     1       5.456   4.283  16.849  0.00  0.00    +0.000 A 
ATOM     13  C   UNL     1       5.718   5.594  17.452  0.00  0.00    +0.000 A 
ATOM     14  C   UNL     1       4.752   6.143  18.222  0.00  0.00    +0.000 A 
ATOM     15  N   UNL     1       3.549   5.463  18.415  0.00  0.00    +0.000 N 
BRANCH  13  16
ATOM     16  C   UNL     1       7.032   6.279  17.193  0.00  0.00    +0.000 C 
ATOM     17  F   UNL     1       7.958   6.039  18.156  0.00  0.00    +0.000 F 
ATOM     18  F   UNL     1       7.573   5.875  16.016  0.00  0.00    +0.000 F 
ATOM     19  F   UNL     1       6.883   7.626  17.115  0.00  0.00    +0.000 F 
ENDBRANCH  13  16
ENDBRANCH   5   7
BRANCH   1  21
ATOM     20  O   UNL     1       1.865  10.321  17.338  0.00  0.00    +0.000 OA
ATOM     21  S   UNL     1       1.352  10.773  18.615  0.00  0.00    +0.000 S 
ATOM     22  O   UNL     1       1.821  11.999  19.223  0.00  0.00    +0.000 OA
BRANCH  21  23
ATOM     23  C   UNL     1      -0.410  10.912  18.483  0.00  0.00    +0.000 A 
ATOM     24  C   UNL     1      -1.097  11.886  19.219  0.00  0.00    +0.000 A 
ATOM     25  C   UNL     1      -2.489  11.962  19.129  0.00  0.00    +0.000 A 
ATOM     26  C   UNL     1      -3.181  11.066  18.314  0.00  0.00    +0.000 A 
ATOM     27  C   UNL     1      -2.481  10.094  17.604  0.00  0.00    +0.000 A 
ATOM     28  F   UNL     1      -3.155   9.238  16.825  0.00  0.00    +0.000 F 
ATOM     29  C   UNL     1      -1.099  10.001  17.682  0.00  0.00    +0.000 A 
ENDBRANCH  21  23
ENDBRANCH   1  21
TORSDOF 4
ENDMDL
MODEL 9
REMARK VINA RESULT:      -8.6      3.630      8.142
REMARK  Name = 
REMARK  4 active torsions:
REMARK  status: ('A' for Active; 'I' for Inactive)
REMARK    1  A    between atoms: S_2  and  C_4
REMARK    2  A    between atoms: S_2  and  N_11
REMARK    3  A    between atoms: C_15  and  C_16
REMARK    4  A    between atoms: C_22  and  C_23
REMARK                            x       y       z     vdW  Elec       q    Type
REMARK                         _______ _______ _______ _____ _____    ______ ____
ROOT
ATOM      1  N   UNL     1       1.507   9.774  19.897  0.00  0.00    +0.000 NA
ATOM      2  C   UNL     1       0.391   9.808  20.893  0.00  0.00    +0.000 C 
ATOM      3  C   UNL     1       0.674   8.849  22.046  0.00  0.00    +0.000 C 
ATOM      4  C   UNL     1       0.856   7.421  21.544  0.00  0.00    +0.000 C 
ATOM      5  C   UNL     1       1.965   7.352  20.487  0.00  0.00    +0.000 C 
ATOM      6  C   UNL     1       1.738   8.381  19.369  0.00  0.00    +0.000 C 
ENDROOT
BRANCH   5   7
ATOM      7  C   UNL     1       2.050   5.971  19.904  0.00  0.00    +0.000 A 
ATOM      8  N   UNL     1       1.348   4.927  20.299  0.00  0.00    +0.000 NA
ATOM      9  N   UNL     1       1.696   3.841  19.532  0.00  0.00    +0.000 NA
ATOM     10  C   UNL     1       2.607   4.240  18.674  0.00  0.00    +0.000 A 
ATOM     11  C   UNL     1       3.323   3.558  17.652  0.00  0.00    +0.000 A 
ATOM     12  C   UNL     1       4.219   4.230  16.901  0.00  0.00    +0.000 A 
ATOM     13  C   UNL     1       4.478   5.659  17.105  0.00  0.00    +0.000 A 
ATOM     14  C   UNL     1       3.795   6.295  18.083  0.00  0.00    +0.000 A 
ATOM     15  N   UNL     1       2.872   5.589  18.857  0.00  0.00    +0.000 N 
BRANCH  13  16
ATOM     16  C   UNL     1       5.476   6.363  16.227  0.00  0.00    +0.000 C 
ATOM     17  F   UNL     1       6.197   7.304  16.886  0.00  0.00    +0.000 F 
ATOM     18  F   UNL     1       6.364   5.488  15.692  0.00  0.00    +0.000 F 
ATOM     19  F   UNL     1       4.867   6.989  15.187  0.00  0.00    +0.000 F 
ENDBRANCH  13  16
ENDBRANCH   5   7
BRANCH   1  21
ATOM     20  O   UNL     1       1.759  10.198  17.377  0.00  0.00    +0.000 OA
ATOM     21  S   UNL     1       1.271  10.866  18.565  0.00  0.00    +0.000 S 
ATOM     22  O   UNL     1       1.775  12.164  18.959  0.00  0.00    +0.000 OA
BRANCH  21  23
ATOM     23  C   UNL     1      -0.488  11.024  18.426  0.00  0.00    +0.000 A 
ATOM     24  C   UNL     1      -1.158  12.058  19.094  0.00  0.00    +0.000 A 
ATOM     25  C   UNL     1      -2.549  12.150  19.001  0.00  0.00    +0.000 A 
ATOM     26  C   UNL     1      -3.258  11.210  18.251  0.00  0.00    +0.000 A 
ATOM     27  C   UNL     1      -2.575  10.181  17.610  0.00  0.00    +0.000 A 
ATOM     28  F   UNL     1      -3.265   9.283  16.893  0.00  0.00    +0.000 F 
ATOM     29  C   UNL     1      -1.194  10.071  17.692  0.00  0.00    +0.000 A 
ENDBRANCH  21  23
ENDBRANCH   1  21
TORSDOF 4
ENDMDL
