MODEL 1
REMARK VINA RESULT:      -9.3      0.000      0.000
REMARK  Name = 
REMARK  4 active torsions:
REMARK  status: ('A' for Active; 'I' for Inactive)
REMARK    1  A    between atoms: C_1  and  C_2
REMARK    2  A    between atoms: C_5  and  N_6
REMARK    3  A    between atoms: C_7  and  C_9
REMARK    4  A    between atoms: C_9  and  N_10
REMARK                            x       y       z     vdW  Elec       q    Type
REMARK                         _______ _______ _______ _____ _____    ______ ____
ROOT
ATOM      1  N   UNL     1       5.813   5.704  17.343  0.00  0.00    +0.000 N 
ATOM      2  C   UNL     1       4.724   6.404  16.923  0.00  0.00    +0.000 C 
ATOM      3  O   UNL     1       4.730   7.389  16.205  0.00  0.00    +0.000 OA
ATOM      4  N   UNL     1       3.601   5.808  17.441  0.00  0.00    +0.000 N 
ATOM      5  C   UNL     1       3.914   4.517  18.005  0.00  0.00    +0.000 C 
ATOM      6  C   UNL     1       3.664   3.377  16.985  0.00  0.00    +0.000 C 
ATOM      7  C   UNL     1       2.777   2.318  17.650  0.00  0.00    +0.000 C 
ATOM      8  C   UNL     1       2.420   2.928  18.964  0.00  0.00    +0.000 A 
ATOM      9  C   UNL     1       1.546   2.391  19.904  0.00  0.00    +0.000 A 
ATOM     10  C   UNL     1       1.302   3.103  21.069  0.00  0.00    +0.000 A 
ATOM     11  C   UNL     1       1.932   4.338  21.289  0.00  0.00    +0.000 A 
ATOM     12  C   UNL     1       2.820   4.867  20.345  0.00  0.00    +0.000 A 
ATOM     13  C   UNL     1       3.067   4.152  19.180  0.00  0.00    +0.000 A 
ATOM     14  C   UNL     1       5.431   4.673  18.171  0.00  0.00    +0.000 C 
ATOM     15  O   UNL     1       6.177   3.945  18.807  0.00  0.00    +0.000 OA
ATOM     16  H   UNL     1       2.670   6.128  17.209  0.00  0.00    +0.000 HD
ENDROOT
BRANCH   1  17
ATOM     17  C   UNL     1       7.161   5.988  16.908  0.00  0.00    +0.000 C 
BRANCH  17  19
ATOM     18  N   UNL     1       7.850   8.313  17.363  0.00  0.00    +0.000 N 
ATOM     19  C   UNL     1       7.751   7.022  17.878  0.00  0.00    +0.000 C 
ATOM     20  O   UNL     1       8.166   6.660  18.974  0.00  0.00    +0.000 OA
ATOM     21  H   UNL     1       7.584   8.449  16.392  0.00  0.00    +0.000 HD
BRANCH  18  26
ATOM     22  C   UNL     1       9.880  13.015  20.029  0.00  0.00    +0.000 C 
ATOM     23  C   UNL     1       9.330  11.807  19.324  0.00  0.00    +0.000 A 
ATOM     24  C   UNL     1       9.573  10.538  19.860  0.00  0.00    +0.000 A 
ATOM     25  C   UNL     1       9.088   9.384  19.229  0.00  0.00    +0.000 A 
ATOM     26  C   UNL     1       8.353   9.456  18.045  0.00  0.00    +0.000 A 
ATOM     27  C   UNL     1       8.098  10.725  17.510  0.00  0.00    +0.000 A 
ATOM     28  C   UNL     1       8.577  11.884  18.143  0.00  0.00    +0.000 A 
ATOM     29 CL   UNL     1       8.211  13.414  17.424  0.00  0.00    +0.000 Cl
ENDBRANCH  18  26
ENDBRANCH  17  19
ENDBRANCH   1  17
TORSDOF 3
ENDMDL
MODEL 2
REMARK VINA RESULT:      -8.7      1.245      1.352
REMARK  Name = 
REMARK  4 active torsions:
REMARK  status: ('A' for Active; 'I' for Inactive)
REMARK    1  A    between atoms: C_1  and  C_2
REMARK    2  A    between atoms: C_5  and  N_6
REMARK    3  A    between atoms: C_7  and  C_9
REMARK    4  A    between atoms: C_9  and  N_10
REMARK                            x       y       z     vdW  Elec       q    Type
REMARK                         _______ _______ _______ _____ _____    ______ ____
ROOT
ATOM      1  N   UNL     1       6.355   6.245  17.604  0.00  0.00    +0.000 N 
ATOM      2  C   UNL     1       5.409   6.388  16.637  0.00  0.00    +0.000 C 
ATOM      3  O   UNL     1       5.542   6.968  15.573  0.00  0.00    +0.000 OA
ATOM      4  N   UNL     1       4.264   5.756  17.056  0.00  0.00    +0.000 N 
ATOM      5  C   UNL     1       4.520   4.937  18.215  0.00  0.00    +0.000 C 
ATOM      6  C   UNL     1       4.809   3.466  17.817  0.00  0.00    +0.000 C 
ATOM      7  C   UNL     1       3.890   2.553  18.638  0.00  0.00    +0.000 C 
ATOM      8  C   UNL     1       3.006   3.506  19.371  0.00  0.00    +0.000 A 
ATOM      9  C   UNL     1       1.931   3.161  20.185  0.00  0.00    +0.000 A 
ATOM     10  C   UNL     1       1.191   4.176  20.774  0.00  0.00    +0.000 A 
ATOM     11  C   UNL     1       1.530   5.520  20.551  0.00  0.00    +0.000 A 
ATOM     12  C   UNL     1       2.620   5.859  19.742  0.00  0.00    +0.000 A 
ATOM     13  C   UNL     1       3.363   4.843  19.155  0.00  0.00    +0.000 A 
ATOM     14  C   UNL     1       5.840   5.562  18.682  0.00  0.00    +0.000 C 
ATOM     15  O   UNL     1       6.396   5.385  19.755  0.00  0.00    +0.000 OA
ATOM     16  H   UNL     1       3.446   5.684  16.465  0.00  0.00    +0.000 HD
ENDROOT
BRANCH   1  17
ATOM     17  C   UNL     1       7.719   6.699  17.460  0.00  0.00    +0.000 C 
BRANCH  17  19
ATOM     18  N   UNL     1       8.850   8.571  18.603  0.00  0.00    +0.000 N 
ATOM     19  C   UNL     1       7.752   8.188  17.836  0.00  0.00    +0.000 C 
ATOM     20  O   UNL     1       6.810   8.914  17.531  0.00  0.00    +0.000 OA
ATOM     21  H   UNL     1       9.493   7.839  18.893  0.00  0.00    +0.000 HD
BRANCH  18  26
ATOM     22  C   UNL     1      10.036  13.912  20.447  0.00  0.00    +0.000 C 
ATOM     23  C   UNL     1       9.720  12.532  19.942  0.00  0.00    +0.000 A 
ATOM     24  C   UNL     1       9.353  11.541  20.858  0.00  0.00    +0.000 A 
ATOM     25  C   UNL     1       9.060  10.238  20.430  0.00  0.00    +0.000 A 
ATOM     26  C   UNL     1       9.129   9.881  19.083  0.00  0.00    +0.000 A 
ATOM     27  C   UNL     1       9.484  10.873  18.161  0.00  0.00    +0.000 A 
ATOM     28  C   UNL     1       9.773  12.181  18.584  0.00  0.00    +0.000 A 
ATOM     29 CL   UNL     1      10.195  13.352  17.383  0.00  0.00    +0.000 Cl
ENDBRANCH  18  26
ENDBRANCH  17  19
ENDBRANCH   1  17
TORSDOF 3
ENDMDL
MODEL 3
REMARK VINA RESULT:      -8.5      1.563      1.831
REMARK  Name = 
REMARK  4 active torsions:
REMARK  status: ('A' for Active; 'I' for Inactive)
REMARK    1  A    between atoms: C_1  and  C_2
REMARK    2  A    between atoms: C_5  and  N_6
REMARK    3  A    between atoms: C_7  and  C_9
REMARK    4  A    between atoms: C_9  and  N_10
REMARK                            x       y       z     vdW  Elec       q    Type
REMARK                         _______ _______ _______ _____ _____    ______ ____
ROOT
ATOM      1  N   UNL     1       6.392   6.195  17.629  0.00  0.00    +0.000 N 
ATOM      2  C   UNL     1       5.467   6.322  16.640  0.00  0.00    +0.000 C 
ATOM      3  O   UNL     1       5.628   6.873  15.565  0.00  0.00    +0.000 OA
ATOM      4  N   UNL     1       4.307   5.712  17.051  0.00  0.00    +0.000 N 
ATOM      5  C   UNL     1       4.532   4.920  18.236  0.00  0.00    +0.000 C 
ATOM      6  C   UNL     1       4.813   3.438  17.882  0.00  0.00    +0.000 C 
ATOM      7  C   UNL     1       3.869   2.555  18.707  0.00  0.00    +0.000 C 
ATOM      8  C   UNL     1       2.980   3.535  19.397  0.00  0.00    +0.000 A 
ATOM      9  C   UNL     1       1.885   3.222  20.198  0.00  0.00    +0.000 A 
ATOM     10  C   UNL     1       1.144   4.259  20.746  0.00  0.00    +0.000 A 
ATOM     11  C   UNL     1       1.501   5.593  20.496  0.00  0.00    +0.000 A 
ATOM     12  C   UNL     1       2.611   5.901  19.700  0.00  0.00    +0.000 A 
ATOM     13  C   UNL     1       3.355   4.862  19.155  0.00  0.00    +0.000 A 
ATOM     14  C   UNL     1       5.848   5.545  18.714  0.00  0.00    +0.000 C 
ATOM     15  O   UNL     1       6.381   5.390  19.802  0.00  0.00    +0.000 OA
ATOM     16  H   UNL     1       3.501   5.633  16.447  0.00  0.00    +0.000 HD
ENDROOT
BRANCH   1  17
ATOM     17  C   UNL     1       7.763   6.632  17.501  0.00  0.00    +0.000 C 
BRANCH  17  19
ATOM     18  N   UNL     1       8.821   8.595  18.557  0.00  0.00    +0.000 N 
ATOM     19  C   UNL     1       7.788   8.149  17.736  0.00  0.00    +0.000 C 
ATOM     20  O   UNL     1       6.889   8.850  17.281  0.00  0.00    +0.000 OA
ATOM     21  H   UNL     1       9.424   7.889  18.971  0.00  0.00    +0.000 HD
BRANCH  18  26
ATOM     22  C   UNL     1       9.805  14.046  20.185  0.00  0.00    +0.000 C 
ATOM     23  C   UNL     1       9.556  12.618  19.788  0.00  0.00    +0.000 A 
ATOM     24  C   UNL     1       9.674  12.258  18.441  0.00  0.00    +0.000 A 
ATOM     25  C   UNL     1       9.440  10.939  18.026  0.00  0.00    +0.000 A 
ATOM     26  C   UNL     1       9.078   9.943  18.933  0.00  0.00    +0.000 A 
ATOM     27  C   UNL     1       8.970  10.297  20.284  0.00  0.00    +0.000 A 
ATOM     28  C   UNL     1       9.209  11.615  20.705  0.00  0.00    +0.000 A 
ATOM     29 CL   UNL     1       9.065  11.969  22.392  0.00  0.00    +0.000 Cl
ENDBRANCH  18  26
ENDBRANCH  17  19
ENDBRANCH   1  17
TORSDOF 3
ENDMDL
MODEL 4
REMARK VINA RESULT:      -8.4      1.079      2.238
REMARK  Name = 
REMARK  4 active torsions:
REMARK  status: ('A' for Active; 'I' for Inactive)
REMARK    1  A    between atoms: C_1  and  C_2
REMARK    2  A    between atoms: C_5  and  N_6
REMARK    3  A    between atoms: C_7  and  C_9
REMARK    4  A    between atoms: C_9  and  N_10
REMARK                            x       y       z     vdW  Elec       q    Type
REMARK                         _______ _______ _______ _____ _____    ______ ____
ROOT
ATOM      1  N   UNL     1       6.417   5.673  17.307  0.00  0.00    +0.000 N 
ATOM      2  C   UNL     1       6.922   4.614  17.996  0.00  0.00    +0.000 C 
ATOM      3  O   UNL     1       8.099   4.311  18.098  0.00  0.00    +0.000 OA
ATOM      4  N   UNL     1       5.877   3.937  18.575  0.00  0.00    +0.000 N 
ATOM      5  C   UNL     1       4.658   4.704  18.499  0.00  0.00    +0.000 C 
ATOM      6  C   UNL     1       4.426   5.529  19.791  0.00  0.00    +0.000 C 
ATOM      7  C   UNL     1       3.011   5.238  20.303  0.00  0.00    +0.000 C 
ATOM      8  C   UNL     1       2.518   4.162  19.394  0.00  0.00    +0.000 A 
ATOM      9  C   UNL     1       1.307   3.487  19.508  0.00  0.00    +0.000 A 
ATOM     10  C   UNL     1       1.013   2.488  18.591  0.00  0.00    +0.000 A 
ATOM     11  C   UNL     1       1.923   2.176  17.570  0.00  0.00    +0.000 A 
ATOM     12  C   UNL     1       3.135   2.867  17.453  0.00  0.00    +0.000 A 
ATOM     13  C   UNL     1       3.427   3.869  18.370  0.00  0.00    +0.000 A 
ATOM     14  C   UNL     1       5.043   5.683  17.383  0.00  0.00    +0.000 C 
ATOM     15  O   UNL     1       4.293   6.427  16.770  0.00  0.00    +0.000 OA
ATOM     16  H   UNL     1       6.026   3.146  19.187  0.00  0.00    +0.000 HD
ENDROOT
BRANCH   1  17
ATOM     17  C   UNL     1       7.239   6.665  16.653  0.00  0.00    +0.000 C 
BRANCH  17  19
ATOM     18  N   UNL     1       8.014   8.895  17.369  0.00  0.00    +0.000 N 
ATOM     19  C   UNL     1       7.831   7.566  17.746  0.00  0.00    +0.000 C 
ATOM     20  O   UNL     1       8.179   7.077  18.816  0.00  0.00    +0.000 OA
ATOM     21  H   UNL     1       7.800   9.140  16.406  0.00  0.00    +0.000 HD
BRANCH  18  26
ATOM     22  C   UNL     1      10.153  13.195  20.574  0.00  0.00    +0.000 C 
ATOM     23  C   UNL     1       9.579  12.094  19.727  0.00  0.00    +0.000 A 
ATOM     24  C   UNL     1       9.603  10.783  20.211  0.00  0.00    +0.000 A 
ATOM     25  C   UNL     1       9.088   9.725  19.449  0.00  0.00    +0.000 A 
ATOM     26  C   UNL     1       8.540   9.938  18.183  0.00  0.00    +0.000 A 
ATOM     27  C   UNL     1       8.503  11.251  17.699  0.00  0.00    +0.000 A 
ATOM     28  C   UNL     1       9.013  12.315  18.462  0.00  0.00    +0.000 A 
ATOM     29 CL   UNL     1       8.922  13.910  17.798  0.00  0.00    +0.000 Cl
ENDBRANCH  18  26
ENDBRANCH  17  19
ENDBRANCH   1  17
TORSDOF 3
ENDMDL
MODEL 5
REMARK VINA RESULT:      -8.4      1.506      2.362
REMARK  Name = 
REMARK  4 active torsions:
REMARK  status: ('A' for Active; 'I' for Inactive)
REMARK    1  A    between atoms: C_1  and  C_2
REMARK    2  A    between atoms: C_5  and  N_6
REMARK    3  A    between atoms: C_7  and  C_9
REMARK    4  A    between atoms: C_9  and  N_10
REMARK                            x       y       z     vdW  Elec       q    Type
REMARK                         _______ _______ _______ _____ _____    ______ ____
ROOT
ATOM      1  N   UNL     1       6.668   5.855  17.909  0.00  0.00    +0.000 N 
ATOM      2  C   UNL     1       6.766   5.483  19.214  0.00  0.00    +0.000 C 
ATOM      3  O   UNL     1       7.734   5.635  19.940  0.00  0.00    +0.000 OA
ATOM      4  N   UNL     1       5.577   4.907  19.591  0.00  0.00    +0.000 N 
ATOM      5  C   UNL     1       4.556   5.135  18.598  0.00  0.00    +0.000 C 
ATOM      6  C   UNL     1       3.698   6.379  18.942  0.00  0.00    +0.000 C 
ATOM      7  C   UNL     1       2.220   5.976  18.896  0.00  0.00    +0.000 C 
ATOM      8  C   UNL     1       2.260   4.501  18.675  0.00  0.00    +0.000 A 
ATOM      9  C   UNL     1       1.161   3.648  18.652  0.00  0.00    +0.000 A 
ATOM     10  C   UNL     1       1.377   2.291  18.460  0.00  0.00    +0.000 A 
ATOM     11  C   UNL     1       2.680   1.799  18.288  0.00  0.00    +0.000 A 
ATOM     12  C   UNL     1       3.781   2.665  18.299  0.00  0.00    +0.000 A 
ATOM     13  C   UNL     1       3.563   4.024  18.488  0.00  0.00    +0.000 A 
ATOM     14  C   UNL     1       5.442   5.495  17.398  0.00  0.00    +0.000 C 
ATOM     15  O   UNL     1       5.096   5.575  16.230  0.00  0.00    +0.000 OA
ATOM     16  H   UNL     1       5.405   4.609  20.541  0.00  0.00    +0.000 HD
ENDROOT
BRANCH   1  17
ATOM     17  C   UNL     1       7.698   6.585  17.208  0.00  0.00    +0.000 C 
BRANCH  17  19
ATOM     18  N   UNL     1       8.787   8.467  18.374  0.00  0.00    +0.000 N 
ATOM     19  C   UNL     1       7.647   8.040  17.696  0.00  0.00    +0.000 C 
ATOM     20  O   UNL     1       6.621   8.696  17.547  0.00  0.00    +0.000 OA
ATOM     21  H   UNL     1       9.516   7.779  18.538  0.00  0.00    +0.000 HD
BRANCH  18  26
ATOM     22  C   UNL     1       9.718  13.751  20.507  0.00  0.00    +0.000 C 
ATOM     23  C   UNL     1       9.465  12.387  19.928  0.00  0.00    +0.000 A 
ATOM     24  C   UNL     1       9.255  11.310  20.795  0.00  0.00    +0.000 A 
ATOM     25  C   UNL     1       9.026  10.019  20.297  0.00  0.00    +0.000 A 
ATOM     26  C   UNL     1       9.005   9.761  18.926  0.00  0.00    +0.000 A 
ATOM     27  C   UNL     1       9.204  10.838  18.054  0.00  0.00    +0.000 A 
ATOM     28  C   UNL     1       9.428  12.134  18.549  0.00  0.00    +0.000 A 
ATOM     29 CL   UNL     1       9.656  13.413  17.407  0.00  0.00    +0.000 Cl
ENDBRANCH  18  26
ENDBRANCH  17  19
ENDBRANCH   1  17
TORSDOF 3
ENDMDL
MODEL 6
REMARK VINA RESULT:      -8.4      5.941      7.818
REMARK  Name = 
REMARK  4 active torsions:
REMARK  status: ('A' for Active; 'I' for Inactive)
REMARK    1  A    between atoms: C_1  and  C_2
REMARK    2  A    between atoms: C_5  and  N_6
REMARK    3  A    between atoms: C_7  and  C_9
REMARK    4  A    between atoms: C_9  and  N_10
REMARK                            x       y       z     vdW  Elec       q    Type
REMARK                         _______ _______ _______ _____ _____    ______ ____
ROOT
ATOM      1  N   UNL     1       2.031   8.004  19.479  0.00  0.00    +0.000 N 
ATOM      2  C   UNL     1       2.281   8.005  18.141  0.00  0.00    +0.000 C 
ATOM      3  O   UNL     1       2.194   8.960  17.389  0.00  0.00    +0.000 OA
ATOM      4  N   UNL     1       2.662   6.739  17.772  0.00  0.00    +0.000 N 
ATOM      5  C   UNL     1       2.935   5.922  18.929  0.00  0.00    +0.000 C 
ATOM      6  C   UNL     1       4.444   5.931  19.286  0.00  0.00    +0.000 C 
ATOM      7  C   UNL     1       4.920   4.480  19.414  0.00  0.00    +0.000 C 
ATOM      8  C   UNL     1       3.733   3.679  18.994  0.00  0.00    +0.000 A 
ATOM      9  C   UNL     1       3.691   2.295  18.850  0.00  0.00    +0.000 A 
ATOM     10  C   UNL     1       2.510   1.707  18.422  0.00  0.00    +0.000 A 
ATOM     11  C   UNL     1       1.384   2.499  18.147  0.00  0.00    +0.000 A 
ATOM     12  C   UNL     1       1.429   3.889  18.307  0.00  0.00    +0.000 A 
ATOM     13  C   UNL     1       2.611   4.477  18.738  0.00  0.00    +0.000 A 
ATOM     14  C   UNL     1       2.198   6.740  19.997  0.00  0.00    +0.000 C 
ATOM     15  O   UNL     1       1.928   6.386  21.135  0.00  0.00    +0.000 OA
ATOM     16  H   UNL     1       2.955   6.522  16.828  0.00  0.00    +0.000 HD
ENDROOT
BRANCH   1  17
ATOM     17  C   UNL     1       1.702   9.193  20.230  0.00  0.00    +0.000 C 
BRANCH  17  19
ATOM     18  N   UNL     1      -0.068  10.253  18.877  0.00  0.00    +0.000 N 
ATOM     19  C   UNL     1       0.211   9.485  20.005  0.00  0.00    +0.000 C 
ATOM     20  O   UNL     1      -0.612   9.118  20.838  0.00  0.00    +0.000 OA
ATOM     21  H   UNL     1       0.723  10.599  18.342  0.00  0.00    +0.000 HD
BRANCH  18  26
ATOM     22  C   UNL     1      -5.267  11.889  16.972  0.00  0.00    +0.000 C 
ATOM     23  C   UNL     1      -3.916  11.439  17.452  0.00  0.00    +0.000 A 
ATOM     24  C   UNL     1      -3.449  11.894  18.690  0.00  0.00    +0.000 A 
ATOM     25  C   UNL     1      -2.191  11.507  19.171  0.00  0.00    +0.000 A 
ATOM     26  C   UNL     1      -1.357  10.664  18.435  0.00  0.00    +0.000 A 
ATOM     27  C   UNL     1      -1.824  10.198  17.200  0.00  0.00    +0.000 A 
ATOM     28  C   UNL     1      -3.087  10.578  16.718  0.00  0.00    +0.000 A 
ATOM     29 CL   UNL     1      -3.596   9.951  15.187  0.00  0.00    +0.000 Cl
ENDBRANCH  18  26
ENDBRANCH  17  19
ENDBRANCH   1  17
TORSDOF 3
ENDMDL
MODEL 7
REMARK VINA RESULT:      -8.3      1.723      2.635
REMARK  Name = 
REMARK  4 active torsions:
REMARK  status: ('A' for Active; 'I' for Inactive)
REMARK    1  A    between atoms: C_1  and  C_2
REMARK    2  A    between atoms: C_5  and  N_6
REMARK    3  A    between atoms: C_7  and  C_9
REMARK    4  A    between atoms: C_9  and  N_10
REMARK                            x       y       z     vdW  Elec       q    Type
REMARK                         _______ _______ _______ _____ _____    ______ ____
ROOT
ATOM      1  N   UNL     1       6.627   5.742  17.979  0.00  0.00    +0.000 N 
ATOM      2  C   UNL     1       6.693   5.407  19.296  0.00  0.00    +0.000 C 
ATOM      3  O   UNL     1       7.644   5.575  20.039  0.00  0.00    +0.000 OA
ATOM      4  N   UNL     1       5.492   4.850  19.661  0.00  0.00    +0.000 N 
ATOM      5  C   UNL     1       4.495   5.054  18.638  0.00  0.00    +0.000 C 
ATOM      6  C   UNL     1       3.638   6.313  18.926  0.00  0.00    +0.000 C 
ATOM      7  C   UNL     1       2.158   5.917  18.858  0.00  0.00    +0.000 C 
ATOM      8  C   UNL     1       2.195   4.436  18.681  0.00  0.00    +0.000 A 
ATOM      9  C   UNL     1       1.091   3.588  18.658  0.00  0.00    +0.000 A 
ATOM     10  C   UNL     1       1.303   2.225  18.510  0.00  0.00    +0.000 A 
ATOM     11  C   UNL     1       2.607   1.721  18.383  0.00  0.00    +0.000 A 
ATOM     12  C   UNL     1       3.712   2.580  18.394  0.00  0.00    +0.000 A 
ATOM     13  C   UNL     1       3.499   3.945  18.538  0.00  0.00    +0.000 A 
ATOM     14  C   UNL     1       5.411   5.373  17.450  0.00  0.00    +0.000 C 
ATOM     15  O   UNL     1       5.093   5.422  16.272  0.00  0.00    +0.000 OA
ATOM     16  H   UNL     1       5.296   4.580  20.616  0.00  0.00    +0.000 HD
ENDROOT
BRANCH   1  17
ATOM     17  C   UNL     1       7.678   6.445  17.280  0.00  0.00    +0.000 C 
BRANCH  17  19
ATOM     18  N   UNL     1       8.638   8.599  18.006  0.00  0.00    +0.000 N 
ATOM     19  C   UNL     1       7.494   7.944  17.557  0.00  0.00    +0.000 C 
ATOM     20  O   UNL     1       6.380   8.449  17.456  0.00  0.00    +0.000 OA
ATOM     21  H   UNL     1       9.466   8.031  18.167  0.00  0.00    +0.000 HD
BRANCH  18  26
ATOM     22  C   UNL     1       9.092  14.172  19.443  0.00  0.00    +0.000 C 
ATOM     23  C   UNL     1       8.995  12.715  19.086  0.00  0.00    +0.000 A 
ATOM     24  C   UNL     1       8.466  12.354  17.844  0.00  0.00    +0.000 A 
ATOM     25  C   UNL     1       8.348  11.006  17.475  0.00  0.00    +0.000 A 
ATOM     26  C   UNL     1       8.748   9.980  18.332  0.00  0.00    +0.000 A 
ATOM     27  C   UNL     1       9.289  10.337  19.573  0.00  0.00    +0.000 A 
ATOM     28  C   UNL     1       9.414  11.686  19.943  0.00  0.00    +0.000 A 
ATOM     29 CL   UNL     1      10.101  12.046  21.489  0.00  0.00    +0.000 Cl
ENDBRANCH  18  26
ENDBRANCH  17  19
ENDBRANCH   1  17
TORSDOF 3
ENDMDL
MODEL 8
REMARK VINA RESULT:      -8.2      1.044      1.390
REMARK  Name = 
REMARK  4 active torsions:
REMARK  status: ('A' for Active; 'I' for Inactive)
REMARK    1  A    between atoms: C_1  and  C_2
REMARK    2  A    between atoms: C_5  and  N_6
REMARK    3  A    between atoms: C_7  and  C_9
REMARK    4  A    between atoms: C_9  and  N_10
REMARK                            x       y       z     vdW  Elec       q    Type
REMARK                         _______ _______ _______ _____ _____    ______ ____
ROOT
ATOM      1  N   UNL     1       6.120   5.745  17.382  0.00  0.00    +0.000 N 
ATOM      2  C   UNL     1       5.101   6.286  16.662  0.00  0.00    +0.000 C 
ATOM      3  O   UNL     1       5.203   7.106  15.766  0.00  0.00    +0.000 OA
ATOM      4  N   UNL     1       3.921   5.743  17.107  0.00  0.00    +0.000 N 
ATOM      5  C   UNL     1       4.165   4.611  17.967  0.00  0.00    +0.000 C 
ATOM      6  C   UNL     1       4.113   3.278  17.177  0.00  0.00    +0.000 C 
ATOM      7  C   UNL     1       3.152   2.325  17.897  0.00  0.00    +0.000 C 
ATOM      8  C   UNL     1       2.569   3.164  18.985  0.00  0.00    +0.000 A 
ATOM      9  C   UNL     1       1.564   2.776  19.865  0.00  0.00    +0.000 A 
ATOM     10  C   UNL     1       1.114   3.692  20.805  0.00  0.00    +0.000 A 
ATOM     11  C   UNL     1       1.671   4.979  20.863  0.00  0.00    +0.000 A 
ATOM     12  C   UNL     1       2.692   5.358  19.982  0.00  0.00    +0.000 A 
ATOM     13  C   UNL     1       3.144   4.440  19.043  0.00  0.00    +0.000 A 
ATOM     14  C   UNL     1       5.629   4.880  18.334  0.00  0.00    +0.000 C 
ATOM     15  O   UNL     1       6.276   4.336  19.215  0.00  0.00    +0.000 OA
ATOM     16  H   UNL     1       3.035   5.958  16.670  0.00  0.00    +0.000 HD
ENDROOT
BRANCH   1  17
ATOM     17  C   UNL     1       7.515   6.012  17.116  0.00  0.00    +0.000 C 
BRANCH  17  19
ATOM     18  N   UNL     1       7.887   8.449  17.202  0.00  0.00    +0.000 N 
ATOM     19  C   UNL     1       7.909   7.257  17.923  0.00  0.00    +0.000 C 
ATOM     20  O   UNL     1       8.290   7.135  19.083  0.00  0.00    +0.000 OA
ATOM     21  H   UNL     1       7.673   8.390  16.210  0.00  0.00    +0.000 HD
BRANCH  18  26
ATOM     22  C   UNL     1       9.199  13.651  19.337  0.00  0.00    +0.000 C 
ATOM     23  C   UNL     1       8.882  12.286  18.792  0.00  0.00    +0.000 A 
ATOM     24  C   UNL     1       8.062  12.180  17.664  0.00  0.00    +0.000 A 
ATOM     25  C   UNL     1       7.732  10.926  17.130  0.00  0.00    +0.000 A 
ATOM     26  C   UNL     1       8.202   9.744  17.703  0.00  0.00    +0.000 A 
ATOM     27  C   UNL     1       9.033   9.846  18.825  0.00  0.00    +0.000 A 
ATOM     28  C   UNL     1       9.370  11.101  19.360  0.00  0.00    +0.000 A 
ATOM     29 CL   UNL     1      10.409  11.143  20.743  0.00  0.00    +0.000 Cl
ENDBRANCH  18  26
ENDBRANCH  17  19
ENDBRANCH   1  17
TORSDOF 3
ENDMDL
MODEL 9
REMARK VINA RESULT:      -8.2      3.978      6.054
REMARK  Name = 
REMARK  4 active torsions:
REMARK  status: ('A' for Active; 'I' for Inactive)
REMARK    1  A    between atoms: C_1  and  C_2
REMARK    2  A    between atoms: C_5  and  N_6
REMARK    3  A    between atoms: C_7  and  C_9
REMARK    4  A    between atoms: C_9  and  N_10
REMARK                            x       y       z     vdW  Elec       q    Type
REMARK                         _______ _______ _______ _____ _____    ______ ____
ROOT
ATOM      1  N   UNL     1       5.198   6.043  17.770  0.00  0.00    +0.000 N 
ATOM      2  C   UNL     1       4.034   6.729  17.612  0.00  0.00    +0.000 C 
ATOM      3  O   UNL     1       3.903   7.823  17.090  0.00  0.00    +0.000 OA
ATOM      4  N   UNL     1       3.013   5.974  18.134  0.00  0.00    +0.000 N 
ATOM      5  C   UNL     1       3.454   4.629  18.414  0.00  0.00    +0.000 C 
ATOM      6  C   UNL     1       3.136   3.672  17.236  0.00  0.00    +0.000 C 
ATOM      7  C   UNL     1       2.390   2.454  17.792  0.00  0.00    +0.000 C 
ATOM      8  C   UNL     1       2.169   2.796  19.227  0.00  0.00    +0.000 A 
ATOM      9  C   UNL     1       1.444   2.042  20.145  0.00  0.00    +0.000 A 
ATOM     10  C   UNL     1       1.312   2.519  21.441  0.00  0.00    +0.000 A 
ATOM     11  C   UNL     1       1.904   3.736  21.811  0.00  0.00    +0.000 A 
ATOM     12  C   UNL     1       2.643   4.484  20.886  0.00  0.00    +0.000 A 
ATOM     13  C   UNL     1       2.778   4.004  19.589  0.00  0.00    +0.000 A 
ATOM     14  C   UNL     1       4.971   4.858  18.432  0.00  0.00    +0.000 C 
ATOM     15  O   UNL     1       5.824   4.083  18.836  0.00  0.00    +0.000 OA
ATOM     16  H   UNL     1       2.046   6.265  18.071  0.00  0.00    +0.000 HD
ENDROOT
BRANCH   1  17
ATOM     17  C   UNL     1       6.467   6.492  17.245  0.00  0.00    +0.000 C 
BRANCH  17  19
ATOM     18  N   UNL     1       6.128   5.467  15.027  0.00  0.00    +0.000 N 
ATOM     19  C   UNL     1       6.911   5.480  16.179  0.00  0.00    +0.000 C 
ATOM     20  O   UNL     1       7.835   4.709  16.420  0.00  0.00    +0.000 OA
ATOM     21  H   UNL     1       5.312   6.073  15.011  0.00  0.00    +0.000 HD
BRANCH  18  26
ATOM     22  C   UNL     1       6.786   2.049  10.421  0.00  0.00    +0.000 C 
ATOM     23  C   UNL     1       6.589   2.946  11.610  0.00  0.00    +0.000 A 
ATOM     24  C   UNL     1       7.711   3.487  12.246  0.00  0.00    +0.000 A 
ATOM     25  C   UNL     1       7.573   4.321  13.365  0.00  0.00    +0.000 A 
ATOM     26  C   UNL     1       6.318   4.635  13.888  0.00  0.00    +0.000 A 
ATOM     27  C   UNL     1       5.191   4.104  13.248  0.00  0.00    +0.000 A 
ATOM     28  C   UNL     1       5.325   3.274  12.123  0.00  0.00    +0.000 A 
ATOM     29 CL   UNL     1       3.884   2.667  11.383  0.00  0.00    +0.000 Cl
ENDBRANCH  18  26
ENDBRANCH  17  19
ENDBRANCH   1  17
TORSDOF 3
ENDMDL
