MODEL 1
REMARK VINA RESULT:      -8.8      0.000      0.000
REMARK  Name = 
REMARK  6 active torsions:
REMARK  status: ('A' for Active; 'I' for Inactive)
REMARK    1  A    between atoms: C_1  and  C_2
REMARK    2  A    between atoms: C_5  and  N_6
REMARK    3  A    between atoms: C_7  and  C_9
REMARK    4  A    between atoms: C_12  and  N_13
REMARK    5  A    between atoms: N_13  and  S_14
REMARK    6  A    between atoms: S_14  and  C_17
REMARK                            x       y       z     vdW  Elec       q    Type
REMARK                         _______ _______ _______ _____ _____    ______ ____
ROOT
ATOM      1  C   UNL     1       1.359   9.163  19.031  0.00  0.00    +0.000 A 
ATOM      2  C   UNL     1       2.203   8.486  18.132  0.00  0.00    +0.000 A 
ATOM      3  C   UNL     1       2.796   7.261  18.490  0.00  0.00    +0.000 A 
ATOM      4  C   UNL     1       2.547   6.717  19.754  0.00  0.00    +0.000 A 
ATOM      5  C   UNL     1       1.710   7.389  20.643  0.00  0.00    +0.000 A 
ATOM      6  C   UNL     1       1.130   8.608  20.298  0.00  0.00    +0.000 A 
ENDROOT
BRANCH   1   8
ATOM      7  N   UNL     1       1.522  11.590  18.889  0.00  0.00    +0.000 N 
ATOM      8  C   UNL     1       0.758  10.475  18.652  0.00  0.00    +0.000 C 
ATOM      9  O   UNL     1      -0.370  10.513  18.163  0.00  0.00    +0.000 OA
ATOM     10  H   UNL     1       2.437  11.481  19.335  0.00  0.00    +0.000 HD
BRANCH   7  15
ATOM     11  C   UNL     1       3.163  15.009  21.788  0.00  0.00    +0.000 C 
ATOM     12  C   UNL     1       2.330  14.790  20.526  0.00  0.00    +0.000 C 
ATOM     13  C   UNL     1       3.178  14.133  19.429  0.00  0.00    +0.000 C 
ATOM     14  C   UNL     1       2.352  13.820  18.181  0.00  0.00    +0.000 C 
ATOM     15  C   UNL     1       1.133  12.943  18.497  0.00  0.00    +0.000 C 
ATOM     16  C   UNL     1       0.279  13.609  19.583  0.00  0.00    +0.000 C 
ATOM     17  C   UNL     1       1.080  13.956  20.840  0.00  0.00    +0.000 C 
ENDBRANCH   7  15
ENDBRANCH   1   8
BRANCH   4  18
ATOM     18  N   UNL     1       3.134   5.505  20.182  0.00  0.00    +0.000 N 
ATOM     19  H   UNL     1       3.118   5.267  21.173  0.00  0.00    +0.000 HD
BRANCH  18  20
ATOM     20  S   UNL     1       3.055   4.136  19.187  0.00  0.00    +0.000 S 
ATOM     21  O   UNL     1       3.370   3.002  20.041  0.00  0.00    +0.000 OA
ATOM     22  O   UNL     1       1.846   4.180  18.416  0.00  0.00    +0.000 OA
BRANCH  20  23
ATOM     23  C   UNL     1       4.438   4.354  18.069  0.00  0.00    +0.000 A 
ATOM     24  C   UNL     1       5.706   4.637  18.642  0.00  0.00    +0.000 A 
ATOM     25  C   UNL     1       6.797   4.961  17.833  0.00  0.00    +0.000 A 
ATOM     26  C   UNL     1       6.583   4.932  16.480  0.00  0.00    +0.000 A 
ATOM     27  N   UNL     1       7.478   5.202  15.444  0.00  0.00    +0.000 N 
ATOM     28  C   UNL     1       6.870   4.836  14.236  0.00  0.00    +0.000 A 
ATOM     29  O   UNL     1       7.391   4.843  13.135  0.00  0.00    +0.000 OA
ATOM     30  N   UNL     1       5.550   4.475  14.539  0.00  0.00    +0.000 N 
ATOM     31  C   UNL     1       5.366   4.548  15.913  0.00  0.00    +0.000 A 
ATOM     32  C   UNL     1       4.248   4.310  16.681  0.00  0.00    +0.000 A 
ATOM     33  H   UNL     1       8.024   6.055  15.454  0.00  0.00    +0.000 HD
ATOM     34  H   UNL     1       4.891   4.179  13.839  0.00  0.00    +0.000 HD
ENDBRANCH  20  23
ENDBRANCH  18  20
ENDBRANCH   4  18
TORSDOF 5
ENDMDL
MODEL 2
REMARK VINA RESULT:      -8.7      3.476     10.198
REMARK  Name = 
REMARK  6 active torsions:
REMARK  status: ('A' for Active; 'I' for Inactive)
REMARK    1  A    between atoms: C_1  and  C_2
REMARK    2  A    between atoms: C_5  and  N_6
REMARK    3  A    between atoms: C_7  and  C_9
REMARK    4  A    between atoms: C_12  and  N_13
REMARK    5  A    between atoms: N_13  and  S_14
REMARK    6  A    between atoms: S_14  and  C_17
REMARK                            x       y       z     vdW  Elec       q    Type
REMARK                         _______ _______ _______ _____ _____    ______ ____
ROOT
ATOM      1  C   UNL     1       2.195   7.517  19.297  0.00  0.00    +0.000 A 
ATOM      2  C   UNL     1       1.426   8.155  20.287  0.00  0.00    +0.000 A 
ATOM      3  C   UNL     1       0.752   9.358  20.008  0.00  0.00    +0.000 A 
ATOM      4  C   UNL     1       0.854   9.926  18.734  0.00  0.00    +0.000 A 
ATOM      5  C   UNL     1       1.616   9.293  17.753  0.00  0.00    +0.000 A 
ATOM      6  C   UNL     1       2.294   8.108  18.029  0.00  0.00    +0.000 A 
ENDROOT
BRANCH   1   8
ATOM      7  N   UNL     1       4.066   6.013  18.886  0.00  0.00    +0.000 N 
ATOM      8  C   UNL     1       2.928   6.257  19.612  0.00  0.00    +0.000 C 
ATOM      9  O   UNL     1       2.497   5.498  20.478  0.00  0.00    +0.000 OA
ATOM     10  H   UNL     1       4.341   6.673  18.154  0.00  0.00    +0.000 HD
BRANCH   7  15
ATOM     11  C   UNL     1       6.879   4.934  15.183  0.00  0.00    +0.000 C 
ATOM     12  C   UNL     1       6.542   4.507  16.611  0.00  0.00    +0.000 C 
ATOM     13  C   UNL     1       6.842   5.644  17.596  0.00  0.00    +0.000 C 
ATOM     14  C   UNL     1       6.435   5.281  19.025  0.00  0.00    +0.000 C 
ATOM     15  C   UNL     1       4.958   4.879  19.123  0.00  0.00    +0.000 C 
ATOM     16  C   UNL     1       4.663   3.732  18.148  0.00  0.00    +0.000 C 
ATOM     17  C   UNL     1       5.079   4.053  16.710  0.00  0.00    +0.000 C 
ENDBRANCH   7  15
ENDBRANCH   1   8
BRANCH   4  18
ATOM     18  N   UNL     1       0.223  11.145  18.399  0.00  0.00    +0.000 N 
ATOM     19  H   UNL     1      -0.737  11.132  18.057  0.00  0.00    +0.000 HD
BRANCH  18  20
ATOM     20  S   UNL     1       0.572  12.544  19.290  0.00  0.00    +0.000 S 
ATOM     21  O   UNL     1       1.840  12.288  19.957  0.00  0.00    +0.000 OA
ATOM     22  O   UNL     1       0.384  13.696  18.456  0.00  0.00    +0.000 OA
BRANCH  20  23
ATOM     23  C   UNL     1      -0.696  12.558  20.556  0.00  0.00    +0.000 A 
ATOM     24  C   UNL     1      -0.278  12.403  21.904  0.00  0.00    +0.000 A 
ATOM     25  C   UNL     1      -1.217  12.260  22.928  0.00  0.00    +0.000 A 
ATOM     26  C   UNL     1      -2.535  12.335  22.563  0.00  0.00    +0.000 A 
ATOM     27  N   UNL     1      -3.674  12.233  23.362  0.00  0.00    +0.000 N 
ATOM     28  C   UNL     1      -4.785  12.585  22.585  0.00  0.00    +0.000 A 
ATOM     29  O   UNL     1      -5.932  12.701  22.977  0.00  0.00    +0.000 OA
ATOM     30  N   UNL     1      -4.323  12.764  21.274  0.00  0.00    +0.000 N 
ATOM     31  C   UNL     1      -2.945  12.596  21.253  0.00  0.00    +0.000 A 
ATOM     32  C   UNL     1      -2.051  12.653  20.209  0.00  0.00    +0.000 A 
ATOM     33  H   UNL     1      -3.778  11.455  24.001  0.00  0.00    +0.000 HD
ATOM     34  H   UNL     1      -4.929  13.014  20.511  0.00  0.00    +0.000 HD
ENDBRANCH  20  23
ENDBRANCH  18  20
ENDBRANCH   4  18
TORSDOF 5
ENDMDL
MODEL 3
REMARK VINA RESULT:      -8.6      1.807      2.469
REMARK  Name = 
REMARK  6 active torsions:
REMARK  status: ('A' for Active; 'I' for Inactive)
REMARK    1  A    between atoms: C_1  and  C_2
REMARK    2  A    between atoms: C_5  and  N_6
REMARK    3  A    between atoms: C_7  and  C_9
REMARK    4  A    between atoms: C_12  and  N_13
REMARK    5  A    between atoms: N_13  and  S_14
REMARK    6  A    between atoms: S_14  and  C_17
REMARK                            x       y       z     vdW  Elec       q    Type
REMARK                         _______ _______ _______ _____ _____    ______ ____
ROOT
ATOM      1  C   UNL     1       0.858   9.491  19.603  0.00  0.00    +0.000 A 
ATOM      2  C   UNL     1       1.682   8.935  18.608  0.00  0.00    +0.000 A 
ATOM      3  C   UNL     1       2.357   7.722  18.832  0.00  0.00    +0.000 A 
ATOM      4  C   UNL     1       2.212   7.066  20.060  0.00  0.00    +0.000 A 
ATOM      5  C   UNL     1       1.395   7.619  21.045  0.00  0.00    +0.000 A 
ATOM      6  C   UNL     1       0.733   8.826  20.832  0.00  0.00    +0.000 A 
ENDROOT
BRANCH   1   8
ATOM      7  N   UNL     1      -0.052  11.578  20.468  0.00  0.00    +0.000 N 
ATOM      8  C   UNL     1       0.168  10.793  19.366  0.00  0.00    +0.000 C 
ATOM      9  O   UNL     1      -0.177  11.103  18.227  0.00  0.00    +0.000 OA
ATOM     10  H   UNL     1       0.230  11.234  21.390  0.00  0.00    +0.000 HD
BRANCH   7  15
ATOM     11  C   UNL     1      -3.386  12.415  23.780  0.00  0.00    +0.000 C 
ATOM     12  C   UNL     1      -2.654  13.069  22.609  0.00  0.00    +0.000 C 
ATOM     13  C   UNL     1      -1.147  13.139  22.891  0.00  0.00    +0.000 C 
ATOM     14  C   UNL     1      -0.372  13.709  21.702  0.00  0.00    +0.000 C 
ATOM     15  C   UNL     1      -0.627  12.921  20.411  0.00  0.00    +0.000 C 
ATOM     16  C   UNL     1      -2.133  12.864  20.124  0.00  0.00    +0.000 C 
ATOM     17  C   UNL     1      -2.943  12.318  21.302  0.00  0.00    +0.000 C 
ENDBRANCH   7  15
ENDBRANCH   1   8
BRANCH   4  18
ATOM     18  N   UNL     1       2.884   5.860  20.355  0.00  0.00    +0.000 N 
ATOM     19  H   UNL     1       2.958   5.555  21.325  0.00  0.00    +0.000 HD
BRANCH  18  20
ATOM     20  S   UNL     1       2.789   4.559  19.274  0.00  0.00    +0.000 S 
ATOM     21  O   UNL     1       2.983   3.359  20.073  0.00  0.00    +0.000 OA
ATOM     22  O   UNL     1       1.636   4.722  18.436  0.00  0.00    +0.000 OA
BRANCH  20  23
ATOM     23  C   UNL     1       4.251   4.755  18.256  0.00  0.00    +0.000 A 
ATOM     24  C   UNL     1       5.484   4.993  18.918  0.00  0.00    +0.000 A 
ATOM     25  C   UNL     1       6.636   5.299  18.190  0.00  0.00    +0.000 A 
ATOM     26  C   UNL     1       6.514   5.299  16.826  0.00  0.00    +0.000 A 
ATOM     27  N   UNL     1       7.484   5.560  15.858  0.00  0.00    +0.000 N 
ATOM     28  C   UNL     1       6.950   5.232  14.605  0.00  0.00    +0.000 A 
ATOM     29  O   UNL     1       7.545   5.243  13.542  0.00  0.00    +0.000 OA
ATOM     30  N   UNL     1       5.603   4.904  14.812  0.00  0.00    +0.000 N 
ATOM     31  C   UNL     1       5.328   4.959  16.171  0.00  0.00    +0.000 A 
ATOM     32  C   UNL     1       4.155   4.740  16.857  0.00  0.00    +0.000 A 
ATOM     33  H   UNL     1       8.051   6.397  15.920  0.00  0.00    +0.000 HD
ATOM     34  H   UNL     1       4.986   4.638  14.063  0.00  0.00    +0.000 HD
ENDBRANCH  20  23
ENDBRANCH  18  20
ENDBRANCH   4  18
TORSDOF 5
ENDMDL
MODEL 4
REMARK VINA RESULT:      -8.6      4.870     11.094
REMARK  Name = 
REMARK  6 active torsions:
REMARK  status: ('A' for Active; 'I' for Inactive)
REMARK    1  A    between atoms: C_1  and  C_2
REMARK    2  A    between atoms: C_5  and  N_6
REMARK    3  A    between atoms: C_7  and  C_9
REMARK    4  A    between atoms: C_12  and  N_13
REMARK    5  A    between atoms: N_13  and  S_14
REMARK    6  A    between atoms: S_14  and  C_17
REMARK                            x       y       z     vdW  Elec       q    Type
REMARK                         _______ _______ _______ _____ _____    ______ ____
ROOT
ATOM      1  C   UNL     1       1.752   8.758  18.966  0.00  0.00    +0.000 A 
ATOM      2  C   UNL     1       1.599   9.978  18.283  0.00  0.00    +0.000 A 
ATOM      3  C   UNL     1       0.917  11.054  18.881  0.00  0.00    +0.000 A 
ATOM      4  C   UNL     1       0.383  10.904  20.166  0.00  0.00    +0.000 A 
ATOM      5  C   UNL     1       0.537   9.695  20.841  0.00  0.00    +0.000 A 
ATOM      6  C   UNL     1       1.200   8.623  20.248  0.00  0.00    +0.000 A 
ENDROOT
BRANCH   1   8
ATOM      7  N   UNL     1       2.068   6.357  18.704  0.00  0.00    +0.000 N 
ATOM      8  C   UNL     1       2.451   7.614  18.311  0.00  0.00    +0.000 C 
ATOM      9  O   UNL     1       3.326   7.830  17.474  0.00  0.00    +0.000 OA
ATOM     10  H   UNL     1       1.359   6.258  19.435  0.00  0.00    +0.000 HD
BRANCH   7  15
ATOM     11  C   UNL     1       1.703   2.520  21.520  0.00  0.00    +0.000 C 
ATOM     12  C   UNL     1       2.186   2.967  20.141  0.00  0.00    +0.000 C 
ATOM     13  C   UNL     1       1.017   3.525  19.318  0.00  0.00    +0.000 C 
ATOM     14  C   UNL     1       1.481   4.061  17.963  0.00  0.00    +0.000 C 
ATOM     15  C   UNL     1       2.577   5.125  18.104  0.00  0.00    +0.000 C 
ATOM     16  C   UNL     1       3.751   4.560  18.915  0.00  0.00    +0.000 C 
ATOM     17  C   UNL     1       3.319   3.994  20.270  0.00  0.00    +0.000 C 
ENDBRANCH   7  15
ENDBRANCH   1   8
BRANCH   4  18
ATOM     18  N   UNL     1      -0.333  11.938  20.809  0.00  0.00    +0.000 N 
ATOM     19  H   UNL     1       0.178  12.646  21.335  0.00  0.00    +0.000 HD
BRANCH  18  20
ATOM     20  S   UNL     1      -1.742  12.553  20.096  0.00  0.00    +0.000 S 
ATOM     21  O   UNL     1      -1.430  13.919  19.706  0.00  0.00    +0.000 OA
ATOM     22  O   UNL     1      -2.249  11.601  19.150  0.00  0.00    +0.000 OA
BRANCH  20  23
ATOM     23  C   UNL     1      -2.895  12.646  21.465  0.00  0.00    +0.000 A 
ATOM     24  C   UNL     1      -2.371  12.487  22.775  0.00  0.00    +0.000 A 
ATOM     25  C   UNL     1      -3.224  12.403  23.878  0.00  0.00    +0.000 A 
ATOM     26  C   UNL     1      -4.563  12.539  23.625  0.00  0.00    +0.000 A 
ATOM     27  N   UNL     1      -5.634  12.504  24.519  0.00  0.00    +0.000 N 
ATOM     28  C   UNL     1      -6.789  12.901  23.834  0.00  0.00    +0.000 A 
ATOM     29  O   UNL     1      -7.891  13.079  24.321  0.00  0.00    +0.000 OA
ATOM     30  N   UNL     1      -6.433  13.040  22.486  0.00  0.00    +0.000 N 
ATOM     31  C   UNL     1      -5.072  12.803  22.351  0.00  0.00    +0.000 A 
ATOM     32  C   UNL     1      -4.268  12.803  21.233  0.00  0.00    +0.000 A 
ATOM     33  H   UNL     1      -5.720  11.739  25.178  0.00  0.00    +0.000 HD
ATOM     34  H   UNL     1      -7.089  13.311  21.773  0.00  0.00    +0.000 HD
ENDBRANCH  20  23
ENDBRANCH  18  20
ENDBRANCH   4  18
TORSDOF 5
ENDMDL
MODEL 5
REMARK VINA RESULT:      -8.6      3.658     10.419
REMARK  Name = 
REMARK  6 active torsions:
REMARK  status: ('A' for Active; 'I' for Inactive)
REMARK    1  A    between atoms: C_1  and  C_2
REMARK    2  A    between atoms: C_5  and  N_6
REMARK    3  A    between atoms: C_7  and  C_9
REMARK    4  A    between atoms: C_12  and  N_13
REMARK    5  A    between atoms: N_13  and  S_14
REMARK    6  A    between atoms: S_14  and  C_17
REMARK                            x       y       z     vdW  Elec       q    Type
REMARK                         _______ _______ _______ _____ _____    ______ ____
ROOT
ATOM      1  C   UNL     1       2.235   7.341  19.252  0.00  0.00    +0.000 A 
ATOM      2  C   UNL     1       1.640   7.854  20.419  0.00  0.00    +0.000 A 
ATOM      3  C   UNL     1       1.105   9.156  20.437  0.00  0.00    +0.000 A 
ATOM      4  C   UNL     1       1.171   9.947  19.286  0.00  0.00    +0.000 A 
ATOM      5  C   UNL     1       1.760   9.436  18.130  0.00  0.00    +0.000 A 
ATOM      6  C   UNL     1       2.302   8.153  18.110  0.00  0.00    +0.000 A 
ENDROOT
BRANCH   1   8
ATOM      7  N   UNL     1       4.109   5.858  18.785  0.00  0.00    +0.000 N 
ATOM      8  C   UNL     1       2.824   5.970  19.251  0.00  0.00    +0.000 C 
ATOM      9  O   UNL     1       2.156   5.017  19.645  0.00  0.00    +0.000 OA
ATOM     10  H   UNL     1       4.589   6.693  18.436  0.00  0.00    +0.000 HD
BRANCH   7  15
ATOM     11  C   UNL     1       6.509   4.998  14.749  0.00  0.00    +0.000 C 
ATOM     12  C   UNL     1       6.225   4.419  16.134  0.00  0.00    +0.000 C 
ATOM     13  C   UNL     1       6.725   5.372  17.227  0.00  0.00    +0.000 C 
ATOM     14  C   UNL     1       6.379   4.863  18.627  0.00  0.00    +0.000 C 
ATOM     15  C   UNL     1       4.876   4.613  18.799  0.00  0.00    +0.000 C 
ATOM     16  C   UNL     1       4.380   3.648  17.714  0.00  0.00    +0.000 C 
ATOM     17  C   UNL     1       4.729   4.116  16.298  0.00  0.00    +0.000 C 
ENDBRANCH   7  15
ENDBRANCH   1   8
BRANCH   4  18
ATOM     18  N   UNL     1       0.676  11.269  19.250  0.00  0.00    +0.000 N 
ATOM     19  H   UNL     1       1.305  12.029  18.992  0.00  0.00    +0.000 HD
BRANCH  18  20
ATOM     20  S   UNL     1      -0.919  11.556  18.759  0.00  0.00    +0.000 S 
ATOM     21  O   UNL     1      -0.883  12.777  17.970  0.00  0.00    +0.000 OA
ATOM     22  O   UNL     1      -1.479  10.343  18.236  0.00  0.00    +0.000 OA
BRANCH  20  23
ATOM     23  C   UNL     1      -1.763  11.944  20.291  0.00  0.00    +0.000 A 
ATOM     24  C   UNL     1      -1.084  11.656  21.505  0.00  0.00    +0.000 A 
ATOM     25  C   UNL     1      -1.733  11.796  22.733  0.00  0.00    +0.000 A 
ATOM     26  C   UNL     1      -3.016  12.273  22.696  0.00  0.00    +0.000 A 
ATOM     27  N   UNL     1      -3.894  12.516  23.753  0.00  0.00    +0.000 N 
ATOM     28  C   UNL     1      -5.008  13.198  23.248  0.00  0.00    +0.000 A 
ATOM     29  O   UNL     1      -5.931  13.654  23.898  0.00  0.00    +0.000 OA
ATOM     30  N   UNL     1      -4.860  13.240  21.854  0.00  0.00    +0.000 N 
ATOM     31  C   UNL     1      -3.647  12.659  21.511  0.00  0.00    +0.000 A 
ATOM     32  C   UNL     1      -3.070  12.451  20.278  0.00  0.00    +0.000 A 
ATOM     33  H   UNL     1      -4.060  11.800  24.450  0.00  0.00    +0.000 HD
ATOM     34  H   UNL     1      -5.537  13.670  21.247  0.00  0.00    +0.000 HD
ENDBRANCH  20  23
ENDBRANCH  18  20
ENDBRANCH   4  18
TORSDOF 5
ENDMDL
MODEL 6
REMARK VINA RESULT:      -8.5      1.957      3.016
REMARK  Name = 
REMARK  6 active torsions:
REMARK  status: ('A' for Active; 'I' for Inactive)
REMARK    1  A    between atoms: C_1  and  C_2
REMARK    2  A    between atoms: C_5  and  N_6
REMARK    3  A    between atoms: C_7  and  C_9
REMARK    4  A    between atoms: C_12  and  N_13
REMARK    5  A    between atoms: N_13  and  S_14
REMARK    6  A    between atoms: S_14  and  C_17
REMARK                            x       y       z     vdW  Elec       q    Type
REMARK                         _______ _______ _______ _____ _____    ______ ____
ROOT
ATOM      1  C   UNL     1       1.536   9.083  19.154  0.00  0.00    +0.000 A 
ATOM      2  C   UNL     1       2.258   8.264  18.268  0.00  0.00    +0.000 A 
ATOM      3  C   UNL     1       2.680   6.980  18.661  0.00  0.00    +0.000 A 
ATOM      4  C   UNL     1       2.383   6.519  19.948  0.00  0.00    +0.000 A 
ATOM      5  C   UNL     1       1.667   7.332  20.824  0.00  0.00    +0.000 A 
ATOM      6  C   UNL     1       1.257   8.608  20.444  0.00  0.00    +0.000 A 
ENDROOT
BRANCH   1   8
ATOM      7  N   UNL     1      -0.182  10.802  19.002  0.00  0.00    +0.000 N 
ATOM      8  C   UNL     1       1.118  10.453  18.737  0.00  0.00    +0.000 C 
ATOM      9  O   UNL     1       1.923  11.196  18.180  0.00  0.00    +0.000 OA
ATOM     10  H   UNL     1      -0.805  10.115  19.435  0.00  0.00    +0.000 HD
BRANCH   7  15
ATOM     11  C   UNL     1      -4.863  10.817  18.066  0.00  0.00    +0.000 C 
ATOM     12  C   UNL     1      -3.655  11.742  18.206  0.00  0.00    +0.000 C 
ATOM     13  C   UNL     1      -3.077  11.659  19.626  0.00  0.00    +0.000 C 
ATOM     14  C   UNL     1      -1.813  12.507  19.775  0.00  0.00    +0.000 C 
ATOM     15  C   UNL     1      -0.737  12.131  18.749  0.00  0.00    +0.000 C 
ATOM     16  C   UNL     1      -1.312  12.228  17.331  0.00  0.00    +0.000 C 
ATOM     17  C   UNL     1      -2.592  11.408  17.150  0.00  0.00    +0.000 C 
ENDBRANCH   7  15
ENDBRANCH   1   8
BRANCH   4  18
ATOM     18  N   UNL     1       2.802   5.252  20.410  0.00  0.00    +0.000 N 
ATOM     19  H   UNL     1       2.559   4.962  21.357  0.00  0.00    +0.000 HD
BRANCH  18  20
ATOM     20  S   UNL     1       2.875   3.946  19.333  0.00  0.00    +0.000 S 
ATOM     21  O   UNL     1       3.214   2.782  20.136  0.00  0.00    +0.000 OA
ATOM     22  O   UNL     1       1.713   3.962  18.491  0.00  0.00    +0.000 OA
BRANCH  20  23
ATOM     23  C   UNL     1       4.304   4.322  18.319  0.00  0.00    +0.000 A 
ATOM     24  C   UNL     1       5.499   4.700  18.986  0.00  0.00    +0.000 A 
ATOM     25  C   UNL     1       6.607   5.145  18.262  0.00  0.00    +0.000 A 
ATOM     26  C   UNL     1       6.488   5.140  16.898  0.00  0.00    +0.000 A 
ATOM     27  N   UNL     1       7.421   5.521  15.933  0.00  0.00    +0.000 N 
ATOM     28  C   UNL     1       6.932   5.140  14.677  0.00  0.00    +0.000 A 
ATOM     29  O   UNL     1       7.522   5.229  13.616  0.00  0.00    +0.000 OA
ATOM     30  N   UNL     1       5.633   4.653  14.879  0.00  0.00    +0.000 N 
ATOM     31  C   UNL     1       5.351   4.666  16.238  0.00  0.00    +0.000 A 
ATOM     32  C   UNL     1       4.212   4.305  16.920  0.00  0.00    +0.000 A 
ATOM     33  H   UNL     1       7.885   6.419  16.002  0.00  0.00    +0.000 HD
ATOM     34  H   UNL     1       5.053   4.321  14.127  0.00  0.00    +0.000 HD
ENDBRANCH  20  23
ENDBRANCH  18  20
ENDBRANCH   4  18
TORSDOF 5
ENDMDL
MODEL 7
REMARK VINA RESULT:      -8.5      3.630     10.392
REMARK  Name = 
REMARK  6 active torsions:
REMARK  status: ('A' for Active; 'I' for Inactive)
REMARK    1  A    between atoms: C_1  and  C_2
REMARK    2  A    between atoms: C_5  and  N_6
REMARK    3  A    between atoms: C_7  and  C_9
REMARK    4  A    between atoms: C_12  and  N_13
REMARK    5  A    between atoms: N_13  and  S_14
REMARK    6  A    between atoms: S_14  and  C_17
REMARK                            x       y       z     vdW  Elec       q    Type
REMARK                         _______ _______ _______ _____ _____    ______ ____
ROOT
ATOM      1  C   UNL     1       2.064   7.512  19.559  0.00  0.00    +0.000 A 
ATOM      2  C   UNL     1       1.418   8.067  20.678  0.00  0.00    +0.000 A 
ATOM      3  C   UNL     1       0.886   9.369  20.626  0.00  0.00    +0.000 A 
ATOM      4  C   UNL     1       1.005  10.117  19.451  0.00  0.00    +0.000 A 
ATOM      5  C   UNL     1       1.644   9.565  18.342  0.00  0.00    +0.000 A 
ATOM      6  C   UNL     1       2.183   8.282  18.393  0.00  0.00    +0.000 A 
ENDROOT
BRANCH   1   8
ATOM      7  N   UNL     1       3.852   5.956  19.001  0.00  0.00    +0.000 N 
ATOM      8  C   UNL     1       2.649   6.142  19.634  0.00  0.00    +0.000 C 
ATOM      9  O   UNL     1       2.049   5.251  20.233  0.00  0.00    +0.000 OA
ATOM     10  H   UNL     1       4.273   6.736  18.489  0.00  0.00    +0.000 HD
BRANCH   7  15
ATOM     11  C   UNL     1       6.154   4.917  14.950  0.00  0.00    +0.000 C 
ATOM     12  C   UNL     1       5.901   4.398  16.365  0.00  0.00    +0.000 C 
ATOM     13  C   UNL     1       6.429   5.394  17.405  0.00  0.00    +0.000 C 
ATOM     14  C   UNL     1       6.115   4.947  18.833  0.00  0.00    +0.000 C 
ATOM     15  C   UNL     1       4.615   4.710  19.049  0.00  0.00    +0.000 C 
ATOM     16  C   UNL     1       4.092   3.702  18.018  0.00  0.00    +0.000 C 
ATOM     17  C   UNL     1       4.408   4.108  16.577  0.00  0.00    +0.000 C 
ENDBRANCH   7  15
ENDBRANCH   1   8
BRANCH   4  18
ATOM     18  N   UNL     1       0.515  11.438  19.345  0.00  0.00    +0.000 N 
ATOM     19  H   UNL     1       1.177  12.209  19.257  0.00  0.00    +0.000 HD
BRANCH  18  20
ATOM     20  S   UNL     1      -0.935  11.733  18.520  0.00  0.00    +0.000 S 
ATOM     21  O   UNL     1      -0.757  13.005  17.838  0.00  0.00    +0.000 OA
ATOM     22  O   UNL     1      -1.324  10.550  17.808  0.00  0.00    +0.000 OA
BRANCH  20  23
ATOM     23  C   UNL     1      -2.117  12.003  19.840  0.00  0.00    +0.000 A 
ATOM     24  C   UNL     1      -3.449  12.324  19.471  0.00  0.00    +0.000 A 
ATOM     25  C   UNL     1      -4.388  12.690  20.438  0.00  0.00    +0.000 A 
ATOM     26  C   UNL     1      -3.964  12.663  21.740  0.00  0.00    +0.000 A 
ATOM     27  N   UNL     1      -4.674  12.970  22.902  0.00  0.00    +0.000 N 
ATOM     28  C   UNL     1      -3.895  12.593  24.003  0.00  0.00    +0.000 A 
ATOM     29  O   UNL     1      -4.235  12.625  25.172  0.00  0.00    +0.000 OA
ATOM     30  N   UNL     1      -2.652  12.187  23.500  0.00  0.00    +0.000 N 
ATOM     31  C   UNL     1      -2.685  12.244  22.113  0.00  0.00    +0.000 A 
ATOM     32  C   UNL     1      -1.711  11.963  21.181  0.00  0.00    +0.000 A 
ATOM     33  H   UNL     1      -5.188  13.840  22.967  0.00  0.00    +0.000 HD
ATOM     34  H   UNL     1      -1.900  11.874  24.091  0.00  0.00    +0.000 HD
ENDBRANCH  20  23
ENDBRANCH  18  20
ENDBRANCH   4  18
TORSDOF 5
ENDMDL
MODEL 8
REMARK VINA RESULT:      -8.5      3.658     10.354
REMARK  Name = 
REMARK  6 active torsions:
REMARK  status: ('A' for Active; 'I' for Inactive)
REMARK    1  A    between atoms: C_1  and  C_2
REMARK    2  A    between atoms: C_5  and  N_6
REMARK    3  A    between atoms: C_7  and  C_9
REMARK    4  A    between atoms: C_12  and  N_13
REMARK    5  A    between atoms: N_13  and  S_14
REMARK    6  A    between atoms: S_14  and  C_17
REMARK                            x       y       z     vdW  Elec       q    Type
REMARK                         _______ _______ _______ _____ _____    ______ ____
ROOT
ATOM      1  C   UNL     1       2.285   7.562  19.272  0.00  0.00    +0.000 A 
ATOM      2  C   UNL     1       2.505   8.261  18.071  0.00  0.00    +0.000 A 
ATOM      3  C   UNL     1       1.903   9.514  17.852  0.00  0.00    +0.000 A 
ATOM      4  C   UNL     1       1.075  10.065  18.836  0.00  0.00    +0.000 A 
ATOM      5  C   UNL     1       0.859   9.371  20.025  0.00  0.00    +0.000 A 
ATOM      6  C   UNL     1       1.443   8.125  20.242  0.00  0.00    +0.000 A 
ENDROOT
BRANCH   1   8
ATOM      7  N   UNL     1       4.078   5.978  18.815  0.00  0.00    +0.000 N 
ATOM      8  C   UNL     1       2.905   6.222  19.483  0.00  0.00    +0.000 C 
ATOM      9  O   UNL     1       2.357   5.403  20.218  0.00  0.00    +0.000 OA
ATOM     10  H   UNL     1       4.454   6.696  18.189  0.00  0.00    +0.000 HD
BRANCH   7  15
ATOM     11  C   UNL     1       6.749   4.872  15.016  0.00  0.00    +0.000 C 
ATOM     12  C   UNL     1       6.391   4.396  16.423  0.00  0.00    +0.000 C 
ATOM     13  C   UNL     1       6.798   5.446  17.465  0.00  0.00    +0.000 C 
ATOM     14  C   UNL     1       6.376   5.039  18.877  0.00  0.00    +0.000 C 
ATOM     15  C   UNL     1       4.871   4.761  18.975  0.00  0.00    +0.000 C 
ATOM     16  C   UNL     1       4.468   3.700  17.943  0.00  0.00    +0.000 C 
ATOM     17  C   UNL     1       4.895   4.065  16.519  0.00  0.00    +0.000 C 
ENDBRANCH   7  15
ENDBRANCH   1   8
BRANCH   4  18
ATOM     18  N   UNL     1       0.422  11.306  18.663  0.00  0.00    +0.000 N 
ATOM     19  H   UNL     1      -0.476  11.333  18.181  0.00  0.00    +0.000 HD
BRANCH  18  20
ATOM     20  S   UNL     1       0.547  12.495  19.863  0.00  0.00    +0.000 S 
ATOM     21  O   UNL     1       1.517  11.994  20.825  0.00  0.00    +0.000 OA
ATOM     22  O   UNL     1       0.703  13.779  19.243  0.00  0.00    +0.000 OA
BRANCH  20  23
ATOM     23  C   UNL     1      -1.056  12.452  20.662  0.00  0.00    +0.000 A 
ATOM     24  C   UNL     1      -2.199  12.672  19.849  0.00  0.00    +0.000 A 
ATOM     25  C   UNL     1      -3.467  12.797  20.422  0.00  0.00    +0.000 A 
ATOM     26  C   UNL     1      -3.541  12.639  21.781  0.00  0.00    +0.000 A 
ATOM     27  N   UNL     1      -4.659  12.705  22.613  0.00  0.00    +0.000 N 
ATOM     28  C   UNL     1      -4.280  12.268  23.889  0.00  0.00    +0.000 A 
ATOM     29  O   UNL     1      -5.018  12.103  24.843  0.00  0.00    +0.000 OA
ATOM     30  N   UNL     1      -2.893  12.074  23.855  0.00  0.00    +0.000 N 
ATOM     31  C   UNL     1      -2.433  12.315  22.568  0.00  0.00    +0.000 A 
ATOM     32  C   UNL     1      -1.159  12.273  22.049  0.00  0.00    +0.000 A 
ATOM     33  H   UNL     1      -5.288  13.496  22.556  0.00  0.00    +0.000 HD
ATOM     34  H   UNL     1      -2.366  11.767  24.655  0.00  0.00    +0.000 HD
ENDBRANCH  20  23
ENDBRANCH  18  20
ENDBRANCH   4  18
TORSDOF 5
ENDMDL
MODEL 9
REMARK VINA RESULT:      -8.5      2.236      2.948
REMARK  Name = 
REMARK  6 active torsions:
REMARK  status: ('A' for Active; 'I' for Inactive)
REMARK    1  A    between atoms: C_1  and  C_2
REMARK    2  A    between atoms: C_5  and  N_6
REMARK    3  A    between atoms: C_7  and  C_9
REMARK    4  A    between atoms: C_12  and  N_13
REMARK    5  A    between atoms: N_13  and  S_14
REMARK    6  A    between atoms: S_14  and  C_17
REMARK                            x       y       z     vdW  Elec       q    Type
REMARK                         _______ _______ _______ _____ _____    ______ ____
ROOT
ATOM      1  C   UNL     1       1.979   7.323  18.611  0.00  0.00    +0.000 A 
ATOM      2  C   UNL     1       1.860   6.299  17.654  0.00  0.00    +0.000 A 
ATOM      3  C   UNL     1       2.026   4.952  18.022  0.00  0.00    +0.000 A 
ATOM      4  C   UNL     1       2.319   4.629  19.352  0.00  0.00    +0.000 A 
ATOM      5  C   UNL     1       2.436   5.645  20.299  0.00  0.00    +0.000 A 
ATOM      6  C   UNL     1       2.284   6.982  19.937  0.00  0.00    +0.000 A 
ENDROOT
BRANCH   1   8
ATOM      7  N   UNL     1       0.944   9.504  18.934  0.00  0.00    +0.000 N 
ATOM      8  C   UNL     1       1.829   8.751  18.205  0.00  0.00    +0.000 C 
ATOM      9  O   UNL     1       2.475   9.189  17.255  0.00  0.00    +0.000 OA
ATOM     10  H   UNL     1       0.412   9.059  19.687  0.00  0.00    +0.000 HD
BRANCH   7  15
ATOM     11  C   UNL     1      -1.352  11.656  22.524  0.00  0.00    +0.000 C 
ATOM     12  C   UNL     1      -0.714  11.925  21.162  0.00  0.00    +0.000 C 
ATOM     13  C   UNL     1       0.784  11.594  21.195  0.00  0.00    +0.000 C 
ATOM     14  C   UNL     1       1.435  11.770  19.823  0.00  0.00    +0.000 C 
ATOM     15  C   UNL     1       0.739  10.938  18.738  0.00  0.00    +0.000 C 
ATOM     16  C   UNL     1      -0.756  11.281  18.697  0.00  0.00    +0.000 C 
ATOM     17  C   UNL     1      -1.437  11.137  20.060  0.00  0.00    +0.000 C 
ENDBRANCH   7  15
ENDBRANCH   1   8
BRANCH   4  18
ATOM     18  N   UNL     1       2.523   3.298  19.778  0.00  0.00    +0.000 N 
ATOM     19  H   UNL     1       1.718   2.685  19.899  0.00  0.00    +0.000 HD
BRANCH  18  20
ATOM     20  S   UNL     1       3.906   2.459  19.276  0.00  0.00    +0.000 S 
ATOM     21  O   UNL     1       4.675   2.195  20.483  0.00  0.00    +0.000 OA
ATOM     22  O   UNL     1       3.521   1.400  18.388  0.00  0.00    +0.000 OA
BRANCH  20  23
ATOM     23  C   UNL     1       4.814   3.679  18.330  0.00  0.00    +0.000 A 
ATOM     24  C   UNL     1       4.794   3.561  16.916  0.00  0.00    +0.000 A 
ATOM     25  C   UNL     1       5.593   4.385  16.120  0.00  0.00    +0.000 A 
ATOM     26  C   UNL     1       6.336   5.331  16.775  0.00  0.00    +0.000 A 
ATOM     27  N   UNL     1       7.209   6.283  16.247  0.00  0.00    +0.000 N 
ATOM     28  C   UNL     1       7.570   7.163  17.274  0.00  0.00    +0.000 A 
ATOM     29  O   UNL     1       8.243   8.171  17.157  0.00  0.00    +0.000 OA
ATOM     30  N   UNL     1       7.019   6.653  18.458  0.00  0.00    +0.000 N 
ATOM     31  C   UNL     1       6.274   5.520  18.158  0.00  0.00    +0.000 A 
ATOM     32  C   UNL     1       5.568   4.669  18.978  0.00  0.00    +0.000 A 
ATOM     33  H   UNL     1       7.932   6.002  15.596  0.00  0.00    +0.000 HD
ATOM     34  H   UNL     1       7.140   7.097  19.352  0.00  0.00    +0.000 HD
ENDBRANCH  20  23
ENDBRANCH  18  20
ENDBRANCH   4  18
TORSDOF 5
ENDMDL
