MODEL 1
REMARK VINA RESULT:      -8.0      0.000      0.000
REMARK  Name = 
REMARK  4 active torsions:
REMARK  status: ('A' for Active; 'I' for Inactive)
REMARK    1  A    between atoms: C_2  and  C_19
REMARK    2  A    between atoms: N_3  and  C_4
REMARK    3  A    between atoms: C_7  and  C_8
REMARK    4  A    between atoms: C_24  and  C_25
REMARK                            x       y       z     vdW  Elec       q    Type
REMARK                         _______ _______ _______ _____ _____    ______ ____
ROOT
ATOM      1  C   UNL     1       0.799   9.462  20.099  0.00  0.00    +0.000 A 
ATOM      2  C   UNL     1       1.333   8.308  20.672  0.00  0.00    +0.000 A 
ATOM      3  C   UNL     1       2.144   7.445  19.921  0.00  0.00    +0.000 A 
ATOM      4  C   UNL     1       2.450   7.722  18.581  0.00  0.00    +0.000 A 
ATOM      5  C   UNL     1       1.901   8.870  18.002  0.00  0.00    +0.000 A 
ATOM      6  C   UNL     1       1.069   9.721  18.748  0.00  0.00    +0.000 A 
ENDROOT
BRANCH   4   7
ATOM      7  C   UNL     1       3.338   6.865  17.813  0.00  0.00    +0.000 A 
ATOM      8  C   UNL     1       3.316   5.488  17.801  0.00  0.00    +0.000 A 
ATOM      9  N   UNL     1       4.343   5.117  16.977  0.00  0.00    +0.000 N 
ATOM     10  C   UNL     1       4.775   3.848  16.615  0.00  0.00    +0.000 A 
ATOM     11  C   UNL     1       5.824   3.725  15.797  0.00  0.00    +0.000 A 
ATOM     12  C   UNL     1       6.433   5.015  15.358  0.00  0.00    +0.000 A 
ATOM     13  N   UNL     1       6.038   6.208  15.678  0.00  0.00    +0.000 NA
ATOM     14  C   UNL     1       4.955   6.279  16.510  0.00  0.00    +0.000 A 
ATOM     15  N   UNL     1       4.335   7.339  16.991  0.00  0.00    +0.000 NA
ENDBRANCH   4   7
BRANCH   1  18
ATOM     16  O   UNL     1       1.587  12.022  21.396  0.00  0.00    +0.000 OA
ATOM     17  C   UNL     1       0.437  11.594  21.382  0.00  0.00    +0.000 C 
ATOM     18  N   UNL     1       0.011  10.405  20.805  0.00  0.00    +0.000 N 
ATOM     19  H   UNL     1      -0.982  10.218  20.816  0.00  0.00    +0.000 HD
BRANCH  17  20
ATOM     20  C   UNL     1      -0.725  12.447  21.928  0.00  0.00    +0.000 C 
ATOM     21  C   UNL     1      -1.558  11.536  22.849  0.00  0.00    +0.000 C 
ATOM     22  C   UNL     1      -2.853  12.184  23.319  0.00  0.00    +0.000 C 
ATOM     23  C   UNL     1      -3.698  12.620  22.133  0.00  0.00    +0.000 C 
ATOM     24  C   UNL     1      -2.929  13.606  21.270  0.00  0.00    +0.000 C 
ATOM     25  C   UNL     1      -1.576  13.055  20.778  0.00  0.00    +0.000 C 
BRANCH  25  26
ATOM     26  C   UNL     1      -0.818  14.153  20.016  0.00  0.00    +0.000 C 
ATOM     27  F   UNL     1       0.230  14.638  20.720  0.00  0.00    +0.000 F 
ATOM     28  F   UNL     1      -0.350  13.698  18.837  0.00  0.00    +0.000 F 
ATOM     29  F   UNL     1      -1.617  15.211  19.737  0.00  0.00    +0.000 F 
ENDBRANCH  25  26
ENDBRANCH  17  20
ENDBRANCH   1  18
TORSDOF 4
ENDMDL
MODEL 2
REMARK VINA RESULT:      -8.0      4.352     10.040
REMARK  Name = 
REMARK  4 active torsions:
REMARK  status: ('A' for Active; 'I' for Inactive)
REMARK    1  A    between atoms: C_2  and  C_19
REMARK    2  A    between atoms: N_3  and  C_4
REMARK    3  A    between atoms: C_7  and  C_8
REMARK    4  A    between atoms: C_24  and  C_25
REMARK                            x       y       z     vdW  Elec       q    Type
REMARK                         _______ _______ _______ _____ _____    ______ ____
ROOT
ATOM      1  C   UNL     1       1.894   7.913  20.100  0.00  0.00    +0.000 A 
ATOM      2  C   UNL     1       1.451   8.867  19.184  0.00  0.00    +0.000 A 
ATOM      3  C   UNL     1       0.640   9.935  19.596  0.00  0.00    +0.000 A 
ATOM      4  C   UNL     1       0.262  10.080  20.938  0.00  0.00    +0.000 A 
ATOM      5  C   UNL     1       0.692   9.114  21.854  0.00  0.00    +0.000 A 
ATOM      6  C   UNL     1       1.483   8.032  21.435  0.00  0.00    +0.000 A 
ENDROOT
BRANCH   4   7
ATOM      7  C   UNL     1      -0.528  11.215  21.386  0.00  0.00    +0.000 A 
ATOM      8  C   UNL     1      -1.486  11.870  20.645  0.00  0.00    +0.000 A 
ATOM      9  N   UNL     1      -1.933  12.884  21.447  0.00  0.00    +0.000 N 
ATOM     10  C   UNL     1      -2.893  13.855  21.197  0.00  0.00    +0.000 A 
ATOM     11  C   UNL     1      -3.159  14.767  22.137  0.00  0.00    +0.000 A 
ATOM     12  C   UNL     1      -2.357  14.632  23.388  0.00  0.00    +0.000 A 
ATOM     13  N   UNL     1      -1.464  13.727  23.643  0.00  0.00    +0.000 NA
ATOM     14  C   UNL     1      -1.236  12.812  22.652  0.00  0.00    +0.000 A 
ATOM     15  N   UNL     1      -0.404  11.789  22.631  0.00  0.00    +0.000 NA
ENDBRANCH   4   7
BRANCH   1  18
ATOM     16  O   UNL     1       1.649   5.014  20.724  0.00  0.00    +0.000 OA
ATOM     17  C   UNL     1       2.577   5.494  20.081  0.00  0.00    +0.000 C 
ATOM     18  N   UNL     1       2.751   6.836  19.768  0.00  0.00    +0.000 N 
ATOM     19  H   UNL     1       3.533   7.071  19.171  0.00  0.00    +0.000 HD
BRANCH  17  20
ATOM     20  C   UNL     1       3.627   4.581  19.418  0.00  0.00    +0.000 C 
ATOM     21  C   UNL     1       4.916   5.411  19.271  0.00  0.00    +0.000 C 
ATOM     22  C   UNL     1       5.993   4.704  18.460  0.00  0.00    +0.000 C 
ATOM     23  C   UNL     1       5.471   4.327  17.084  0.00  0.00    +0.000 C 
ATOM     24  C   UNL     1       4.260   3.417  17.210  0.00  0.00    +0.000 C 
ATOM     25  C   UNL     1       3.126   4.029  18.054  0.00  0.00    +0.000 C 
BRANCH  25  26
ATOM     26  C   UNL     1       1.998   3.001  18.226  0.00  0.00    +0.000 C 
ATOM     27  F   UNL     1       2.013   2.419  19.448  0.00  0.00    +0.000 F 
ATOM     28  F   UNL     1       0.787   3.567  18.052  0.00  0.00    +0.000 F 
ATOM     29  F   UNL     1       2.093   1.998  17.321  0.00  0.00    +0.000 F 
ENDBRANCH  25  26
ENDBRANCH  17  20
ENDBRANCH   1  18
TORSDOF 4
ENDMDL
MODEL 3
REMARK VINA RESULT:      -7.9      4.118     10.121
REMARK  Name = 
REMARK  4 active torsions:
REMARK  status: ('A' for Active; 'I' for Inactive)
REMARK    1  A    between atoms: C_2  and  C_19
REMARK    2  A    between atoms: N_3  and  C_4
REMARK    3  A    between atoms: C_7  and  C_8
REMARK    4  A    between atoms: C_24  and  C_25
REMARK                            x       y       z     vdW  Elec       q    Type
REMARK                         _______ _______ _______ _____ _____    ______ ____
ROOT
ATOM      1  C   UNL     1       1.177   8.723  21.019  0.00  0.00    +0.000 A 
ATOM      2  C   UNL     1       1.104   9.956  20.371  0.00  0.00    +0.000 A 
ATOM      3  C   UNL     1       0.370  11.015  20.927  0.00  0.00    +0.000 A 
ATOM      4  C   UNL     1      -0.299  10.868  22.150  0.00  0.00    +0.000 A 
ATOM      5  C   UNL     1      -0.240   9.627  22.790  0.00  0.00    +0.000 A 
ATOM      6  C   UNL     1       0.475   8.560  22.221  0.00  0.00    +0.000 A 
ENDROOT
BRANCH   4   7
ATOM      7  C   UNL     1      -1.012  11.977  22.762  0.00  0.00    +0.000 A 
ATOM      8  C   UNL     1      -2.348  11.989  23.093  0.00  0.00    +0.000 A 
ATOM      9  N   UNL     1      -2.584  13.238  23.600  0.00  0.00    +0.000 N 
ATOM     10  C   UNL     1      -3.763  13.792  24.080  0.00  0.00    +0.000 A 
ATOM     11  C   UNL     1      -3.759  15.054  24.518  0.00  0.00    +0.000 A 
ATOM     12  C   UNL     1      -2.441  15.746  24.429  0.00  0.00    +0.000 A 
ATOM     13  N   UNL     1      -1.328  15.243  23.993  0.00  0.00    +0.000 NA
ATOM     14  C   UNL     1      -1.383  13.945  23.565  0.00  0.00    +0.000 A 
ATOM     15  N   UNL     1      -0.423  13.180  23.084  0.00  0.00    +0.000 NA
ENDBRANCH   4   7
BRANCH   1  18
ATOM     16  O   UNL     1       1.788   7.882  18.231  0.00  0.00    +0.000 OA
ATOM     17  C   UNL     1       2.195   7.287  19.224  0.00  0.00    +0.000 C 
ATOM     18  N   UNL     1       1.935   7.624  20.546  0.00  0.00    +0.000 N 
ATOM     19  H   UNL     1       2.397   7.076  21.259  0.00  0.00    +0.000 HD
BRANCH  17  20
ATOM     20  C   UNL     1       3.191   6.119  19.085  0.00  0.00    +0.000 C 
ATOM     21  C   UNL     1       4.058   6.411  17.846  0.00  0.00    +0.000 C 
ATOM     22  C   UNL     1       4.968   5.251  17.467  0.00  0.00    +0.000 C 
ATOM     23  C   UNL     1       4.161   3.985  17.236  0.00  0.00    +0.000 C 
ATOM     24  C   UNL     1       3.381   3.621  18.489  0.00  0.00    +0.000 C 
ATOM     25  C   UNL     1       2.457   4.753  18.979  0.00  0.00    +0.000 C 
BRANCH  25  26
ATOM     26  C   UNL     1       1.801   4.344  20.306  0.00  0.00    +0.000 C 
ATOM     27  F   UNL     1       1.684   3.002  20.432  0.00  0.00    +0.000 F 
ATOM     28  F   UNL     1       2.505   4.799  21.362  0.00  0.00    +0.000 F 
ATOM     29  F   UNL     1       0.551   4.852  20.423  0.00  0.00    +0.000 F 
ENDBRANCH  25  26
ENDBRANCH  17  20
ENDBRANCH   1  18
TORSDOF 4
ENDMDL
MODEL 4
REMARK VINA RESULT:      -7.9      4.337     10.025
REMARK  Name = 
REMARK  4 active torsions:
REMARK  status: ('A' for Active; 'I' for Inactive)
REMARK    1  A    between atoms: C_2  and  C_19
REMARK    2  A    between atoms: N_3  and  C_4
REMARK    3  A    between atoms: C_7  and  C_8
REMARK    4  A    between atoms: C_24  and  C_25
REMARK                            x       y       z     vdW  Elec       q    Type
REMARK                         _______ _______ _______ _____ _____    ______ ____
ROOT
ATOM      1  C   UNL     1       1.847   7.855  19.941  0.00  0.00    +0.000 A 
ATOM      2  C   UNL     1       1.463   8.842  19.034  0.00  0.00    +0.000 A 
ATOM      3  C   UNL     1       0.603   9.879  19.424  0.00  0.00    +0.000 A 
ATOM      4  C   UNL     1       0.116   9.959  20.736  0.00  0.00    +0.000 A 
ATOM      5  C   UNL     1       0.487   8.960  21.641  0.00  0.00    +0.000 A 
ATOM      6  C   UNL     1       1.329   7.909  21.242  0.00  0.00    +0.000 A 
ENDROOT
BRANCH   4   7
ATOM      7  C   UNL     1      -0.728  11.063  21.166  0.00  0.00    +0.000 A 
ATOM      8  C   UNL     1      -0.859  11.518  22.458  0.00  0.00    +0.000 A 
ATOM      9  N   UNL     1      -1.776  12.532  22.393  0.00  0.00    +0.000 N 
ATOM     10  C   UNL     1      -2.285  13.334  23.405  0.00  0.00    +0.000 A 
ATOM     11  C   UNL     1      -3.195  14.264  23.105  0.00  0.00    +0.000 A 
ATOM     12  C   UNL     1      -3.577  14.328  21.663  0.00  0.00    +0.000 A 
ATOM     13  N   UNL     1      -3.106  13.594  20.703  0.00  0.00    +0.000 NA
ATOM     14  C   UNL     1      -2.170  12.664  21.062  0.00  0.00    +0.000 A 
ATOM     15  N   UNL     1      -1.520  11.796  20.311  0.00  0.00    +0.000 NA
ENDBRANCH   4   7
BRANCH   1  18
ATOM     16  O   UNL     1       1.787   4.990  20.744  0.00  0.00    +0.000 OA
ATOM     17  C   UNL     1       2.659   5.477  20.032  0.00  0.00    +0.000 C 
ATOM     18  N   UNL     1       2.747   6.805  19.634  0.00  0.00    +0.000 N 
ATOM     19  H   UNL     1       3.489   7.044  18.990  0.00  0.00    +0.000 HD
BRANCH  17  20
ATOM     20  C   UNL     1       3.729   4.582  19.378  0.00  0.00    +0.000 C 
ATOM     21  C   UNL     1       5.007   5.431  19.243  0.00  0.00    +0.000 C 
ATOM     22  C   UNL     1       6.102   4.742  18.441  0.00  0.00    +0.000 C 
ATOM     23  C   UNL     1       5.597   4.360  17.059  0.00  0.00    +0.000 C 
ATOM     24  C   UNL     1       4.399   3.431  17.173  0.00  0.00    +0.000 C 
ATOM     25  C   UNL     1       3.249   4.025  18.008  0.00  0.00    +0.000 C 
BRANCH  25  26
ATOM     26  C   UNL     1       2.134   2.980  18.168  0.00  0.00    +0.000 C 
ATOM     27  F   UNL     1       0.899   3.525  18.076  0.00  0.00    +0.000 F 
ATOM     28  F   UNL     1       2.231   2.013  17.233  0.00  0.00    +0.000 F 
ATOM     29  F   UNL     1       2.194   2.365  19.373  0.00  0.00    +0.000 F 
ENDBRANCH  25  26
ENDBRANCH  17  20
ENDBRANCH   1  18
TORSDOF 4
ENDMDL
MODEL 5
REMARK VINA RESULT:      -7.8      4.341      9.950
REMARK  Name = 
REMARK  4 active torsions:
REMARK  status: ('A' for Active; 'I' for Inactive)
REMARK    1  A    between atoms: C_2  and  C_19
REMARK    2  A    between atoms: N_3  and  C_4
REMARK    3  A    between atoms: C_7  and  C_8
REMARK    4  A    between atoms: C_24  and  C_25
REMARK                            x       y       z     vdW  Elec       q    Type
REMARK                         _______ _______ _______ _____ _____    ______ ____
ROOT
ATOM      1  C   UNL     1       1.934   7.810  20.155  0.00  0.00    +0.000 A 
ATOM      2  C   UNL     1       1.405   7.956  21.437  0.00  0.00    +0.000 A 
ATOM      3  C   UNL     1       0.515   9.000  21.731  0.00  0.00    +0.000 A 
ATOM      4  C   UNL     1       0.124   9.916  20.745  0.00  0.00    +0.000 A 
ATOM      5  C   UNL     1       0.668   9.780  19.464  0.00  0.00    +0.000 A 
ATOM      6  C   UNL     1       1.578   8.749  19.178  0.00  0.00    +0.000 A 
ENDROOT
BRANCH   4   7
ATOM      7  C   UNL     1      -0.843  10.965  21.025  0.00  0.00    +0.000 A 
ATOM      8  C   UNL     1      -1.139  11.474  22.269  0.00  0.00    +0.000 A 
ATOM      9  N   UNL     1      -2.122  12.402  22.055  0.00  0.00    +0.000 N 
ATOM     10  C   UNL     1      -2.792  13.210  22.964  0.00  0.00    +0.000 A 
ATOM     11  C   UNL     1      -3.738  14.043  22.522  0.00  0.00    +0.000 A 
ATOM     12  C   UNL     1      -3.978  13.998  21.050  0.00  0.00    +0.000 A 
ATOM     13  N   UNL     1      -3.356  13.258  20.185  0.00  0.00    +0.000 NA
ATOM     14  C   UNL     1      -2.390  12.430  20.687  0.00  0.00    +0.000 A 
ATOM     15  N   UNL     1      -1.602  11.583  20.056  0.00  0.00    +0.000 NA
ENDBRANCH   4   7
BRANCH   1  18
ATOM     16  O   UNL     1       1.826   4.911  20.816  0.00  0.00    +0.000 OA
ATOM     17  C   UNL     1       2.690   5.413  20.105  0.00  0.00    +0.000 C 
ATOM     18  N   UNL     1       2.800   6.757  19.771  0.00  0.00    +0.000 N 
ATOM     19  H   UNL     1       3.529   7.011  19.118  0.00  0.00    +0.000 HD
BRANCH  17  20
ATOM     20  C   UNL     1       3.719   4.527  19.376  0.00  0.00    +0.000 C 
ATOM     21  C   UNL     1       4.999   5.368  19.208  0.00  0.00    +0.000 C 
ATOM     22  C   UNL     1       6.049   4.693  18.337  0.00  0.00    +0.000 C 
ATOM     23  C   UNL     1       5.478   4.357  16.969  0.00  0.00    +0.000 C 
ATOM     24  C   UNL     1       4.276   3.437  17.110  0.00  0.00    +0.000 C 
ATOM     25  C   UNL     1       3.171   4.017  18.014  0.00  0.00    +0.000 C 
BRANCH  25  26
ATOM     26  C   UNL     1       2.054   2.977  18.194  0.00  0.00    +0.000 C 
ATOM     27  F   UNL     1       2.115   2.358  19.395  0.00  0.00    +0.000 F 
ATOM     28  F   UNL     1       0.835   3.542  18.081  0.00  0.00    +0.000 F 
ATOM     29  F   UNL     1       2.121   2.003  17.255  0.00  0.00    +0.000 F 
ENDBRANCH  25  26
ENDBRANCH  17  20
ENDBRANCH   1  18
TORSDOF 4
ENDMDL
MODEL 6
REMARK VINA RESULT:      -7.8      2.614      3.456
REMARK  Name = 
REMARK  4 active torsions:
REMARK  status: ('A' for Active; 'I' for Inactive)
REMARK    1  A    between atoms: C_2  and  C_19
REMARK    2  A    between atoms: N_3  and  C_4
REMARK    3  A    between atoms: C_7  and  C_8
REMARK    4  A    between atoms: C_24  and  C_25
REMARK                            x       y       z     vdW  Elec       q    Type
REMARK                         _______ _______ _______ _____ _____    ______ ____
ROOT
ATOM      1  C   UNL     1       1.282   9.834  19.273  0.00  0.00    +0.000 A 
ATOM      2  C   UNL     1       1.776   9.344  18.064  0.00  0.00    +0.000 A 
ATOM      3  C   UNL     1       2.260   8.031  17.967  0.00  0.00    +0.000 A 
ATOM      4  C   UNL     1       2.251   7.172  19.074  0.00  0.00    +0.000 A 
ATOM      5  C   UNL     1       1.772   7.668  20.291  0.00  0.00    +0.000 A 
ATOM      6  C   UNL     1       1.310   8.991  20.393  0.00  0.00    +0.000 A 
ENDROOT
BRANCH   4   7
ATOM      7  C   UNL     1       2.695   5.792  18.968  0.00  0.00    +0.000 A 
ATOM      8  C   UNL     1       2.172   4.843  18.119  0.00  0.00    +0.000 A 
ATOM      9  N   UNL     1       2.867   3.694  18.390  0.00  0.00    +0.000 N 
ATOM     10  C   UNL     1       2.743   2.431  17.829  0.00  0.00    +0.000 A 
ATOM     11  C   UNL     1       3.528   1.443  18.268  0.00  0.00    +0.000 A 
ATOM     12  C   UNL     1       4.476   1.829  19.353  0.00  0.00    +0.000 A 
ATOM     13  N   UNL     1       4.612   3.005  19.882  0.00  0.00    +0.000 NA
ATOM     14  C   UNL     1       3.791   3.983  19.392  0.00  0.00    +0.000 A 
ATOM     15  N   UNL     1       3.711   5.256  19.727  0.00  0.00    +0.000 NA
ENDBRANCH   4   7
BRANCH   1  18
ATOM     16  O   UNL     1      -1.543  10.751  19.096  0.00  0.00    +0.000 OA
ATOM     17  C   UNL     1      -0.602  11.495  19.353  0.00  0.00    +0.000 C 
ATOM     18  N   UNL     1       0.735  11.129  19.438  0.00  0.00    +0.000 N 
ATOM     19  H   UNL     1       1.390  11.844  19.726  0.00  0.00    +0.000 HD
BRANCH  17  20
ATOM     20  C   UNL     1      -0.849  12.964  19.750  0.00  0.00    +0.000 C 
ATOM     21  C   UNL     1      -0.250  13.839  18.633  0.00  0.00    +0.000 C 
ATOM     22  C   UNL     1      -0.249  15.323  18.971  0.00  0.00    +0.000 C 
ATOM     23  C   UNL     1       0.495  15.579  20.272  0.00  0.00    +0.000 C 
ATOM     24  C   UNL     1      -0.152  14.806  21.410  0.00  0.00    +0.000 C 
ATOM     25  C   UNL     1      -0.239  13.291  21.142  0.00  0.00    +0.000 C 
BRANCH  25  26
ATOM     26  C   UNL     1      -1.006  12.608  22.284  0.00  0.00    +0.000 C 
ATOM     27  F   UNL     1      -0.989  13.337  23.424  0.00  0.00    +0.000 F 
ATOM     28  F   UNL     1      -2.294  12.392  21.950  0.00  0.00    +0.000 F 
ATOM     29  F   UNL     1      -0.475  11.401  22.592  0.00  0.00    +0.000 F 
ENDBRANCH  25  26
ENDBRANCH  17  20
ENDBRANCH   1  18
TORSDOF 4
ENDMDL
MODEL 7
REMARK VINA RESULT:      -7.8      4.023     10.014
REMARK  Name = 
REMARK  4 active torsions:
REMARK  status: ('A' for Active; 'I' for Inactive)
REMARK    1  A    between atoms: C_2  and  C_19
REMARK    2  A    between atoms: N_3  and  C_4
REMARK    3  A    between atoms: C_7  and  C_8
REMARK    4  A    between atoms: C_24  and  C_25
REMARK                            x       y       z     vdW  Elec       q    Type
REMARK                         _______ _______ _______ _____ _____    ______ ____
ROOT
ATOM      1  C   UNL     1       1.596   8.236  20.031  0.00  0.00    +0.000 A 
ATOM      2  C   UNL     1       1.225   9.294  19.201  0.00  0.00    +0.000 A 
ATOM      3  C   UNL     1       0.483  10.374  19.703  0.00  0.00    +0.000 A 
ATOM      4  C   UNL     1       0.104  10.426  21.052  0.00  0.00    +0.000 A 
ATOM      5  C   UNL     1       0.461   9.357  21.880  0.00  0.00    +0.000 A 
ATOM      6  C   UNL     1       1.183   8.265  21.370  0.00  0.00    +0.000 A 
ENDROOT
BRANCH   4   7
ATOM      7  C   UNL     1      -0.613  11.568  21.595  0.00  0.00    +0.000 A 
ATOM      8  C   UNL     1      -1.703  12.181  21.019  0.00  0.00    +0.000 A 
ATOM      9  N   UNL     1      -2.016  13.220  21.852  0.00  0.00    +0.000 N 
ATOM     10  C   UNL     1      -3.024  14.168  21.747  0.00  0.00    +0.000 A 
ATOM     11  C   UNL     1      -3.132  15.112  22.686  0.00  0.00    +0.000 A 
ATOM     12  C   UNL     1      -2.113  15.037  23.773  0.00  0.00    +0.000 A 
ATOM     13  N   UNL     1      -1.170  14.154  23.893  0.00  0.00    +0.000 NA
ATOM     14  C   UNL     1      -1.109  13.203  22.910  0.00  0.00    +0.000 A 
ATOM     15  N   UNL     1      -0.275  12.191  22.775  0.00  0.00    +0.000 NA
ENDBRANCH   4   7
BRANCH   1  18
ATOM     16  O   UNL     1       3.008   7.776  17.452  0.00  0.00    +0.000 OA
ATOM     17  C   UNL     1       3.029   6.984  18.389  0.00  0.00    +0.000 C 
ATOM     18  N   UNL     1       2.383   7.137  19.608  0.00  0.00    +0.000 N 
ATOM     19  H   UNL     1       2.549   6.428  20.310  0.00  0.00    +0.000 HD
BRANCH  17  20
ATOM     20  C   UNL     1       3.928   5.733  18.338  0.00  0.00    +0.000 C 
ATOM     21  C   UNL     1       5.348   6.213  17.983  0.00  0.00    +0.000 C 
ATOM     22  C   UNL     1       6.316   5.070  17.711  0.00  0.00    +0.000 C 
ATOM     23  C   UNL     1       5.790   4.172  16.603  0.00  0.00    +0.000 C 
ATOM     24  C   UNL     1       4.434   3.601  16.985  0.00  0.00    +0.000 C 
ATOM     25  C   UNL     1       3.393   4.685  17.323  0.00  0.00    +0.000 C 
BRANCH  25  26
ATOM     26  C   UNL     1       2.095   4.021  17.808  0.00  0.00    +0.000 C 
ATOM     27  F   UNL     1       1.985   4.030  19.156  0.00  0.00    +0.000 F 
ATOM     28  F   UNL     1       1.009   4.637  17.300  0.00  0.00    +0.000 F 
ATOM     29  F   UNL     1       2.024   2.724  17.425  0.00  0.00    +0.000 F 
ENDBRANCH  25  26
ENDBRANCH  17  20
ENDBRANCH   1  18
TORSDOF 4
ENDMDL
MODEL 8
REMARK VINA RESULT:      -7.8      4.308     10.119
REMARK  Name = 
REMARK  4 active torsions:
REMARK  status: ('A' for Active; 'I' for Inactive)
REMARK    1  A    between atoms: C_2  and  C_19
REMARK    2  A    between atoms: N_3  and  C_4
REMARK    3  A    between atoms: C_7  and  C_8
REMARK    4  A    between atoms: C_24  and  C_25
REMARK                            x       y       z     vdW  Elec       q    Type
REMARK                         _______ _______ _______ _____ _____    ______ ____
ROOT
ATOM      1  C   UNL     1       2.884   7.395  18.377  0.00  0.00    +0.000 A 
ATOM      2  C   UNL     1       2.424   8.551  17.746  0.00  0.00    +0.000 A 
ATOM      3  C   UNL     1       1.522   9.410  18.393  0.00  0.00    +0.000 A 
ATOM      4  C   UNL     1       1.067   9.137  19.690  0.00  0.00    +0.000 A 
ATOM      5  C   UNL     1       1.513   7.969  20.315  0.00  0.00    +0.000 A 
ATOM      6  C   UNL     1       2.398   7.098  19.658  0.00  0.00    +0.000 A 
ENDROOT
BRANCH   4   7
ATOM      7  C   UNL     1       0.178  10.050  20.390  0.00  0.00    +0.000 A 
ATOM      8  C   UNL     1      -0.734  10.895  19.799  0.00  0.00    +0.000 A 
ATOM      9  N   UNL     1      -1.311  11.584  20.832  0.00  0.00    +0.000 N 
ATOM     10  C   UNL     1      -2.290  12.567  20.804  0.00  0.00    +0.000 A 
ATOM     11  C   UNL     1      -2.695  13.117  21.952  0.00  0.00    +0.000 A 
ATOM     12  C   UNL     1      -2.015  12.594  23.173  0.00  0.00    +0.000 A 
ATOM     13  N   UNL     1      -1.106  11.670  23.219  0.00  0.00    +0.000 NA
ATOM     14  C   UNL     1      -0.734  11.133  22.017  0.00  0.00    +0.000 A 
ATOM     15  N   UNL     1       0.148  10.188  21.759  0.00  0.00    +0.000 NA
ENDBRANCH   4   7
BRANCH   1  18
ATOM     16  O   UNL     1       5.097   5.880  19.666  0.00  0.00    +0.000 OA
ATOM     17  C   UNL     1       4.838   5.817  18.468  0.00  0.00    +0.000 C 
ATOM     18  N   UNL     1       3.829   6.506  17.809  0.00  0.00    +0.000 N 
ATOM     19  H   UNL     1       3.695   6.300  16.828  0.00  0.00    +0.000 HD
BRANCH  17  20
ATOM     20  C   UNL     1       5.574   4.814  17.558  0.00  0.00    +0.000 C 
ATOM     21  C   UNL     1       6.425   5.639  16.574  0.00  0.00    +0.000 C 
ATOM     22  C   UNL     1       7.069   4.793  15.485  0.00  0.00    +0.000 C 
ATOM     23  C   UNL     1       6.016   4.012  14.716  0.00  0.00    +0.000 C 
ATOM     24  C   UNL     1       5.237   3.108  15.658  0.00  0.00    +0.000 C 
ATOM     25  C   UNL     1       4.580   3.871  16.825  0.00  0.00    +0.000 C 
BRANCH  25  26
ATOM     26  C   UNL     1       3.917   2.872  17.785  0.00  0.00    +0.000 C 
ATOM     27  F   UNL     1       3.849   1.624  17.265  0.00  0.00    +0.000 F 
ATOM     28  F   UNL     1       4.584   2.797  18.954  0.00  0.00    +0.000 F 
ATOM     29  F   UNL     1       2.646   3.233  18.084  0.00  0.00    +0.000 F 
ENDBRANCH  25  26
ENDBRANCH  17  20
ENDBRANCH   1  18
TORSDOF 4
ENDMDL
MODEL 9
REMARK VINA RESULT:      -7.8      4.321      9.967
REMARK  Name = 
REMARK  4 active torsions:
REMARK  status: ('A' for Active; 'I' for Inactive)
REMARK    1  A    between atoms: C_2  and  C_19
REMARK    2  A    between atoms: N_3  and  C_4
REMARK    3  A    between atoms: C_7  and  C_8
REMARK    4  A    between atoms: C_24  and  C_25
REMARK                            x       y       z     vdW  Elec       q    Type
REMARK                         _______ _______ _______ _____ _____    ______ ____
ROOT
ATOM      1  C   UNL     1       1.987   7.733  20.074  0.00  0.00    +0.000 A 
ATOM      2  C   UNL     1       1.419   7.813  21.345  0.00  0.00    +0.000 A 
ATOM      3  C   UNL     1       0.523   8.844  21.666  0.00  0.00    +0.000 A 
ATOM      4  C   UNL     1       0.166   9.813  20.719  0.00  0.00    +0.000 A 
ATOM      5  C   UNL     1       0.749   9.743  19.450  0.00  0.00    +0.000 A 
ATOM      6  C   UNL     1       1.664   8.724  19.137  0.00  0.00    +0.000 A 
ENDROOT
BRANCH   4   7
ATOM      7  C   UNL     1      -0.806  10.851  21.024  0.00  0.00    +0.000 A 
ATOM      8  C   UNL     1      -1.511  11.588  20.100  0.00  0.00    +0.000 A 
ATOM      9  N   UNL     1      -2.268  12.460  20.835  0.00  0.00    +0.000 N 
ATOM     10  C   UNL     1      -3.159  13.436  20.411  0.00  0.00    +0.000 A 
ATOM     11  C   UNL     1      -3.783  14.190  21.321  0.00  0.00    +0.000 A 
ATOM     12  C   UNL     1      -3.429  13.885  22.738  0.00  0.00    +0.000 A 
ATOM     13  N   UNL     1      -2.607  12.972  23.153  0.00  0.00    +0.000 NA
ATOM     14  C   UNL     1      -2.002  12.222  22.182  0.00  0.00    +0.000 A 
ATOM     15  N   UNL     1      -1.139  11.233  22.304  0.00  0.00    +0.000 NA
ENDBRANCH   4   7
BRANCH   1  18
ATOM     16  O   UNL     1       2.156   4.902  20.977  0.00  0.00    +0.000 OA
ATOM     17  C   UNL     1       2.884   5.385  20.115  0.00  0.00    +0.000 C 
ATOM     18  N   UNL     1       2.860   6.697  19.661  0.00  0.00    +0.000 N 
ATOM     19  H   UNL     1       3.479   6.931  18.896  0.00  0.00    +0.000 HD
BRANCH  17  20
ATOM     20  C   UNL     1       3.863   4.493  19.326  0.00  0.00    +0.000 C 
ATOM     21  C   UNL     1       5.159   5.304  19.140  0.00  0.00    +0.000 C 
ATOM     22  C   UNL     1       6.160   4.627  18.214  0.00  0.00    +0.000 C 
ATOM     23  C   UNL     1       5.535   4.349  16.857  0.00  0.00    +0.000 C 
ATOM     24  C   UNL     1       4.313   3.458  17.011  0.00  0.00    +0.000 C 
ATOM     25  C   UNL     1       3.256   4.039  17.969  0.00  0.00    +0.000 C 
BRANCH  25  26
ATOM     26  C   UNL     1       2.116   3.026  18.155  0.00  0.00    +0.000 C 
ATOM     27  F   UNL     1       2.180   2.393  19.349  0.00  0.00    +0.000 F 
ATOM     28  F   UNL     1       0.910   3.622  18.068  0.00  0.00    +0.000 F 
ATOM     29  F   UNL     1       2.144   2.061  17.206  0.00  0.00    +0.000 F 
ENDBRANCH  25  26
ENDBRANCH  17  20
ENDBRANCH   1  18
TORSDOF 4
ENDMDL
