MODEL 1
REMARK VINA RESULT:      -8.9      0.000      0.000
REMARK  Name = 
REMARK  4 active torsions:
REMARK  status: ('A' for Active; 'I' for Inactive)
REMARK    1  A    between atoms: C_2  and  C_3
REMARK    2  A    between atoms: C_3  and  C_4
REMARK    3  A    between atoms: C_4  and  N_5
REMARK    4  A    between atoms: C_18  and  C_19
REMARK                            x       y       z     vdW  Elec       q    Type
REMARK                         _______ _______ _______ _____ _____    ______ ____
ROOT
ATOM      1  O   UNL     1       2.315   4.690  20.994  0.00  0.00    +0.000 OA
ATOM      2  C   UNL     1       2.003   5.800  20.545  0.00  0.00    +0.000 C 
ATOM      3  N   UNL     1       1.658   6.792  21.420  0.00  0.00    +0.000 N 
ATOM      4  C   UNL     1       1.320   8.068  21.056  0.00  0.00    +0.000 A 
ATOM      5  N   UNL     1       1.062   8.523  19.867  0.00  0.00    +0.000 NA
ATOM      6  C   UNL     1       0.762   9.874  19.921  0.00  0.00    +0.000 A 
ATOM      7  C   UNL     1       0.871  10.427  21.180  0.00  0.00    +0.000 A 
ATOM      8  S   UNL     1       1.245   9.190  22.331  0.00  0.00    +0.000 S 
ATOM      9  H   UNL     1       1.722   6.578  22.405  0.00  0.00    +0.000 HD
ENDROOT
BRANCH   6  10
ATOM     10  C   UNL     1       0.152  10.534  18.758  0.00  0.00    +0.000 A 
ATOM     11  C   UNL     1      -0.024  11.943  18.763  0.00  0.00    +0.000 A 
ATOM     12  C   UNL     1      -1.142  12.510  18.159  0.00  0.00    +0.000 A 
ATOM     13  C   UNL     1      -2.006  11.636  17.542  0.00  0.00    +0.000 A 
ATOM     14  C   UNL     1      -1.655  10.336  17.204  0.00  0.00    +0.000 A 
ATOM     15  C   UNL     1      -0.590   9.746  17.844  0.00  0.00    +0.000 A 
ATOM     16  C   UNL     1      -2.866   9.707  16.602  0.00  0.00    +0.000 C 
ATOM     17  C   UNL     1      -3.802  10.369  17.596  0.00  0.00    +0.000 C 
ATOM     18  O   UNL     1      -3.387  11.777  17.588  0.00  0.00    +0.000 OA
ENDBRANCH   6  10
BRANCH   2  19
ATOM     19  C   UNL     1       2.036   6.103  19.063  0.00  0.00    +0.000 C 
BRANCH  19  20
ATOM     20  C   UNL     1       2.617   4.974  18.226  0.00  0.00    +0.000 C 
BRANCH  20  21
ATOM     21  N   UNL     1       4.039   4.818  18.482  0.00  0.00    +0.000 N 
ATOM     22  C   UNL     1       4.643   3.697  19.009  0.00  0.00    +0.000 A 
ATOM     23  O   UNL     1       4.073   2.689  19.404  0.00  0.00    +0.000 OA
ATOM     24  O   UNL     1       6.038   3.829  19.012  0.00  0.00    +0.000 OA
ATOM     25  C   UNL     1       6.220   5.062  18.404  0.00  0.00    +0.000 A 
ATOM     26  C   UNL     1       7.439   5.644  18.128  0.00  0.00    +0.000 A 
ATOM     27  C   UNL     1       7.440   6.887  17.477  0.00  0.00    +0.000 A 
ATOM     28  C   UNL     1       6.218   7.496  17.113  0.00  0.00    +0.000 A 
ATOM     29  C   UNL     1       4.990   6.881  17.414  0.00  0.00    +0.000 A 
ATOM     30  C   UNL     1       5.033   5.672  18.060  0.00  0.00    +0.000 A 
ENDBRANCH  20  21
ENDBRANCH  19  20
ENDBRANCH   2  19
TORSDOF 4
ENDMDL
MODEL 2
REMARK VINA RESULT:      -8.7      2.159      8.414
REMARK  Name = 
REMARK  4 active torsions:
REMARK  status: ('A' for Active; 'I' for Inactive)
REMARK    1  A    between atoms: C_2  and  C_3
REMARK    2  A    between atoms: C_3  and  C_4
REMARK    3  A    between atoms: C_4  and  N_5
REMARK    4  A    between atoms: C_18  and  C_19
REMARK                            x       y       z     vdW  Elec       q    Type
REMARK                         _______ _______ _______ _____ _____    ______ ____
ROOT
ATOM      1  O   UNL     1       0.216   9.066  21.938  0.00  0.00    +0.000 OA
ATOM      2  C   UNL     1       0.810   8.414  21.069  0.00  0.00    +0.000 C 
ATOM      3  N   UNL     1       1.130   7.111  21.327  0.00  0.00    +0.000 N 
ATOM      4  C   UNL     1       1.760   6.275  20.444  0.00  0.00    +0.000 A 
ATOM      5  N   UNL     1       2.345   6.581  19.324  0.00  0.00    +0.000 NA
ATOM      6  C   UNL     1       2.862   5.445  18.723  0.00  0.00    +0.000 A 
ATOM      7  C   UNL     1       2.585   4.274  19.396  0.00  0.00    +0.000 A 
ATOM      8  S   UNL     1       1.758   4.630  20.874  0.00  0.00    +0.000 S 
ATOM      9  H   UNL     1       0.819   6.726  22.207  0.00  0.00    +0.000 HD
ENDROOT
BRANCH   6  10
ATOM     10  C   UNL     1       3.816   5.577  17.612  0.00  0.00    +0.000 A 
ATOM     11  C   UNL     1       4.229   4.420  16.902  0.00  0.00    +0.000 A 
ATOM     12  C   UNL     1       5.533   4.320  16.426  0.00  0.00    +0.000 A 
ATOM     13  C   UNL     1       6.344   5.406  16.650  0.00  0.00    +0.000 A 
ATOM     14  C   UNL     1       5.855   6.660  16.990  0.00  0.00    +0.000 A 
ATOM     15  C   UNL     1       4.590   6.759  17.522  0.00  0.00    +0.000 A 
ATOM     16  C   UNL     1       7.040   7.543  17.191  0.00  0.00    +0.000 C 
ATOM     17  C   UNL     1       7.837   6.452  17.880  0.00  0.00    +0.000 C 
ATOM     18  O   UNL     1       7.686   5.291  16.994  0.00  0.00    +0.000 OA
ENDBRANCH   6  10
BRANCH   2  19
ATOM     19  C   UNL     1       1.152   9.004  19.719  0.00  0.00    +0.000 C 
BRANCH  19  20
ATOM     20  C   UNL     1       1.100  10.523  19.689  0.00  0.00    +0.000 C 
BRANCH  20  21
ATOM     21  N   UNL     1      -0.276  10.995  19.676  0.00  0.00    +0.000 N 
ATOM     22  C   UNL     1      -0.819  11.913  20.547  0.00  0.00    +0.000 A 
ATOM     23  O   UNL     1      -0.254  12.423  21.503  0.00  0.00    +0.000 OA
ATOM     24  O   UNL     1      -2.133  12.238  20.182  0.00  0.00    +0.000 OA
ATOM     25  C   UNL     1      -2.306  11.506  19.017  0.00  0.00    +0.000 A 
ATOM     26  C   UNL     1      -3.440  11.511  18.232  0.00  0.00    +0.000 A 
ATOM     27  C   UNL     1      -3.434  10.732  17.065  0.00  0.00    +0.000 A 
ATOM     28  C   UNL     1      -2.285   9.985  16.720  0.00  0.00    +0.000 A 
ATOM     29  C   UNL     1      -1.146   9.993  17.545  0.00  0.00    +0.000 A 
ATOM     30  C   UNL     1      -1.197  10.760  18.680  0.00  0.00    +0.000 A 
ENDBRANCH  20  21
ENDBRANCH  19  20
ENDBRANCH   2  19
TORSDOF 4
ENDMDL
MODEL 3
REMARK VINA RESULT:      -8.6      1.052      1.070
REMARK  Name = 
REMARK  4 active torsions:
REMARK  status: ('A' for Active; 'I' for Inactive)
REMARK    1  A    between atoms: C_2  and  C_3
REMARK    2  A    between atoms: C_3  and  C_4
REMARK    3  A    between atoms: C_4  and  N_5
REMARK    4  A    between atoms: C_18  and  C_19
REMARK                            x       y       z     vdW  Elec       q    Type
REMARK                         _______ _______ _______ _____ _____    ______ ____
ROOT
ATOM      1  O   UNL     1       2.622   4.886  20.635  0.00  0.00    +0.000 OA
ATOM      2  C   UNL     1       2.224   5.999  20.267  0.00  0.00    +0.000 C 
ATOM      3  N   UNL     1       1.812   6.897  21.210  0.00  0.00    +0.000 N 
ATOM      4  C   UNL     1       1.376   8.166  20.938  0.00  0.00    +0.000 A 
ATOM      5  N   UNL     1       1.075   8.683  19.784  0.00  0.00    +0.000 NA
ATOM      6  C   UNL     1       0.674  10.001  19.935  0.00  0.00    +0.000 A 
ATOM      7  C   UNL     1       0.751  10.470  21.230  0.00  0.00    +0.000 A 
ATOM      8  S   UNL     1       1.226   9.188  22.289  0.00  0.00    +0.000 S 
ATOM      9  H   UNL     1       1.899   6.620  22.177  0.00  0.00    +0.000 HD
ENDROOT
BRANCH   6  10
ATOM     10  C   UNL     1       0.007  10.693  18.823  0.00  0.00    +0.000 A 
ATOM     11  C   UNL     1      -0.287  12.077  18.934  0.00  0.00    +0.000 A 
ATOM     12  C   UNL     1      -1.451  12.591  18.371  0.00  0.00    +0.000 A 
ATOM     13  C   UNL     1      -2.240  11.697  17.687  0.00  0.00    +0.000 A 
ATOM     14  C   UNL     1      -1.782  10.460  17.253  0.00  0.00    +0.000 A 
ATOM     15  C   UNL     1      -0.669   9.916  17.850  0.00  0.00    +0.000 A 
ATOM     16  C   UNL     1      -2.938   9.779  16.602  0.00  0.00    +0.000 C 
ATOM     17  C   UNL     1      -3.923  10.282  17.640  0.00  0.00    +0.000 C 
ATOM     18  O   UNL     1      -3.628  11.717  17.739  0.00  0.00    +0.000 OA
ENDBRANCH   6  10
BRANCH   2  19
ATOM     19  C   UNL     1       2.222   6.407  18.810  0.00  0.00    +0.000 C 
BRANCH  19  20
ATOM     20  C   UNL     1       2.011   5.243  17.854  0.00  0.00    +0.000 C 
BRANCH  20  21
ATOM     21  N   UNL     1       3.268   4.566  17.576  0.00  0.00    +0.000 N 
ATOM     22  C   UNL     1       3.430   3.208  17.411  0.00  0.00    +0.000 A 
ATOM     23  O   UNL     1       2.561   2.357  17.538  0.00  0.00    +0.000 OA
ATOM     24  O   UNL     1       4.744   2.898  17.035  0.00  0.00    +0.000 OA
ATOM     25  C   UNL     1       5.325   4.154  16.930  0.00  0.00    +0.000 A 
ATOM     26  C   UNL     1       6.624   4.403  16.541  0.00  0.00    +0.000 A 
ATOM     27  C   UNL     1       7.040   5.740  16.458  0.00  0.00    +0.000 A 
ATOM     28  C   UNL     1       6.133   6.782  16.757  0.00  0.00    +0.000 A 
ATOM     29  C   UNL     1       4.816   6.497  17.158  0.00  0.00    +0.000 A 
ATOM     30  C   UNL     1       4.453   5.177  17.235  0.00  0.00    +0.000 A 
ENDBRANCH  20  21
ENDBRANCH  19  20
ENDBRANCH   2  19
TORSDOF 4
ENDMDL
MODEL 4
REMARK VINA RESULT:      -8.5      2.806      8.311
REMARK  Name = 
REMARK  4 active torsions:
REMARK  status: ('A' for Active; 'I' for Inactive)
REMARK    1  A    between atoms: C_2  and  C_3
REMARK    2  A    between atoms: C_3  and  C_4
REMARK    3  A    between atoms: C_4  and  N_5
REMARK    4  A    between atoms: C_18  and  C_19
REMARK                            x       y       z     vdW  Elec       q    Type
REMARK                         _______ _______ _______ _____ _____    ______ ____
ROOT
ATOM      1  O   UNL     1       0.574   8.752  22.243  0.00  0.00    +0.000 OA
ATOM      2  C   UNL     1       1.098   8.149  21.298  0.00  0.00    +0.000 C 
ATOM      3  N   UNL     1       1.193   6.787  21.356  0.00  0.00    +0.000 N 
ATOM      4  C   UNL     1       1.724   6.001  20.369  0.00  0.00    +0.000 A 
ATOM      5  N   UNL     1       2.405   6.370  19.325  0.00  0.00    +0.000 NA
ATOM      6  C   UNL     1       2.763   5.268  18.567  0.00  0.00    +0.000 A 
ATOM      7  C   UNL     1       2.270   4.071  19.042  0.00  0.00    +0.000 A 
ATOM      8  S   UNL     1       1.439   4.333  20.537  0.00  0.00    +0.000 S 
ATOM      9  H   UNL     1       0.782   6.332  22.159  0.00  0.00    +0.000 HD
ENDROOT
BRANCH   6  10
ATOM     10  C   UNL     1       3.779   5.406  17.513  0.00  0.00    +0.000 A 
ATOM     11  C   UNL     1       4.249   4.250  16.838  0.00  0.00    +0.000 A 
ATOM     12  C   UNL     1       5.581   4.166  16.441  0.00  0.00    +0.000 A 
ATOM     13  C   UNL     1       6.362   5.266  16.704  0.00  0.00    +0.000 A 
ATOM     14  C   UNL     1       5.834   6.515  17.003  0.00  0.00    +0.000 A 
ATOM     15  C   UNL     1       4.539   6.599  17.458  0.00  0.00    +0.000 A 
ATOM     16  C   UNL     1       6.993   7.417  17.266  0.00  0.00    +0.000 C 
ATOM     17  C   UNL     1       7.764   6.344  18.010  0.00  0.00    +0.000 C 
ATOM     18  O   UNL     1       7.682   5.174  17.127  0.00  0.00    +0.000 OA
ENDBRANCH   6  10
BRANCH   2  19
ATOM     19  C   UNL     1       1.595   8.870  20.064  0.00  0.00    +0.000 C 
BRANCH  19  20
ATOM     20  C   UNL     1       0.590   9.858  19.493  0.00  0.00    +0.000 C 
BRANCH  20  21
ATOM     21  N   UNL     1       0.958  11.225  19.828  0.00  0.00    +0.000 N 
ATOM     22  C   UNL     1       1.800  12.033  19.095  0.00  0.00    +0.000 A 
ATOM     23  O   UNL     1       2.417  11.709  18.091  0.00  0.00    +0.000 OA
ATOM     24  O   UNL     1       1.846  13.328  19.628  0.00  0.00    +0.000 OA
ATOM     25  C   UNL     1       0.940  13.249  20.675  0.00  0.00    +0.000 A 
ATOM     26  C   UNL     1       0.587  14.292  21.506  0.00  0.00    +0.000 A 
ATOM     27  C   UNL     1      -0.372  14.044  22.499  0.00  0.00    +0.000 A 
ATOM     28  C   UNL     1      -0.954  12.762  22.616  0.00  0.00    +0.000 A 
ATOM     29  C   UNL     1      -0.569  11.716  21.759  0.00  0.00    +0.000 A 
ATOM     30  C   UNL     1       0.379  11.998  20.808  0.00  0.00    +0.000 A 
ENDBRANCH  20  21
ENDBRANCH  19  20
ENDBRANCH   2  19
TORSDOF 4
ENDMDL
MODEL 5
REMARK VINA RESULT:      -8.3      1.478      1.956
REMARK  Name = 
REMARK  4 active torsions:
REMARK  status: ('A' for Active; 'I' for Inactive)
REMARK    1  A    between atoms: C_2  and  C_3
REMARK    2  A    between atoms: C_3  and  C_4
REMARK    3  A    between atoms: C_4  and  N_5
REMARK    4  A    between atoms: C_18  and  C_19
REMARK                            x       y       z     vdW  Elec       q    Type
REMARK                         _______ _______ _______ _____ _____    ______ ____
ROOT
ATOM      1  O   UNL     1       2.874   4.813  20.374  0.00  0.00    +0.000 OA
ATOM      2  C   UNL     1       2.446   5.922  20.029  0.00  0.00    +0.000 C 
ATOM      3  N   UNL     1       1.973   6.773  20.988  0.00  0.00    +0.000 N 
ATOM      4  C   UNL     1       1.497   8.034  20.743  0.00  0.00    +0.000 A 
ATOM      5  N   UNL     1       1.212   8.578  19.598  0.00  0.00    +0.000 NA
ATOM      6  C   UNL     1       0.758   9.874  19.778  0.00  0.00    +0.000 A 
ATOM      7  C   UNL     1       0.779  10.303  21.089  0.00  0.00    +0.000 A 
ATOM      8  S   UNL     1       1.269   9.004  22.121  0.00  0.00    +0.000 S 
ATOM      9  H   UNL     1       2.041   6.468  21.948  0.00  0.00    +0.000 HD
ENDROOT
BRANCH   6  10
ATOM     10  C   UNL     1       0.099  10.578  18.668  0.00  0.00    +0.000 A 
ATOM     11  C   UNL     1      -0.083  11.984  18.740  0.00  0.00    +0.000 A 
ATOM     12  C   UNL     1      -1.227  12.568  18.205  0.00  0.00    +0.000 A 
ATOM     13  C   UNL     1      -2.110  11.716  17.586  0.00  0.00    +0.000 A 
ATOM     14  C   UNL     1      -1.767  10.433  17.181  0.00  0.00    +0.000 A 
ATOM     15  C   UNL     1      -0.675   9.824  17.753  0.00  0.00    +0.000 A 
ATOM     16  C   UNL     1      -2.998   9.822  16.602  0.00  0.00    +0.000 C 
ATOM     17  C   UNL     1      -3.897  10.436  17.659  0.00  0.00    +0.000 C 
ATOM     18  O   UNL     1      -3.489  11.846  17.693  0.00  0.00    +0.000 OA
ENDBRANCH   6  10
BRANCH   2  19
ATOM     19  C   UNL     1       2.472   6.378  18.587  0.00  0.00    +0.000 C 
BRANCH  19  20
ATOM     20  C   UNL     1       3.272   5.460  17.675  0.00  0.00    +0.000 C 
BRANCH  20  21
ATOM     21  N   UNL     1       4.569   6.040  17.365  0.00  0.00    +0.000 N 
ATOM     22  C   UNL     1       4.821   6.959  16.370  0.00  0.00    +0.000 A 
ATOM     23  O   UNL     1       4.014   7.378  15.553  0.00  0.00    +0.000 OA
ATOM     24  O   UNL     1       6.149   7.403  16.419  0.00  0.00    +0.000 OA
ATOM     25  C   UNL     1       6.642   6.740  17.533  0.00  0.00    +0.000 A 
ATOM     26  C   UNL     1       7.918   6.870  18.040  0.00  0.00    +0.000 A 
ATOM     27  C   UNL     1       8.241   6.146  19.198  0.00  0.00    +0.000 A 
ATOM     28  C   UNL     1       7.268   5.326  19.813  0.00  0.00    +0.000 A 
ATOM     29  C   UNL     1       5.978   5.207  19.268  0.00  0.00    +0.000 A 
ATOM     30  C   UNL     1       5.706   5.924  18.131  0.00  0.00    +0.000 A 
ENDBRANCH  20  21
ENDBRANCH  19  20
ENDBRANCH   2  19
TORSDOF 4
ENDMDL
MODEL 6
REMARK VINA RESULT:      -8.2      2.350      8.158
REMARK  Name = 
REMARK  4 active torsions:
REMARK  status: ('A' for Active; 'I' for Inactive)
REMARK    1  A    between atoms: C_2  and  C_3
REMARK    2  A    between atoms: C_3  and  C_4
REMARK    3  A    between atoms: C_4  and  N_5
REMARK    4  A    between atoms: C_18  and  C_19
REMARK                            x       y       z     vdW  Elec       q    Type
REMARK                         _______ _______ _______ _____ _____    ______ ____
ROOT
ATOM      1  O   UNL     1       0.451   9.697  21.596  0.00  0.00    +0.000 OA
ATOM      2  C   UNL     1       1.021   8.962  20.780  0.00  0.00    +0.000 C 
ATOM      3  N   UNL     1       1.153   7.633  21.069  0.00  0.00    +0.000 N 
ATOM      4  C   UNL     1       1.737   6.710  20.243  0.00  0.00    +0.000 A 
ATOM      5  N   UNL     1       2.438   6.922  19.170  0.00  0.00    +0.000 NA
ATOM      6  C   UNL     1       2.851   5.721  18.617  0.00  0.00    +0.000 A 
ATOM      7  C   UNL     1       2.378   4.605  19.275  0.00  0.00    +0.000 A 
ATOM      8  S   UNL     1       1.494   5.086  20.682  0.00  0.00    +0.000 S 
ATOM      9  H   UNL     1       0.730   7.306  21.926  0.00  0.00    +0.000 HD
ENDROOT
BRANCH   6  10
ATOM     10  C   UNL     1       3.895   5.714  17.582  0.00  0.00    +0.000 A 
ATOM     11  C   UNL     1       4.278   4.486  16.982  0.00  0.00    +0.000 A 
ATOM     12  C   UNL     1       5.605   4.269  16.622  0.00  0.00    +0.000 A 
ATOM     13  C   UNL     1       6.472   5.313  16.842  0.00  0.00    +0.000 A 
ATOM     14  C   UNL     1       6.047   6.616  17.061  0.00  0.00    +0.000 A 
ATOM     15  C   UNL     1       4.755   6.834  17.481  0.00  0.00    +0.000 A 
ATOM     16  C   UNL     1       7.272   7.432  17.302  0.00  0.00    +0.000 C 
ATOM     17  C   UNL     1       7.935   6.341  18.121  0.00  0.00    +0.000 C 
ATOM     18  O   UNL     1       7.771   5.134  17.301  0.00  0.00    +0.000 OA
ENDBRANCH   6  10
BRANCH   2  19
ATOM     19  C   UNL     1       1.535   9.482  19.455  0.00  0.00    +0.000 C 
BRANCH  19  20
ATOM     20  C   UNL     1       0.437   9.995  18.537  0.00  0.00    +0.000 C 
BRANCH  20  21
ATOM     21  N   UNL     1       0.200  11.413  18.752  0.00  0.00    +0.000 N 
ATOM     22  C   UNL     1      -0.935  11.964  19.306  0.00  0.00    +0.000 A 
ATOM     23  O   UNL     1      -1.943  11.357  19.638  0.00  0.00    +0.000 OA
ATOM     24  O   UNL     1      -0.790  13.346  19.484  0.00  0.00    +0.000 OA
ATOM     25  C   UNL     1       0.513  13.563  19.062  0.00  0.00    +0.000 A 
ATOM     26  C   UNL     1       1.166  14.779  19.076  0.00  0.00    +0.000 A 
ATOM     27  C   UNL     1       2.499  14.814  18.640  0.00  0.00    +0.000 A 
ATOM     28  C   UNL     1       3.135  13.625  18.216  0.00  0.00    +0.000 A 
ATOM     29  C   UNL     1       2.442  12.402  18.205  0.00  0.00    +0.000 A 
ATOM     30  C   UNL     1       1.138  12.413  18.630  0.00  0.00    +0.000 A 
ENDBRANCH  20  21
ENDBRANCH  19  20
ENDBRANCH   2  19
TORSDOF 4
ENDMDL
MODEL 7
REMARK VINA RESULT:      -8.1      2.383      3.067
REMARK  Name = 
REMARK  4 active torsions:
REMARK  status: ('A' for Active; 'I' for Inactive)
REMARK    1  A    between atoms: C_2  and  C_3
REMARK    2  A    between atoms: C_3  and  C_4
REMARK    3  A    between atoms: C_4  and  N_5
REMARK    4  A    between atoms: C_18  and  C_19
REMARK                            x       y       z     vdW  Elec       q    Type
REMARK                         _______ _______ _______ _____ _____    ______ ____
ROOT
ATOM      1  O   UNL     1       1.866   5.247  20.805  0.00  0.00    +0.000 OA
ATOM      2  C   UNL     1       1.764   6.455  20.557  0.00  0.00    +0.000 C 
ATOM      3  N   UNL     1       0.901   7.210  21.300  0.00  0.00    +0.000 N 
ATOM      4  C   UNL     1       0.714   8.558  21.146  0.00  0.00    +0.000 A 
ATOM      5  N   UNL     1       1.131   9.322  20.181  0.00  0.00    +0.000 NA
ATOM      6  C   UNL     1       0.734  10.631  20.396  0.00  0.00    +0.000 A 
ATOM      7  C   UNL     1       0.066  10.831  21.587  0.00  0.00    +0.000 A 
ATOM      8  S   UNL     1      -0.164   9.316  22.389  0.00  0.00    +0.000 S 
ATOM      9  H   UNL     1       0.418   6.745  22.056  0.00  0.00    +0.000 HD
ENDROOT
BRANCH   6  10
ATOM     10  C   UNL     1       0.828  11.612  19.305  0.00  0.00    +0.000 A 
ATOM     11  C   UNL     1       2.030  11.716  18.558  0.00  0.00    +0.000 A 
ATOM     12  C   UNL     1       2.461  12.957  18.097  0.00  0.00    +0.000 A 
ATOM     13  C   UNL     1       1.640  14.024  18.373  0.00  0.00    +0.000 A 
ATOM     14  C   UNL     1       0.312  13.880  18.751  0.00  0.00    +0.000 A 
ATOM     15  C   UNL     1      -0.106  12.676  19.268  0.00  0.00    +0.000 A 
ATOM     16  C   UNL     1      -0.215  15.253  19.001  0.00  0.00    +0.000 C 
ATOM     17  C   UNL     1       1.071  15.713  19.661  0.00  0.00    +0.000 C 
ATOM     18  O   UNL     1       2.121  15.277  18.731  0.00  0.00    +0.000 OA
ENDBRANCH   6  10
BRANCH   2  19
ATOM     19  C   UNL     1       2.597   7.127  19.488  0.00  0.00    +0.000 C 
BRANCH  19  20
ATOM     20  C   UNL     1       2.272   6.656  18.079  0.00  0.00    +0.000 C 
BRANCH  20  21
ATOM     21  N   UNL     1       3.110   5.528  17.703  0.00  0.00    +0.000 N 
ATOM     22  C   UNL     1       2.670   4.244  17.466  0.00  0.00    +0.000 A 
ATOM     23  O   UNL     1       1.525   3.837  17.600  0.00  0.00    +0.000 OA
ATOM     24  O   UNL     1       3.714   3.430  17.006  0.00  0.00    +0.000 OA
ATOM     25  C   UNL     1       4.773   4.323  16.928  0.00  0.00    +0.000 A 
ATOM     26  C   UNL     1       6.042   4.020  16.482  0.00  0.00    +0.000 A 
ATOM     27  C   UNL     1       6.988   5.056  16.440  0.00  0.00    +0.000 A 
ATOM     28  C   UNL     1       6.623   6.363  16.835  0.00  0.00    +0.000 A 
ATOM     29  C   UNL     1       5.323   6.640  17.293  0.00  0.00    +0.000 A 
ATOM     30  C   UNL     1       4.432   5.598  17.327  0.00  0.00    +0.000 A 
ENDBRANCH  20  21
ENDBRANCH  19  20
ENDBRANCH   2  19
TORSDOF 4
ENDMDL
MODEL 8
REMARK VINA RESULT:      -8.0      3.287      4.729
REMARK  Name = 
REMARK  4 active torsions:
REMARK  status: ('A' for Active; 'I' for Inactive)
REMARK    1  A    between atoms: C_2  and  C_3
REMARK    2  A    between atoms: C_3  and  C_4
REMARK    3  A    between atoms: C_4  and  N_5
REMARK    4  A    between atoms: C_18  and  C_19
REMARK                            x       y       z     vdW  Elec       q    Type
REMARK                         _______ _______ _______ _____ _____    ______ ____
ROOT
ATOM      1  O   UNL     1       4.629   2.348  16.702  0.00  0.00    +0.000 OA
ATOM      2  C   UNL     1       4.203   3.254  17.430  0.00  0.00    +0.000 C 
ATOM      3  N   UNL     1       3.063   3.038  18.152  0.00  0.00    +0.000 N 
ATOM      4  C   UNL     1       2.503   3.945  19.013  0.00  0.00    +0.000 A 
ATOM      5  N   UNL     1       2.795   5.203  19.157  0.00  0.00    +0.000 NA
ATOM      6  C   UNL     1       2.000   5.774  20.136  0.00  0.00    +0.000 A 
ATOM      7  C   UNL     1       1.152   4.885  20.765  0.00  0.00    +0.000 A 
ATOM      8  S   UNL     1       1.283   3.328  20.023  0.00  0.00    +0.000 S 
ATOM      9  H   UNL     1       2.647   2.120  18.090  0.00  0.00    +0.000 HD
ENDROOT
BRANCH   6  10
ATOM     10  C   UNL     1       1.939   7.237  20.266  0.00  0.00    +0.000 A 
ATOM     11  C   UNL     1       1.299   7.814  21.394  0.00  0.00    +0.000 A 
ATOM     12  C   UNL     1       0.581   8.999  21.259  0.00  0.00    +0.000 A 
ATOM     13  C   UNL     1       0.578   9.567  20.007  0.00  0.00    +0.000 A 
ATOM     14  C   UNL     1       1.493   9.228  19.020  0.00  0.00    +0.000 A 
ATOM     15  C   UNL     1       2.159   8.028  19.113  0.00  0.00    +0.000 A 
ATOM     16  C   UNL     1       1.131  10.020  17.809  0.00  0.00    +0.000 C 
ATOM     17  C   UNL     1      -0.358   9.837  18.036  0.00  0.00    +0.000 C 
ATOM     18  O   UNL     1      -0.543  10.172  19.453  0.00  0.00    +0.000 OA
ENDBRANCH   6  10
BRANCH   2  19
ATOM     19  C   UNL     1       4.930   4.572  17.577  0.00  0.00    +0.000 C 
BRANCH  19  20
ATOM     20  C   UNL     1       4.721   5.516  16.403  0.00  0.00    +0.000 C 
BRANCH  20  21
ATOM     21  N   UNL     1       5.831   5.431  15.467  0.00  0.00    +0.000 N 
ATOM     22  C   UNL     1       7.110   5.890  15.693  0.00  0.00    +0.000 A 
ATOM     23  O   UNL     1       7.494   6.497  16.682  0.00  0.00    +0.000 OA
ATOM     24  O   UNL     1       7.964   5.543  14.638  0.00  0.00    +0.000 OA
ATOM     25  C   UNL     1       7.130   4.804  13.812  0.00  0.00    +0.000 A 
ATOM     26  C   UNL     1       7.508   4.191  12.636  0.00  0.00    +0.000 A 
ATOM     27  C   UNL     1       6.540   3.455  11.938  0.00  0.00    +0.000 A 
ATOM     28  C   UNL     1       5.227   3.348  12.452  0.00  0.00    +0.000 A 
ATOM     29  C   UNL     1       4.868   3.991  13.650  0.00  0.00    +0.000 A 
ATOM     30  C   UNL     1       5.843   4.708  14.295  0.00  0.00    +0.000 A 
ENDBRANCH  20  21
ENDBRANCH  19  20
ENDBRANCH   2  19
TORSDOF 4
ENDMDL
MODEL 9
REMARK VINA RESULT:      -8.0      2.338      8.529
REMARK  Name = 
REMARK  4 active torsions:
REMARK  status: ('A' for Active; 'I' for Inactive)
REMARK    1  A    between atoms: C_2  and  C_3
REMARK    2  A    between atoms: C_3  and  C_4
REMARK    3  A    between atoms: C_4  and  N_5
REMARK    4  A    between atoms: C_18  and  C_19
REMARK                            x       y       z     vdW  Elec       q    Type
REMARK                         _______ _______ _______ _____ _____    ______ ____
ROOT
ATOM      1  O   UNL     1       0.267   8.984  22.075  0.00  0.00    +0.000 OA
ATOM      2  C   UNL     1       0.847   8.353  21.181  0.00  0.00    +0.000 C 
ATOM      3  N   UNL     1       1.135   7.034  21.387  0.00  0.00    +0.000 N 
ATOM      4  C   UNL     1       1.747   6.219  20.472  0.00  0.00    +0.000 A 
ATOM      5  N   UNL     1       2.340   6.555  19.365  0.00  0.00    +0.000 NA
ATOM      6  C   UNL     1       2.831   5.433  18.720  0.00  0.00    +0.000 A 
ATOM      7  C   UNL     1       2.526   4.242  19.346  0.00  0.00    +0.000 A 
ATOM      8  S   UNL     1       1.706   4.559  20.836  0.00  0.00    +0.000 S 
ATOM      9  H   UNL     1       0.814   6.622  22.251  0.00  0.00    +0.000 HD
ENDROOT
BRANCH   6  10
ATOM     10  C   UNL     1       3.789   5.586  17.615  0.00  0.00    +0.000 A 
ATOM     11  C   UNL     1       4.199   4.444  16.879  0.00  0.00    +0.000 A 
ATOM     12  C   UNL     1       5.504   4.349  16.405  0.00  0.00    +0.000 A 
ATOM     13  C   UNL     1       6.320   5.427  16.657  0.00  0.00    +0.000 A 
ATOM     14  C   UNL     1       5.835   6.675  17.025  0.00  0.00    +0.000 A 
ATOM     15  C   UNL     1       4.569   6.767  17.555  0.00  0.00    +0.000 A 
ATOM     16  C   UNL     1       7.023   7.547  17.249  0.00  0.00    +0.000 C 
ATOM     17  C   UNL     1       7.814   6.437  17.915  0.00  0.00    +0.000 C 
ATOM     18  O   UNL     1       7.660   5.298  17.002  0.00  0.00    +0.000 OA
ENDBRANCH   6  10
BRANCH   2  19
ATOM     19  C   UNL     1       1.203   8.988  19.855  0.00  0.00    +0.000 C 
BRANCH  19  20
ATOM     20  C   UNL     1       1.204  10.509  19.891  0.00  0.00    +0.000 C 
BRANCH  20  21
ATOM     21  N   UNL     1      -0.126  11.033  19.623  0.00  0.00    +0.000 N 
ATOM     22  C   UNL     1      -0.922  10.697  18.550  0.00  0.00    +0.000 A 
ATOM     23  O   UNL     1      -0.612   9.961  17.625  0.00  0.00    +0.000 OA
ATOM     24  O   UNL     1      -2.189  11.287  18.657  0.00  0.00    +0.000 OA
ATOM     25  C   UNL     1      -2.110  11.937  19.880  0.00  0.00    +0.000 A 
ATOM     26  C   UNL     1      -3.132  12.648  20.474  0.00  0.00    +0.000 A 
ATOM     27  C   UNL     1      -2.889  13.219  21.732  0.00  0.00    +0.000 A 
ATOM     28  C   UNL     1      -1.634  13.044  22.358  0.00  0.00    +0.000 A 
ATOM     29  C   UNL     1      -0.608  12.320  21.724  0.00  0.00    +0.000 A 
ATOM     30  C   UNL     1      -0.884  11.787  20.491  0.00  0.00    +0.000 A 
ENDBRANCH  20  21
ENDBRANCH  19  20
ENDBRANCH   2  19
TORSDOF 4
ENDMDL
