MODEL 1
REMARK VINA RESULT:      -8.9      0.000      0.000
REMARK  Name = 
REMARK  6 active torsions:
REMARK  status: ('A' for Active; 'I' for Inactive)
REMARK    1  A    between atoms: C_1  and  C_2
REMARK    2  A    between atoms: N_6  and  C_7
REMARK    3  A    between atoms: C_9  and  N_10
REMARK    4  A    between atoms: C_11  and  C_13
REMARK    5  A    between atoms: N_15  and  C_16
REMARK    6  A    between atoms: C_16  and  C_17
REMARK                            x       y       z     vdW  Elec       q    Type
REMARK                         _______ _______ _______ _____ _____    ______ ____
ROOT
ATOM      1  N   UNL     1       1.961   7.357  18.894  0.00  0.00    +0.000 N 
ATOM      2  C   UNL     1       1.551   7.694  20.176  0.00  0.00    +0.000 C 
ATOM      3  O   UNL     1       1.746   7.020  21.184  0.00  0.00    +0.000 OA
ATOM      4  H   UNL     1       1.842   8.093  18.200  0.00  0.00    +0.000 HD
ENDROOT
BRANCH   1   7
ATOM      5  C   UNL     1       4.565   4.856  17.892  0.00  0.00    +0.000 A 
ATOM      6  C   UNL     1       3.979   6.050  18.334  0.00  0.00    +0.000 A 
ATOM      7  C   UNL     1       2.590   6.158  18.504  0.00  0.00    +0.000 A 
ATOM      8  C   UNL     1       1.795   5.033  18.271  0.00  0.00    +0.000 A 
ATOM      9  C   UNL     1       2.372   3.845  17.809  0.00  0.00    +0.000 A 
ATOM     10  C   UNL     1       3.748   3.766  17.603  0.00  0.00    +0.000 A 
ATOM     11  F   UNL     1       4.255   2.596  17.191  0.00  0.00    +0.000 F 
BRANCH   5  17
ATOM     12  C   UNL     1       6.221   5.042  15.164  0.00  0.00    +0.000 C 
ATOM     13  C   UNL     1       6.705   4.709  16.523  0.00  0.00    +0.000 A 
ATOM     14  N   UNL     1       7.960   4.461  16.844  0.00  0.00    +0.000 NA
ATOM     15  N   UNL     1       8.011   4.449  18.209  0.00  0.00    +0.000 NA
ATOM     16  N   UNL     1       6.822   4.698  18.733  0.00  0.00    +0.000 NA
ATOM     17  N   UNL     1       5.960   4.777  17.694  0.00  0.00    +0.000 N 
ENDBRANCH   5  17
ENDBRANCH   1   7
BRANCH   2  18
ATOM     18  C   UNL     1       0.861   9.065  20.265  0.00  0.00    +0.000 C 
ATOM     19  C   UNL     1       0.755   9.638  18.836  0.00  0.00    +0.000 C 
ATOM     20  N   UNL     1       0.106  10.969  18.764  0.00  0.00    +0.000 NA
ATOM     21  C   UNL     1       0.815  11.855  19.715  0.00  0.00    +0.000 C 
ATOM     22  C   UNL     1       0.942  11.267  21.136  0.00  0.00    +0.000 C 
ATOM     23  O   UNL     1       1.565   9.971  21.134  0.00  0.00    +0.000 OA
BRANCH  20  24
ATOM     24  C   UNL     1      -1.338  10.938  19.065  0.00  0.00    +0.000 C 
BRANCH  24  25
ATOM     25  C   UNL     1      -2.254  10.855  17.864  0.00  0.00    +0.000 A 
ATOM     26  C   UNL     1      -1.927  10.015  16.785  0.00  0.00    +0.000 A 
ATOM     27  C   UNL     1      -2.787   9.892  15.692  0.00  0.00    +0.000 A 
ATOM     28  C   UNL     1      -3.985  10.602  15.666  0.00  0.00    +0.000 A 
ATOM     29  C   UNL     1      -4.322  11.441  16.728  0.00  0.00    +0.000 A 
ATOM     30  C   UNL     1      -3.459  11.569  17.820  0.00  0.00    +0.000 A 
ENDBRANCH  24  25
ENDBRANCH  20  24
ENDBRANCH   2  18
TORSDOF 5
ENDMDL
MODEL 2
REMARK VINA RESULT:      -8.9      1.293      1.293
REMARK  Name = 
REMARK  6 active torsions:
REMARK  status: ('A' for Active; 'I' for Inactive)
REMARK    1  A    between atoms: C_1  and  C_2
REMARK    2  A    between atoms: N_6  and  C_7
REMARK    3  A    between atoms: C_9  and  N_10
REMARK    4  A    between atoms: C_11  and  C_13
REMARK    5  A    between atoms: N_15  and  C_16
REMARK    6  A    between atoms: C_16  and  C_17
REMARK                            x       y       z     vdW  Elec       q    Type
REMARK                         _______ _______ _______ _____ _____    ______ ____
ROOT
ATOM      1  N   UNL     1       1.866   6.827  20.290  0.00  0.00    +0.000 N 
ATOM      2  C   UNL     1       1.870   7.977  19.514  0.00  0.00    +0.000 C 
ATOM      3  O   UNL     1       2.537   8.145  18.495  0.00  0.00    +0.000 OA
ATOM      4  H   UNL     1       1.152   6.804  21.016  0.00  0.00    +0.000 HD
ENDROOT
BRANCH   1   7
ATOM      5  C   UNL     1       4.657   4.569  19.214  0.00  0.00    +0.000 A 
ATOM      6  C   UNL     1       3.904   5.732  19.428  0.00  0.00    +0.000 A 
ATOM      7  C   UNL     1       2.676   5.688  20.104  0.00  0.00    +0.000 A 
ATOM      8  C   UNL     1       2.229   4.465  20.610  0.00  0.00    +0.000 A 
ATOM      9  C   UNL     1       2.965   3.297  20.380  0.00  0.00    +0.000 A 
ATOM     10  C   UNL     1       4.163   3.349  19.668  0.00  0.00    +0.000 A 
ATOM     11  F   UNL     1       4.845   2.208  19.505  0.00  0.00    +0.000 F 
BRANCH   5  17
ATOM     12  C   UNL     1       5.138   4.539  16.054  0.00  0.00    +0.000 C 
ATOM     13  C   UNL     1       6.136   4.474  17.146  0.00  0.00    +0.000 A 
ATOM     14  N   UNL     1       7.444   4.428  16.981  0.00  0.00    +0.000 NA
ATOM     15  N   UNL     1       7.994   4.627  18.215  0.00  0.00    +0.000 NA
ATOM     16  N   UNL     1       7.057   4.809  19.131  0.00  0.00    +0.000 NA
ATOM     17  N   UNL     1       5.874   4.628  18.502  0.00  0.00    +0.000 N 
ENDBRANCH   5  17
ENDBRANCH   1   7
BRANCH   2  18
ATOM     18  C   UNL     1       0.889   9.057  20.001  0.00  0.00    +0.000 C 
ATOM     19  C   UNL     1       0.713  10.085  18.864  0.00  0.00    +0.000 C 
ATOM     20  N   UNL     1      -0.213  11.196  19.190  0.00  0.00    +0.000 NA
ATOM     21  C   UNL     1       0.243  11.787  20.469  0.00  0.00    +0.000 C 
ATOM     22  C   UNL     1       0.443  10.751  21.596  0.00  0.00    +0.000 C 
ATOM     23  O   UNL     1       1.339   9.694  21.209  0.00  0.00    +0.000 OA
BRANCH  20  24
ATOM     24  C   UNL     1      -1.625  10.777  19.289  0.00  0.00    +0.000 C 
BRANCH  24  25
ATOM     25  C   UNL     1      -2.397  10.771  17.988  0.00  0.00    +0.000 A 
ATOM     26  C   UNL     1      -1.993   9.936  16.933  0.00  0.00    +0.000 A 
ATOM     27  C   UNL     1      -2.724   9.885  15.745  0.00  0.00    +0.000 A 
ATOM     28  C   UNL     1      -3.870  10.664  15.598  0.00  0.00    +0.000 A 
ATOM     29  C   UNL     1      -4.282  11.499  16.636  0.00  0.00    +0.000 A 
ATOM     30  C   UNL     1      -3.547  11.555  17.825  0.00  0.00    +0.000 A 
ENDBRANCH  24  25
ENDBRANCH  20  24
ENDBRANCH   2  18
TORSDOF 5
ENDMDL
MODEL 3
REMARK VINA RESULT:      -8.9      1.248      1.273
REMARK  Name = 
REMARK  6 active torsions:
REMARK  status: ('A' for Active; 'I' for Inactive)
REMARK    1  A    between atoms: C_1  and  C_2
REMARK    2  A    between atoms: N_6  and  C_7
REMARK    3  A    between atoms: C_9  and  N_10
REMARK    4  A    between atoms: C_11  and  C_13
REMARK    5  A    between atoms: N_15  and  C_16
REMARK    6  A    between atoms: C_16  and  C_17
REMARK                            x       y       z     vdW  Elec       q    Type
REMARK                         _______ _______ _______ _____ _____    ______ ____
ROOT
ATOM      1  N   UNL     1       1.668   7.742  19.951  0.00  0.00    +0.000 N 
ATOM      2  C   UNL     1       1.429   8.534  21.065  0.00  0.00    +0.000 C 
ATOM      3  O   UNL     1       1.857   8.316  22.196  0.00  0.00    +0.000 OA
ATOM      4  H   UNL     1       1.357   8.144  19.068  0.00  0.00    +0.000 HD
ENDROOT
BRANCH   1   7
ATOM      5  C   UNL     1       4.278   5.130  19.313  0.00  0.00    +0.000 A 
ATOM      6  C   UNL     1       3.640   6.378  19.368  0.00  0.00    +0.000 A 
ATOM      7  C   UNL     1       2.361   6.516  19.928  0.00  0.00    +0.000 A 
ATOM      8  C   UNL     1       1.744   5.391  20.480  0.00  0.00    +0.000 A 
ATOM      9  C   UNL     1       2.365   4.140  20.409  0.00  0.00    +0.000 A 
ATOM     10  C   UNL     1       3.618   4.010  19.811  0.00  0.00    +0.000 A 
ATOM     11  F   UNL     1       4.184   2.796  19.798  0.00  0.00    +0.000 F 
BRANCH   5  17
ATOM     12  C   UNL     1       5.014   4.650  16.240  0.00  0.00    +0.000 C 
ATOM     13  C   UNL     1       5.910   4.656  17.420  0.00  0.00    +0.000 A 
ATOM     14  N   UNL     1       7.217   4.491  17.384  0.00  0.00    +0.000 NA
ATOM     15  N   UNL     1       7.679   4.809  18.629  0.00  0.00    +0.000 NA
ATOM     16  N   UNL     1       6.688   5.179  19.424  0.00  0.00    +0.000 NA
ATOM     17  N   UNL     1       5.550   5.005  18.716  0.00  0.00    +0.000 N 
ENDBRANCH   5  17
ENDBRANCH   1   7
BRANCH   2  18
ATOM     18  C   UNL     1       0.609   9.799  20.762  0.00  0.00    +0.000 C 
ATOM     19  C   UNL     1       0.593  10.000  19.232  0.00  0.00    +0.000 C 
ATOM     20  N   UNL     1      -0.166  11.193  18.786  0.00  0.00    +0.000 NA
ATOM     21  C   UNL     1       0.359  12.355  19.538  0.00  0.00    +0.000 C 
ATOM     22  C   UNL     1       0.398  12.139  21.066  0.00  0.00    +0.000 C 
ATOM     23  O   UNL     1       1.136  10.960  21.430  0.00  0.00    +0.000 OA
BRANCH  20  24
ATOM     24  C   UNL     1      -1.624  11.070  18.978  0.00  0.00    +0.000 C 
BRANCH  24  25
ATOM     25  C   UNL     1      -2.437  10.896  17.714  0.00  0.00    +0.000 A 
ATOM     26  C   UNL     1      -2.000  10.013  16.711  0.00  0.00    +0.000 A 
ATOM     27  C   UNL     1      -2.764   9.807  15.562  0.00  0.00    +0.000 A 
ATOM     28  C   UNL     1      -3.976  10.475  15.402  0.00  0.00    +0.000 A 
ATOM     29  C   UNL     1      -4.421  11.356  16.387  0.00  0.00    +0.000 A 
ATOM     30  C   UNL     1      -3.654  11.567  17.537  0.00  0.00    +0.000 A 
ENDBRANCH  24  25
ENDBRANCH  20  24
ENDBRANCH   2  18
TORSDOF 5
ENDMDL
MODEL 4
REMARK VINA RESULT:      -8.8      2.263      3.601
REMARK  Name = 
REMARK  6 active torsions:
REMARK  status: ('A' for Active; 'I' for Inactive)
REMARK    1  A    between atoms: C_1  and  C_2
REMARK    2  A    between atoms: N_6  and  C_7
REMARK    3  A    between atoms: C_9  and  N_10
REMARK    4  A    between atoms: C_11  and  C_13
REMARK    5  A    between atoms: N_15  and  C_16
REMARK    6  A    between atoms: C_16  and  C_17
REMARK                            x       y       z     vdW  Elec       q    Type
REMARK                         _______ _______ _______ _____ _____    ______ ____
ROOT
ATOM      1  N   UNL     1       2.181   7.862  18.761  0.00  0.00    +0.000 N 
ATOM      2  C   UNL     1       1.619   8.192  19.986  0.00  0.00    +0.000 C 
ATOM      3  O   UNL     1       1.555   7.448  20.962  0.00  0.00    +0.000 OA
ATOM      4  H   UNL     1       2.277   8.641  18.112  0.00  0.00    +0.000 HD
ENDROOT
BRANCH   1   7
ATOM      5  C   UNL     1       4.541   5.118  17.788  0.00  0.00    +0.000 A 
ATOM      6  C   UNL     1       4.068   6.368  18.215  0.00  0.00    +0.000 A 
ATOM      7  C   UNL     1       2.697   6.605  18.388  0.00  0.00    +0.000 A 
ATOM      8  C   UNL     1       1.800   5.555  18.175  0.00  0.00    +0.000 A 
ATOM      9  C   UNL     1       2.263   4.312  17.728  0.00  0.00    +0.000 A 
ATOM     10  C   UNL     1       3.626   4.104  17.519  0.00  0.00    +0.000 A 
ATOM     11  F   UNL     1       4.021   2.887  17.123  0.00  0.00    +0.000 F 
BRANCH   5  17
ATOM     12  C   UNL     1       6.190   5.092  15.051  0.00  0.00    +0.000 C 
ATOM     13  C   UNL     1       6.650   4.748  16.416  0.00  0.00    +0.000 A 
ATOM     14  N   UNL     1       7.879   4.394  16.738  0.00  0.00    +0.000 NA
ATOM     15  N   UNL     1       7.938   4.408  18.103  0.00  0.00    +0.000 NA
ATOM     16  N   UNL     1       6.779   4.775  18.625  0.00  0.00    +0.000 NA
ATOM     17  N   UNL     1       5.922   4.909  17.588  0.00  0.00    +0.000 N 
ENDBRANCH   5  17
ENDBRANCH   1   7
BRANCH   2  18
ATOM     18  C   UNL     1       1.117   9.643  20.067  0.00  0.00    +0.000 C 
ATOM     19  C   UNL     1      -0.321   9.618  20.627  0.00  0.00    +0.000 C 
ATOM     20  N   UNL     1      -0.942  10.957  20.762  0.00  0.00    +0.000 NA
ATOM     21  C   UNL     1      -0.820  11.632  19.450  0.00  0.00    +0.000 C 
ATOM     22  C   UNL     1       0.615  11.632  18.882  0.00  0.00    +0.000 C 
ATOM     23  O   UNL     1       1.164  10.306  18.791  0.00  0.00    +0.000 OA
BRANCH  20  24
ATOM     24  C   UNL     1      -0.338  11.782  21.826  0.00  0.00    +0.000 C 
BRANCH  24  25
ATOM     25  C   UNL     1      -1.313  12.565  22.678  0.00  0.00    +0.000 A 
ATOM     26  C   UNL     1      -2.553  12.002  23.027  0.00  0.00    +0.000 A 
ATOM     27  C   UNL     1      -3.442  12.694  23.852  0.00  0.00    +0.000 A 
ATOM     28  C   UNL     1      -3.101  13.953  24.342  0.00  0.00    +0.000 A 
ATOM     29  C   UNL     1      -1.875  14.524  24.002  0.00  0.00    +0.000 A 
ATOM     30  C   UNL     1      -0.987  13.835  23.171  0.00  0.00    +0.000 A 
ENDBRANCH  24  25
ENDBRANCH  20  24
ENDBRANCH   2  18
TORSDOF 5
ENDMDL
MODEL 5
REMARK VINA RESULT:      -8.7      2.166      3.047
REMARK  Name = 
REMARK  6 active torsions:
REMARK  status: ('A' for Active; 'I' for Inactive)
REMARK    1  A    between atoms: C_1  and  C_2
REMARK    2  A    between atoms: N_6  and  C_7
REMARK    3  A    between atoms: C_9  and  N_10
REMARK    4  A    between atoms: C_11  and  C_13
REMARK    5  A    between atoms: N_15  and  C_16
REMARK    6  A    between atoms: C_16  and  C_17
REMARK                            x       y       z     vdW  Elec       q    Type
REMARK                         _______ _______ _______ _____ _____    ______ ____
ROOT
ATOM      1  N   UNL     1       2.179   7.940  18.624  0.00  0.00    +0.000 N 
ATOM      2  C   UNL     1       1.596   8.322  19.823  0.00  0.00    +0.000 C 
ATOM      3  O   UNL     1       1.509   7.619  20.827  0.00  0.00    +0.000 OA
ATOM      4  H   UNL     1       2.292   8.692  17.945  0.00  0.00    +0.000 HD
ENDROOT
BRANCH   1   7
ATOM      5  C   UNL     1       4.541   5.153  17.788  0.00  0.00    +0.000 A 
ATOM      6  C   UNL     1       4.067   6.422  18.153  0.00  0.00    +0.000 A 
ATOM      7  C   UNL     1       2.695   6.667  18.311  0.00  0.00    +0.000 A 
ATOM      8  C   UNL     1       1.799   5.608  18.146  0.00  0.00    +0.000 A 
ATOM      9  C   UNL     1       2.263   4.346  17.760  0.00  0.00    +0.000 A 
ATOM     10  C   UNL     1       3.626   4.127  17.564  0.00  0.00    +0.000 A 
ATOM     11  F   UNL     1       4.022   2.893  17.228  0.00  0.00    +0.000 F 
BRANCH   5  17
ATOM     12  C   UNL     1       6.215   5.108  15.066  0.00  0.00    +0.000 C 
ATOM     13  C   UNL     1       6.661   4.764  16.436  0.00  0.00    +0.000 A 
ATOM     14  N   UNL     1       7.884   4.404  16.771  0.00  0.00    +0.000 NA
ATOM     15  N   UNL     1       7.929   4.421  18.136  0.00  0.00    +0.000 NA
ATOM     16  N   UNL     1       6.768   4.798  18.646  0.00  0.00    +0.000 NA
ATOM     17  N   UNL     1       5.922   4.934  17.601  0.00  0.00    +0.000 N 
ENDBRANCH   5  17
ENDBRANCH   1   7
BRANCH   2  18
ATOM     18  C   UNL     1       1.100   9.778  19.836  0.00  0.00    +0.000 C 
ATOM     19  C   UNL     1      -0.443   9.753  19.851  0.00  0.00    +0.000 C 
ATOM     20  N   UNL     1      -1.070  11.097  19.863  0.00  0.00    +0.000 NA
ATOM     21  C   UNL     1      -0.492  11.862  18.734  0.00  0.00    +0.000 C 
ATOM     22  C   UNL     1       1.052  11.861  18.709  0.00  0.00    +0.000 C 
ATOM     23  O   UNL     1       1.595  10.529  18.713  0.00  0.00    +0.000 OA
BRANCH  20  24
ATOM     24  C   UNL     1      -0.878  11.825  21.132  0.00  0.00    +0.000 C 
BRANCH  24  25
ATOM     25  C   UNL     1      -2.146  12.251  21.839  0.00  0.00    +0.000 A 
ATOM     26  C   UNL     1      -3.210  12.804  21.104  0.00  0.00    +0.000 A 
ATOM     27  C   UNL     1      -4.403  13.157  21.736  0.00  0.00    +0.000 A 
ATOM     28  C   UNL     1      -4.551  12.957  23.107  0.00  0.00    +0.000 A 
ATOM     29  C   UNL     1      -3.504  12.412  23.848  0.00  0.00    +0.000 A 
ATOM     30  C   UNL     1      -2.305  12.063  23.217  0.00  0.00    +0.000 A 
ENDBRANCH  24  25
ENDBRANCH  20  24
ENDBRANCH   2  18
TORSDOF 5
ENDMDL
MODEL 6
REMARK VINA RESULT:      -8.6      1.249      1.756
REMARK  Name = 
REMARK  6 active torsions:
REMARK  status: ('A' for Active; 'I' for Inactive)
REMARK    1  A    between atoms: C_1  and  C_2
REMARK    2  A    between atoms: N_6  and  C_7
REMARK    3  A    between atoms: C_9  and  N_10
REMARK    4  A    between atoms: C_11  and  C_13
REMARK    5  A    between atoms: N_15  and  C_16
REMARK    6  A    between atoms: C_16  and  C_17
REMARK                            x       y       z     vdW  Elec       q    Type
REMARK                         _______ _______ _______ _____ _____    ______ ____
ROOT
ATOM      1  N   UNL     1       1.920   8.072  19.320  0.00  0.00    +0.000 N 
ATOM      2  C   UNL     1       1.449   8.481  20.559  0.00  0.00    +0.000 C 
ATOM      3  O   UNL     1       1.685   7.924  21.628  0.00  0.00    +0.000 OA
ATOM      4  H   UNL     1       1.746   8.727  18.559  0.00  0.00    +0.000 HD
ENDROOT
BRANCH   1   7
ATOM      5  C   UNL     1       4.445   5.712  17.872  0.00  0.00    +0.000 A 
ATOM      6  C   UNL     1       3.753   6.898  18.156  0.00  0.00    +0.000 A 
ATOM      7  C   UNL     1       2.673   6.911  19.051  0.00  0.00    +0.000 A 
ATOM      8  C   UNL     1       2.321   5.725  19.700  0.00  0.00    +0.000 A 
ATOM      9  C   UNL     1       2.993   4.534  19.404  0.00  0.00    +0.000 A 
ATOM     10  C   UNL     1       4.037   4.527  18.479  0.00  0.00    +0.000 A 
ATOM     11  F   UNL     1       4.670   3.368  18.257  0.00  0.00    +0.000 F 
BRANCH   5  17
ATOM     12  C   UNL     1       7.575   6.075  18.403  0.00  0.00    +0.000 C 
ATOM     13  C   UNL     1       6.855   6.007  17.112  0.00  0.00    +0.000 A 
ATOM     14  N   UNL     1       7.420   6.052  15.921  0.00  0.00    +0.000 NA
ATOM     15  N   UNL     1       6.450   5.713  15.022  0.00  0.00    +0.000 NA
ATOM     16  N   UNL     1       5.307   5.447  15.633  0.00  0.00    +0.000 NA
ATOM     17  N   UNL     1       5.507   5.711  16.944  0.00  0.00    +0.000 N 
ENDBRANCH   5  17
ENDBRANCH   1   7
BRANCH   2  18
ATOM     18  C   UNL     1       0.627   9.780  20.512  0.00  0.00    +0.000 C 
ATOM     19  C   UNL     1       0.555  10.244  19.042  0.00  0.00    +0.000 C 
ATOM     20  N   UNL     1      -0.212  11.496  18.838  0.00  0.00    +0.000 NA
ATOM     21  C   UNL     1       0.348  12.509  19.761  0.00  0.00    +0.000 C 
ATOM     22  C   UNL     1       0.442  12.031  21.226  0.00  0.00    +0.000 C 
ATOM     23  O   UNL     1       1.185  10.806  21.351  0.00  0.00    +0.000 OA
BRANCH  20  24
ATOM     24  C   UNL     1      -1.663  11.341  19.061  0.00  0.00    +0.000 C 
BRANCH  24  25
ATOM     25  C   UNL     1      -2.479  11.001  17.833  0.00  0.00    +0.000 A 
ATOM     26  C   UNL     1      -3.747  11.579  17.648  0.00  0.00    +0.000 A 
ATOM     27  C   UNL     1      -4.490  11.311  16.497  0.00  0.00    +0.000 A 
ATOM     28  C   UNL     1      -3.974  10.468  15.515  0.00  0.00    +0.000 A 
ATOM     29  C   UNL     1      -2.719   9.886  15.687  0.00  0.00    +0.000 A 
ATOM     30  C   UNL     1      -1.976  10.149  16.842  0.00  0.00    +0.000 A 
ENDBRANCH  24  25
ENDBRANCH  20  24
ENDBRANCH   2  18
TORSDOF 5
ENDMDL
MODEL 7
REMARK VINA RESULT:      -8.6      1.083      1.381
REMARK  Name = 
REMARK  6 active torsions:
REMARK  status: ('A' for Active; 'I' for Inactive)
REMARK    1  A    between atoms: C_1  and  C_2
REMARK    2  A    between atoms: N_6  and  C_7
REMARK    3  A    between atoms: C_9  and  N_10
REMARK    4  A    between atoms: C_11  and  C_13
REMARK    5  A    between atoms: N_15  and  C_16
REMARK    6  A    between atoms: C_16  and  C_17
REMARK                            x       y       z     vdW  Elec       q    Type
REMARK                         _______ _______ _______ _____ _____    ______ ____
ROOT
ATOM      1  N   UNL     1       1.834   7.788  18.952  0.00  0.00    +0.000 N 
ATOM      2  C   UNL     1       1.593   8.218  20.248  0.00  0.00    +0.000 C 
ATOM      3  O   UNL     1       2.034   7.690  21.266  0.00  0.00    +0.000 OA
ATOM      4  H   UNL     1       1.509   8.422  18.224  0.00  0.00    +0.000 HD
ENDROOT
BRANCH   1   7
ATOM      5  C   UNL     1       4.381   5.515  17.404  0.00  0.00    +0.000 A 
ATOM      6  C   UNL     1       3.726   6.687  17.811  0.00  0.00    +0.000 A 
ATOM      7  C   UNL     1       2.549   6.634  18.571  0.00  0.00    +0.000 A 
ATOM      8  C   UNL     1       2.057   5.387  18.965  0.00  0.00    +0.000 A 
ATOM      9  C   UNL     1       2.693   4.214  18.543  0.00  0.00    +0.000 A 
ATOM     10  C   UNL     1       3.838   4.281  17.751  0.00  0.00    +0.000 A 
ATOM     11  F   UNL     1       4.428   3.130  17.402  0.00  0.00    +0.000 F 
BRANCH   5  17
ATOM     12  C   UNL     1       7.400   6.036  18.314  0.00  0.00    +0.000 C 
ATOM     13  C   UNL     1       6.844   5.952  16.944  0.00  0.00    +0.000 A 
ATOM     14  N   UNL     1       7.545   6.048  15.831  0.00  0.00    +0.000 NA
ATOM     15  N   UNL     1       6.710   5.674  14.817  0.00  0.00    +0.000 NA
ATOM     16  N   UNL     1       5.518   5.336  15.283  0.00  0.00    +0.000 NA
ATOM     17  N   UNL     1       5.545   5.588  16.611  0.00  0.00    +0.000 N 
ENDBRANCH   5  17
ENDBRANCH   1   7
BRANCH   2  18
ATOM     18  C   UNL     1       0.749   9.501  20.329  0.00  0.00    +0.000 C 
ATOM     19  C   UNL     1       0.658  10.099  18.909  0.00  0.00    +0.000 C 
ATOM     20  N   UNL     1      -0.132  11.352  18.829  0.00  0.00    +0.000 NA
ATOM     21  C   UNL     1       0.419  12.283  19.840  0.00  0.00    +0.000 C 
ATOM     22  C   UNL     1       0.532  11.671  21.253  0.00  0.00    +0.000 C 
ATOM     23  O   UNL     1       1.296  10.453  21.258  0.00  0.00    +0.000 OA
BRANCH  20  24
ATOM     24  C   UNL     1      -1.578  11.152  19.045  0.00  0.00    +0.000 C 
BRANCH  24  25
ATOM     25  C   UNL     1      -2.403  10.954  17.792  0.00  0.00    +0.000 A 
ATOM     26  C   UNL     1      -1.942  10.104  16.772  0.00  0.00    +0.000 A 
ATOM     27  C   UNL     1      -2.716   9.875  15.633  0.00  0.00    +0.000 A 
ATOM     28  C   UNL     1      -3.961  10.487  15.501  0.00  0.00    +0.000 A 
ATOM     29  C   UNL     1      -4.430  11.334  16.505  0.00  0.00    +0.000 A 
ATOM     30  C   UNL     1      -3.653  11.569  17.644  0.00  0.00    +0.000 A 
ENDBRANCH  24  25
ENDBRANCH  20  24
ENDBRANCH   2  18
TORSDOF 5
ENDMDL
MODEL 8
REMARK VINA RESULT:      -8.5      2.303      3.584
REMARK  Name = 
REMARK  6 active torsions:
REMARK  status: ('A' for Active; 'I' for Inactive)
REMARK    1  A    between atoms: C_1  and  C_2
REMARK    2  A    between atoms: N_6  and  C_7
REMARK    3  A    between atoms: C_9  and  N_10
REMARK    4  A    between atoms: C_11  and  C_13
REMARK    5  A    between atoms: N_15  and  C_16
REMARK    6  A    between atoms: C_16  and  C_17
REMARK                            x       y       z     vdW  Elec       q    Type
REMARK                         _______ _______ _______ _____ _____    ______ ____
ROOT
ATOM      1  N   UNL     1       2.269   7.856  19.181  0.00  0.00    +0.000 N 
ATOM      2  C   UNL     1       1.912   8.925  18.371  0.00  0.00    +0.000 C 
ATOM      3  O   UNL     1       1.900   8.912  17.142  0.00  0.00    +0.000 OA
ATOM      4  H   UNL     1       2.087   7.994  20.173  0.00  0.00    +0.000 HD
ENDROOT
BRANCH   1   7
ATOM      5  C   UNL     1       4.548   5.139  17.971  0.00  0.00    +0.000 A 
ATOM      6  C   UNL     1       4.108   6.381  18.449  0.00  0.00    +0.000 A 
ATOM      7  C   UNL     1       2.757   6.606  18.751  0.00  0.00    +0.000 A 
ATOM      8  C   UNL     1       1.852   5.550  18.615  0.00  0.00    +0.000 A 
ATOM      9  C   UNL     1       2.281   4.314  18.118  0.00  0.00    +0.000 A 
ATOM     10  C   UNL     1       3.620   4.119  17.781  0.00  0.00    +0.000 A 
ATOM     11  F   UNL     1       3.986   2.907  17.341  0.00  0.00    +0.000 F 
BRANCH   5  17
ATOM     12  C   UNL     1       5.949   5.227  15.100  0.00  0.00    +0.000 C 
ATOM     13  C   UNL     1       6.528   4.830  16.404  0.00  0.00    +0.000 A 
ATOM     14  N   UNL     1       7.781   4.467  16.602  0.00  0.00    +0.000 NA
ATOM     15  N   UNL     1       7.959   4.427  17.956  0.00  0.00    +0.000 NA
ATOM     16  N   UNL     1       6.851   4.770  18.592  0.00  0.00    +0.000 NA
ATOM     17  N   UNL     1       5.906   4.942  17.641  0.00  0.00    +0.000 N 
ENDBRANCH   5  17
ENDBRANCH   1   7
BRANCH   2  18
ATOM     18  C   UNL     1       1.448  10.166  19.151  0.00  0.00    +0.000 C 
ATOM     19  C   UNL     1      -0.073  10.039  19.384  0.00  0.00    +0.000 C 
ATOM     20  N   UNL     1      -0.668  11.173  20.130  0.00  0.00    +0.000 NA
ATOM     21  C   UNL     1      -0.269  12.416  19.431  0.00  0.00    +0.000 C 
ATOM     22  C   UNL     1       1.249  12.526  19.177  0.00  0.00    +0.000 C 
ATOM     23  O   UNL     1       1.765  11.389  18.464  0.00  0.00    +0.000 OA
BRANCH  20  24
ATOM     24  C   UNL     1      -0.262  11.225  21.548  0.00  0.00    +0.000 C 
BRANCH  24  25
ATOM     25  C   UNL     1      -1.097  12.123  22.434  0.00  0.00    +0.000 A 
ATOM     26  C   UNL     1      -0.627  13.401  22.784  0.00  0.00    +0.000 A 
ATOM     27  C   UNL     1      -1.409  14.257  23.561  0.00  0.00    +0.000 A 
ATOM     28  C   UNL     1      -2.669  13.851  23.994  0.00  0.00    +0.000 A 
ATOM     29  C   UNL     1      -3.146  12.585  23.656  0.00  0.00    +0.000 A 
ATOM     30  C   UNL     1      -2.363  11.724  22.882  0.00  0.00    +0.000 A 
ENDBRANCH  24  25
ENDBRANCH  20  24
ENDBRANCH   2  18
TORSDOF 5
ENDMDL
MODEL 9
REMARK VINA RESULT:      -8.5      6.495      9.065
REMARK  Name = 
REMARK  6 active torsions:
REMARK  status: ('A' for Active; 'I' for Inactive)
REMARK    1  A    between atoms: C_1  and  C_2
REMARK    2  A    between atoms: N_6  and  C_7
REMARK    3  A    between atoms: C_9  and  N_10
REMARK    4  A    between atoms: C_11  and  C_13
REMARK    5  A    between atoms: N_15  and  C_16
REMARK    6  A    between atoms: C_16  and  C_17
REMARK                            x       y       z     vdW  Elec       q    Type
REMARK                         _______ _______ _______ _____ _____    ______ ____
ROOT
ATOM      1  N   UNL     1       7.973   8.904  17.901  0.00  0.00    +0.000 N 
ATOM      2  C   UNL     1       7.968   7.546  18.184  0.00  0.00    +0.000 C 
ATOM      3  O   UNL     1       8.592   7.008  19.096  0.00  0.00    +0.000 OA
ATOM      4  H   UNL     1       7.292   9.196  17.202  0.00  0.00    +0.000 HD
ENDROOT
BRANCH   1   7
ATOM      5  C   UNL     1      10.206  11.851  18.510  0.00  0.00    +0.000 A 
ATOM      6  C   UNL     1       9.398  10.918  17.843  0.00  0.00    +0.000 A 
ATOM      7  C   UNL     1       8.747   9.891  18.542  0.00  0.00    +0.000 A 
ATOM      8  C   UNL     1       8.876   9.837  19.933  0.00  0.00    +0.000 A 
ATOM      9  C   UNL     1       9.698  10.751  20.600  0.00  0.00    +0.000 A 
ATOM     10  C   UNL     1      10.373  11.740  19.887  0.00  0.00    +0.000 A 
ATOM     11  F   UNL     1      11.121  12.611  20.578  0.00  0.00    +0.000 F 
BRANCH   5  17
ATOM     12  C   UNL     1       9.415  14.925  18.132  0.00  0.00    +0.000 C 
ATOM     13  C   UNL     1      10.500  14.157  17.477  0.00  0.00    +0.000 A 
ATOM     14  N   UNL     1      11.373  14.653  16.623  0.00  0.00    +0.000 NA
ATOM     15  N   UNL     1      12.333  13.695  16.456  0.00  0.00    +0.000 NA
ATOM     16  N   UNL     1      12.076  12.630  17.198  0.00  0.00    +0.000 NA
ATOM     17  N   UNL     1      10.880  12.857  17.785  0.00  0.00    +0.000 N 
ENDBRANCH   5  17
ENDBRANCH   1   7
BRANCH   2  18
ATOM     18  C   UNL     1       7.034   6.726  17.278  0.00  0.00    +0.000 C 
ATOM     19  C   UNL     1       6.524   5.518  18.092  0.00  0.00    +0.000 C 
ATOM     20  N   UNL     1       5.605   4.628  17.342  0.00  0.00    +0.000 NA
ATOM     21  C   UNL     1       6.284   4.259  16.080  0.00  0.00    +0.000 C 
ATOM     22  C   UNL     1       6.815   5.469  15.283  0.00  0.00    +0.000 C 
ATOM     23  O   UNL     1       7.687   6.298  16.071  0.00  0.00    +0.000 OA
BRANCH  20  24
ATOM     24  C   UNL     1       4.290   5.238  17.063  0.00  0.00    +0.000 C 
BRANCH  24  25
ATOM     25  C   UNL     1       3.152   4.769  17.943  0.00  0.00    +0.000 A 
ATOM     26  C   UNL     1       2.416   3.625  17.591  0.00  0.00    +0.000 A 
ATOM     27  C   UNL     1       1.395   3.154  18.418  0.00  0.00    +0.000 A 
ATOM     28  C   UNL     1       1.101   3.817  19.608  0.00  0.00    +0.000 A 
ATOM     29  C   UNL     1       1.822   4.954  19.968  0.00  0.00    +0.000 A 
ATOM     30  C   UNL     1       2.841   5.430  19.138  0.00  0.00    +0.000 A 
ENDBRANCH  24  25
ENDBRANCH  20  24
ENDBRANCH   2  18
TORSDOF 5
ENDMDL
