MODEL 1
REMARK VINA RESULT:      -8.5      0.000      0.000
REMARK  Name = 
REMARK  7 active torsions:
REMARK  status: ('A' for Active; 'I' for Inactive)
REMARK    1  A    between atoms: C_1  and  N_2
REMARK    2  A    between atoms: C_6  and  C_7
REMARK    3  A    between atoms: C_7  and  C_8
REMARK    4  A    between atoms: C_8  and  C_9
REMARK    5  A    between atoms: N_13  and  C_14
REMARK    6  A    between atoms: C_18  and  C_19
REMARK    7  A    between atoms: N_25  and  C_26
REMARK                            x       y       z     vdW  Elec       q    Type
REMARK                         _______ _______ _______ _____ _____    ______ ____
ROOT
ATOM      1  C   UNL     1       1.809   7.284  20.081  0.00  0.00    +0.000 A 
ATOM      2  C   UNL     1       2.713   7.527  19.045  0.00  0.00    +0.000 A 
ATOM      3  C   UNL     1       3.205   6.448  18.353  0.00  0.00    +0.000 A 
ATOM      4  C   UNL     1       2.865   5.133  18.650  0.00  0.00    +0.000 A 
ATOM      5  C   UNL     1       1.998   4.858  19.701  0.00  0.00    +0.000 A 
ATOM      6  C   UNL     1       1.481   5.956  20.425  0.00  0.00    +0.000 A 
ATOM      7  C   UNL     1       3.587   4.213  17.713  0.00  0.00    +0.000 C 
ATOM      8  N   UNL     1       4.376   5.123  16.904  0.00  0.00    +0.000 N 
ATOM      9  C   UNL     1       4.176   6.451  17.249  0.00  0.00    +0.000 C 
ATOM     10  O   UNL     1       4.684   7.469  16.800  0.00  0.00    +0.000 OA
ENDROOT
BRANCH   1  15
ATOM     11  C   UNL     1       0.686   9.555  20.278  0.00  0.00    +0.000 A 
ATOM     12  C   UNL     1       0.244  10.310  21.355  0.00  0.00    +0.000 A 
ATOM     13  C   UNL     1       0.468   9.579  22.539  0.00  0.00    +0.000 A 
ATOM     14  C   UNL     1       1.035   8.385  22.170  0.00  0.00    +0.000 A 
ATOM     15  N   UNL     1       1.216   8.368  20.798  0.00  0.00    +0.000 N 
BRANCH  11  16
ATOM     16  C   UNL     1       0.543   9.818  18.791  0.00  0.00    +0.000 C 
BRANCH  16  17
ATOM     17  C   UNL     1      -0.236  11.071  18.407  0.00  0.00    +0.000 C 
BRANCH  17  23
ATOM     18  C   UNL     1      -3.056  12.206  19.462  0.00  0.00    +0.000 C 
ATOM     19  N   UNL     1      -2.812  11.239  18.424  0.00  0.00    +0.000 N 
ATOM     20  C   UNL     1      -3.799  10.606  17.725  0.00  0.00    +0.000 A 
ATOM     21  N   UNL     1      -3.262   9.797  16.845  0.00  0.00    +0.000 NA
ATOM     22  N   UNL     1      -1.903   9.897  16.968  0.00  0.00    +0.000 NA
ATOM     23  C   UNL     1      -1.622  10.755  17.931  0.00  0.00    +0.000 A 
ENDBRANCH  17  23
ENDBRANCH  16  17
ENDBRANCH  11  16
ENDBRANCH   1  15
BRANCH   5  24
ATOM     24  C   UNL     1       1.601   3.458  20.083  0.00  0.00    +0.000 C 
ATOM     25  F   UNL     1       2.660   2.624  20.275  0.00  0.00    +0.000 F 
ATOM     26  F   UNL     1       0.886   3.423  21.239  0.00  0.00    +0.000 F 
ATOM     27  F   UNL     1       0.823   2.862  19.140  0.00  0.00    +0.000 F 
ENDBRANCH   5  24
BRANCH   8  28
ATOM     28  C   UNL     1       5.297   4.693  15.964  0.00  0.00    +0.000 C 
ATOM     29  C   UNL     1       5.229   4.437  14.643  0.00  0.00    +0.000 C 
ATOM     30  C   UNL     1       6.681   4.039  14.537  0.00  0.00    +0.000 C 
ATOM     31  C   UNL     1       6.759   4.282  16.054  0.00  0.00    +0.000 C 
ENDBRANCH   8  28
TORSDOF 6
ENDMDL
MODEL 2
REMARK VINA RESULT:      -8.4      0.566      1.278
REMARK  Name = 
REMARK  7 active torsions:
REMARK  status: ('A' for Active; 'I' for Inactive)
REMARK    1  A    between atoms: C_1  and  N_2
REMARK    2  A    between atoms: C_6  and  C_7
REMARK    3  A    between atoms: C_7  and  C_8
REMARK    4  A    between atoms: C_8  and  C_9
REMARK    5  A    between atoms: N_13  and  C_14
REMARK    6  A    between atoms: C_18  and  C_19
REMARK    7  A    between atoms: N_25  and  C_26
REMARK                            x       y       z     vdW  Elec       q    Type
REMARK                         _______ _______ _______ _____ _____    ______ ____
ROOT
ATOM      1  C   UNL     1       1.794   7.360  20.101  0.00  0.00    +0.000 A 
ATOM      2  C   UNL     1       2.685   7.602  19.055  0.00  0.00    +0.000 A 
ATOM      3  C   UNL     1       3.192   6.519  18.378  0.00  0.00    +0.000 A 
ATOM      4  C   UNL     1       2.879   5.204  18.701  0.00  0.00    +0.000 A 
ATOM      5  C   UNL     1       2.026   4.932  19.764  0.00  0.00    +0.000 A 
ATOM      6  C   UNL     1       1.493   6.033  20.472  0.00  0.00    +0.000 A 
ATOM      7  C   UNL     1       3.612   4.282  17.775  0.00  0.00    +0.000 C 
ATOM      8  N   UNL     1       4.377   5.192  16.943  0.00  0.00    +0.000 N 
ATOM      9  C   UNL     1       4.154   6.521  17.266  0.00  0.00    +0.000 C 
ATOM     10  O   UNL     1       4.639   7.541  16.795  0.00  0.00    +0.000 OA
ENDROOT
BRANCH   1  15
ATOM     11  C   UNL     1       0.469   9.523  20.269  0.00  0.00    +0.000 A 
ATOM     12  C   UNL     1       0.092  10.330  21.332  0.00  0.00    +0.000 A 
ATOM     13  C   UNL     1       0.543   9.738  22.529  0.00  0.00    +0.000 A 
ATOM     14  C   UNL     1       1.182   8.574  22.182  0.00  0.00    +0.000 A 
ATOM     15  N   UNL     1       1.186   8.446  20.804  0.00  0.00    +0.000 N 
BRANCH  11  16
ATOM     16  C   UNL     1       0.109   9.630  18.800  0.00  0.00    +0.000 C 
BRANCH  16  17
ATOM     17  C   UNL     1      -0.302  11.016  18.313  0.00  0.00    +0.000 C 
BRANCH  17  23
ATOM     18  C   UNL     1      -2.500   9.987  16.200  0.00  0.00    +0.000 C 
ATOM     19  N   UNL     1      -2.701  10.772  17.390  0.00  0.00    +0.000 N 
ATOM     20  C   UNL     1      -3.915  11.247  17.794  0.00  0.00    +0.000 A 
ATOM     21  N   UNL     1      -3.774  11.912  18.913  0.00  0.00    +0.000 NA
ATOM     22  N   UNL     1      -2.448  11.877  19.250  0.00  0.00    +0.000 NA
ATOM     23  C   UNL     1      -1.790  11.204  18.326  0.00  0.00    +0.000 A 
ENDBRANCH  17  23
ENDBRANCH  16  17
ENDBRANCH  11  16
ENDBRANCH   1  15
BRANCH   5  24
ATOM     24  C   UNL     1       1.658   3.532  20.173  0.00  0.00    +0.000 C 
ATOM     25  F   UNL     1       0.957   2.853  19.223  0.00  0.00    +0.000 F 
ATOM     26  F   UNL     1       2.752   2.770  20.441  0.00  0.00    +0.000 F 
ATOM     27  F   UNL     1       0.891   3.501  21.296  0.00  0.00    +0.000 F 
ENDBRANCH   5  24
BRANCH   8  28
ATOM     28  C   UNL     1       5.298   4.762  16.004  0.00  0.00    +0.000 C 
ATOM     29  C   UNL     1       5.214   4.430  14.701  0.00  0.00    +0.000 C 
ATOM     30  C   UNL     1       6.683   4.109  14.578  0.00  0.00    +0.000 C 
ATOM     31  C   UNL     1       6.783   4.440  16.076  0.00  0.00    +0.000 C 
ENDBRANCH   8  28
TORSDOF 6
ENDMDL
MODEL 3
REMARK VINA RESULT:      -8.3      3.251      5.043
REMARK  Name = 
REMARK  7 active torsions:
REMARK  status: ('A' for Active; 'I' for Inactive)
REMARK    1  A    between atoms: C_1  and  N_2
REMARK    2  A    between atoms: C_6  and  C_7
REMARK    3  A    between atoms: C_7  and  C_8
REMARK    4  A    between atoms: C_8  and  C_9
REMARK    5  A    between atoms: N_13  and  C_14
REMARK    6  A    between atoms: C_18  and  C_19
REMARK    7  A    between atoms: N_25  and  C_26
REMARK                            x       y       z     vdW  Elec       q    Type
REMARK                         _______ _______ _______ _____ _____    ______ ____
ROOT
ATOM      1  C   UNL     1       4.288   4.114  18.910  0.00  0.00    +0.000 A 
ATOM      2  C   UNL     1       4.151   3.879  17.541  0.00  0.00    +0.000 A 
ATOM      3  C   UNL     1       5.214   4.182  16.725  0.00  0.00    +0.000 A 
ATOM      4  C   UNL     1       6.401   4.731  17.195  0.00  0.00    +0.000 A 
ATOM      5  C   UNL     1       6.552   5.012  18.548  0.00  0.00    +0.000 A 
ATOM      6  C   UNL     1       5.469   4.706  19.403  0.00  0.00    +0.000 A 
ATOM      7  C   UNL     1       7.335   4.944  16.043  0.00  0.00    +0.000 C 
ATOM      8  N   UNL     1       6.554   4.504  14.902  0.00  0.00    +0.000 N 
ATOM      9  C   UNL     1       5.297   4.044  15.264  0.00  0.00    +0.000 C 
ATOM     10  O   UNL     1       4.380   3.624  14.573  0.00  0.00    +0.000 OA
ENDROOT
BRANCH   1  15
ATOM     11  C   UNL     1       2.093   4.502  20.131  0.00  0.00    +0.000 A 
ATOM     12  C   UNL     1       1.382   3.771  21.072  0.00  0.00    +0.000 A 
ATOM     13  C   UNL     1       2.070   2.565  21.317  0.00  0.00    +0.000 A 
ATOM     14  C   UNL     1       3.184   2.571  20.516  0.00  0.00    +0.000 A 
ATOM     15  N   UNL     1       3.240   3.764  19.816  0.00  0.00    +0.000 N 
BRANCH  11  16
ATOM     16  C   UNL     1       1.716   5.789  19.422  0.00  0.00    +0.000 C 
BRANCH  16  17
ATOM     17  C   UNL     1       2.164   7.080  20.100  0.00  0.00    +0.000 C 
BRANCH  17  23
ATOM     18  C   UNL     1       0.341   9.672  20.658  0.00  0.00    +0.000 C 
ATOM     19  N   UNL     1       1.128   9.365  19.493  0.00  0.00    +0.000 N 
ATOM     20  C   UNL     1       1.189  10.159  18.384  0.00  0.00    +0.000 A 
ATOM     21  N   UNL     1       1.995   9.619  17.503  0.00  0.00    +0.000 NA
ATOM     22  N   UNL     1       2.469   8.452  18.039  0.00  0.00    +0.000 NA
ATOM     23  C   UNL     1       1.938   8.283  19.235  0.00  0.00    +0.000 A 
ENDBRANCH  17  23
ENDBRANCH  16  17
ENDBRANCH  11  16
ENDBRANCH   1  15
BRANCH   5  24
ATOM     24  C   UNL     1       7.806   5.618  19.118  0.00  0.00    +0.000 C 
ATOM     25  F   UNL     1       8.905   4.827  18.978  0.00  0.00    +0.000 F 
ATOM     26  F   UNL     1       8.121   6.801  18.524  0.00  0.00    +0.000 F 
ATOM     27  F   UNL     1       7.700   5.880  20.449  0.00  0.00    +0.000 F 
ENDBRANCH   5  24
BRANCH   8  28
ATOM     28  C   UNL     1       6.990   4.630  13.594  0.00  0.00    +0.000 C 
ATOM     29  C   UNL     1       6.710   3.974  12.452  0.00  0.00    +0.000 C 
ATOM     30  C   UNL     1       7.647   4.810  11.616  0.00  0.00    +0.000 C 
ATOM     31  C   UNL     1       8.012   5.535  12.923  0.00  0.00    +0.000 C 
ENDBRANCH   8  28
TORSDOF 6
ENDMDL
MODEL 4
REMARK VINA RESULT:      -8.2      3.264      5.146
REMARK  Name = 
REMARK  7 active torsions:
REMARK  status: ('A' for Active; 'I' for Inactive)
REMARK    1  A    between atoms: C_1  and  N_2
REMARK    2  A    between atoms: C_6  and  C_7
REMARK    3  A    between atoms: C_7  and  C_8
REMARK    4  A    between atoms: C_8  and  C_9
REMARK    5  A    between atoms: N_13  and  C_14
REMARK    6  A    between atoms: C_18  and  C_19
REMARK    7  A    between atoms: N_25  and  C_26
REMARK                            x       y       z     vdW  Elec       q    Type
REMARK                         _______ _______ _______ _____ _____    ______ ____
ROOT
ATOM      1  C   UNL     1       4.257   4.096  18.850  0.00  0.00    +0.000 A 
ATOM      2  C   UNL     1       4.132   3.879  17.477  0.00  0.00    +0.000 A 
ATOM      3  C   UNL     1       5.209   4.173  16.676  0.00  0.00    +0.000 A 
ATOM      4  C   UNL     1       6.400   4.696  17.165  0.00  0.00    +0.000 A 
ATOM      5  C   UNL     1       6.541   4.960  18.523  0.00  0.00    +0.000 A 
ATOM      6  C   UNL     1       5.443   4.663  19.363  0.00  0.00    +0.000 A 
ATOM      7  C   UNL     1       7.350   4.906  16.026  0.00  0.00    +0.000 C 
ATOM      8  N   UNL     1       6.574   4.493  14.871  0.00  0.00    +0.000 N 
ATOM      9  C   UNL     1       5.306   4.050  15.215  0.00  0.00    +0.000 C 
ATOM     10  O   UNL     1       4.389   3.654  14.508  0.00  0.00    +0.000 OA
ENDROOT
BRANCH   1  15
ATOM     11  C   UNL     1       2.040   4.494  20.026  0.00  0.00    +0.000 A 
ATOM     12  C   UNL     1       1.314   3.771  20.962  0.00  0.00    +0.000 A 
ATOM     13  C   UNL     1       1.999   2.569  21.233  0.00  0.00    +0.000 A 
ATOM     14  C   UNL     1       3.128   2.569  20.452  0.00  0.00    +0.000 A 
ATOM     15  N   UNL     1       3.194   3.754  19.741  0.00  0.00    +0.000 N 
BRANCH  11  16
ATOM     16  C   UNL     1       1.673   5.772  19.296  0.00  0.00    +0.000 C 
BRANCH  16  17
ATOM     17  C   UNL     1       2.483   7.009  19.670  0.00  0.00    +0.000 C 
BRANCH  17  23
ATOM     18  C   UNL     1       1.605   9.567  17.928  0.00  0.00    +0.000 C 
ATOM     19  N   UNL     1       1.274   9.259  19.294  0.00  0.00    +0.000 N 
ATOM     20  C   UNL     1       0.528  10.070  20.100  0.00  0.00    +0.000 A 
ATOM     21  N   UNL     1       0.391   9.511  21.277  0.00  0.00    +0.000 NA
ATOM     22  N   UNL     1       1.059   8.317  21.247  0.00  0.00    +0.000 NA
ATOM     23  C   UNL     1       1.609   8.164  20.057  0.00  0.00    +0.000 A 
ENDBRANCH  17  23
ENDBRANCH  16  17
ENDBRANCH  11  16
ENDBRANCH   1  15
BRANCH   5  24
ATOM     24  C   UNL     1       7.798   5.537  19.113  0.00  0.00    +0.000 C 
ATOM     25  F   UNL     1       7.718   5.762  20.453  0.00  0.00    +0.000 F 
ATOM     26  F   UNL     1       8.871   4.719  18.938  0.00  0.00    +0.000 F 
ATOM     27  F   UNL     1       8.138   6.730  18.553  0.00  0.00    +0.000 F 
ENDBRANCH   5  24
BRANCH   8  28
ATOM     28  C   UNL     1       7.027   4.625  13.570  0.00  0.00    +0.000 C 
ATOM     29  C   UNL     1       7.877   5.475  12.962  0.00  0.00    +0.000 C 
ATOM     30  C   UNL     1       7.715   4.835  11.605  0.00  0.00    +0.000 C 
ATOM     31  C   UNL     1       6.706   3.889  12.278  0.00  0.00    +0.000 C 
ENDBRANCH   8  28
TORSDOF 6
ENDMDL
MODEL 5
REMARK VINA RESULT:      -8.1      3.984      8.828
REMARK  Name = 
REMARK  7 active torsions:
REMARK  status: ('A' for Active; 'I' for Inactive)
REMARK    1  A    between atoms: C_1  and  N_2
REMARK    2  A    between atoms: C_6  and  C_7
REMARK    3  A    between atoms: C_7  and  C_8
REMARK    4  A    between atoms: C_8  and  C_9
REMARK    5  A    between atoms: N_13  and  C_14
REMARK    6  A    between atoms: C_18  and  C_19
REMARK    7  A    between atoms: N_25  and  C_26
REMARK                            x       y       z     vdW  Elec       q    Type
REMARK                         _______ _______ _______ _____ _____    ______ ____
ROOT
ATOM      1  C   UNL     1       1.083   8.966  19.114  0.00  0.00    +0.000 A 
ATOM      2  C   UNL     1       0.972   9.410  20.433  0.00  0.00    +0.000 A 
ATOM      3  C   UNL     1      -0.073  10.245  20.747  0.00  0.00    +0.000 A 
ATOM      4  C   UNL     1      -1.004  10.683  19.813  0.00  0.00    +0.000 A 
ATOM      5  C   UNL     1      -0.897  10.289  18.484  0.00  0.00    +0.000 A 
ATOM      6  C   UNL     1       0.172   9.430  18.142  0.00  0.00    +0.000 A 
ATOM      7  C   UNL     1      -1.993  11.583  20.488  0.00  0.00    +0.000 C 
ATOM      8  N   UNL     1      -1.510  11.633  21.856  0.00  0.00    +0.000 N 
ATOM      9  C   UNL     1      -0.381  10.854  22.049  0.00  0.00    +0.000 C 
ATOM     10  O   UNL     1       0.297  10.679  23.053  0.00  0.00    +0.000 OA
ENDROOT
BRANCH   1  15
ATOM     11  C   UNL     1       2.434   6.826  19.338  0.00  0.00    +0.000 A 
ATOM     12  C   UNL     1       3.515   6.304  18.643  0.00  0.00    +0.000 A 
ATOM     13  C   UNL     1       3.844   7.185  17.593  0.00  0.00    +0.000 A 
ATOM     14  C   UNL     1       2.954   8.228  17.655  0.00  0.00    +0.000 A 
ATOM     15  N   UNL     1       2.113   8.050  18.739  0.00  0.00    +0.000 N 
BRANCH  11  16
ATOM     16  C   UNL     1       1.611   6.206  20.450  0.00  0.00    +0.000 C 
BRANCH  16  17
ATOM     17  C   UNL     1       2.103   4.860  20.974  0.00  0.00    +0.000 C 
BRANCH  17  23
ATOM     18  C   UNL     1       4.144   2.685  19.769  0.00  0.00    +0.000 C 
ATOM     19  N   UNL     1       2.741   2.845  19.492  0.00  0.00    +0.000 N 
ATOM     20  C   UNL     1       2.047   2.076  18.603  0.00  0.00    +0.000 A 
ATOM     21  N   UNL     1       0.793   2.456  18.582  0.00  0.00    +0.000 NA
ATOM     22  N   UNL     1       0.661   3.492  19.466  0.00  0.00    +0.000 NA
ATOM     23  C   UNL     1       1.837   3.744  20.009  0.00  0.00    +0.000 A 
ENDBRANCH  17  23
ENDBRANCH  16  17
ENDBRANCH  11  16
ENDBRANCH   1  15
BRANCH   5  24
ATOM     24  C   UNL     1      -1.864  10.738  17.423  0.00  0.00    +0.000 C 
ATOM     25  F   UNL     1      -3.170  10.571  17.769  0.00  0.00    +0.000 F 
ATOM     26  F   UNL     1      -1.724  12.058  17.125  0.00  0.00    +0.000 F 
ATOM     27  F   UNL     1      -1.700  10.067  16.250  0.00  0.00    +0.000 F 
ENDBRANCH   5  24
BRANCH   8  28
ATOM     28  C   UNL     1      -2.068  12.452  22.824  0.00  0.00    +0.000 C 
ATOM     29  C   UNL     1      -3.233  12.435  23.499  0.00  0.00    +0.000 C 
ATOM     30  C   UNL     1      -2.919  13.684  24.284  0.00  0.00    +0.000 C 
ATOM     31  C   UNL     1      -1.606  13.741  23.485  0.00  0.00    +0.000 C 
ENDBRANCH   8  28
TORSDOF 6
ENDMDL
MODEL 6
REMARK VINA RESULT:      -8.1      1.890      2.432
REMARK  Name = 
REMARK  7 active torsions:
REMARK  status: ('A' for Active; 'I' for Inactive)
REMARK    1  A    between atoms: C_1  and  N_2
REMARK    2  A    between atoms: C_6  and  C_7
REMARK    3  A    between atoms: C_7  and  C_8
REMARK    4  A    between atoms: C_8  and  C_9
REMARK    5  A    between atoms: N_13  and  C_14
REMARK    6  A    between atoms: C_18  and  C_19
REMARK    7  A    between atoms: N_25  and  C_26
REMARK                            x       y       z     vdW  Elec       q    Type
REMARK                         _______ _______ _______ _____ _____    ______ ____
ROOT
ATOM      1  C   UNL     1       1.786   7.275  20.121  0.00  0.00    +0.000 A 
ATOM      2  C   UNL     1       2.701   7.530  19.099  0.00  0.00    +0.000 A 
ATOM      3  C   UNL     1       3.192   6.459  18.391  0.00  0.00    +0.000 A 
ATOM      4  C   UNL     1       2.838   5.142  18.660  0.00  0.00    +0.000 A 
ATOM      5  C   UNL     1       1.959   4.855  19.698  0.00  0.00    +0.000 A 
ATOM      6  C   UNL     1       1.443   5.944  20.437  0.00  0.00    +0.000 A 
ATOM      7  C   UNL     1       3.562   4.234  17.713  0.00  0.00    +0.000 C 
ATOM      8  N   UNL     1       4.365   5.153  16.928  0.00  0.00    +0.000 N 
ATOM      9  C   UNL     1       4.172   6.475  17.296  0.00  0.00    +0.000 C 
ATOM     10  O   UNL     1       4.692   7.497  16.871  0.00  0.00    +0.000 OA
ENDROOT
BRANCH   1  15
ATOM     11  C   UNL     1       0.712   9.567  20.354  0.00  0.00    +0.000 A 
ATOM     12  C   UNL     1       0.251  10.298  21.439  0.00  0.00    +0.000 A 
ATOM     13  C   UNL     1       0.416   9.524  22.606  0.00  0.00    +0.000 A 
ATOM     14  C   UNL     1       0.966   8.329  22.217  0.00  0.00    +0.000 A 
ATOM     15  N   UNL     1       1.195   8.350  20.853  0.00  0.00    +0.000 N 
BRANCH  11  16
ATOM     16  C   UNL     1       0.627   9.880  18.873  0.00  0.00    +0.000 C 
BRANCH  16  17
ATOM     17  C   UNL     1       0.036  11.238  18.511  0.00  0.00    +0.000 C 
BRANCH  17  23
ATOM     18  C   UNL     1      -0.331  14.376  19.119  0.00  0.00    +0.000 C 
ATOM     19  N   UNL     1       0.870  13.668  18.762  0.00  0.00    +0.000 N 
ATOM     20  C   UNL     1       2.085  14.267  18.588  0.00  0.00    +0.000 A 
ATOM     21  N   UNL     1       2.979  13.360  18.280  0.00  0.00    +0.000 NA
ATOM     22  N   UNL     1       2.344  12.148  18.249  0.00  0.00    +0.000 NA
ATOM     23  C   UNL     1       1.066  12.327  18.523  0.00  0.00    +0.000 A 
ENDBRANCH  17  23
ENDBRANCH  16  17
ENDBRANCH  11  16
ENDBRANCH   1  15
BRANCH   5  24
ATOM     24  C   UNL     1       1.547   3.451  20.050  0.00  0.00    +0.000 C 
ATOM     25  F   UNL     1       0.843   3.365  21.212  0.00  0.00    +0.000 F 
ATOM     26  F   UNL     1       0.756   2.893  19.094  0.00  0.00    +0.000 F 
ATOM     27  F   UNL     1       2.611   2.616  20.195  0.00  0.00    +0.000 F 
ENDBRANCH   5  24
BRANCH   8  28
ATOM     28  C   UNL     1       5.291   4.732  15.989  0.00  0.00    +0.000 C 
ATOM     29  C   UNL     1       5.218   4.434  14.678  0.00  0.00    +0.000 C 
ATOM     30  C   UNL     1       6.683   4.093  14.563  0.00  0.00    +0.000 C 
ATOM     31  C   UNL     1       6.770   4.385  16.071  0.00  0.00    +0.000 C 
ENDBRANCH   8  28
TORSDOF 6
ENDMDL
MODEL 7
REMARK VINA RESULT:      -8.0      0.839      1.432
REMARK  Name = 
REMARK  7 active torsions:
REMARK  status: ('A' for Active; 'I' for Inactive)
REMARK    1  A    between atoms: C_1  and  N_2
REMARK    2  A    between atoms: C_6  and  C_7
REMARK    3  A    between atoms: C_7  and  C_8
REMARK    4  A    between atoms: C_8  and  C_9
REMARK    5  A    between atoms: N_13  and  C_14
REMARK    6  A    between atoms: C_18  and  C_19
REMARK    7  A    between atoms: N_25  and  C_26
REMARK                            x       y       z     vdW  Elec       q    Type
REMARK                         _______ _______ _______ _____ _____    ______ ____
ROOT
ATOM      1  C   UNL     1       2.116   7.082  19.675  0.00  0.00    +0.000 A 
ATOM      2  C   UNL     1       3.059   7.354  18.683  0.00  0.00    +0.000 A 
ATOM      3  C   UNL     1       3.493   6.310  17.903  0.00  0.00    +0.000 A 
ATOM      4  C   UNL     1       3.057   5.001  18.071  0.00  0.00    +0.000 A 
ATOM      5  C   UNL     1       2.147   4.693  19.077  0.00  0.00    +0.000 A 
ATOM      6  C   UNL     1       1.688   5.755  19.889  0.00  0.00    +0.000 A 
ATOM      7  C   UNL     1       3.736   4.122  17.066  0.00  0.00    +0.000 C 
ATOM      8  N   UNL     1       4.606   5.044  16.359  0.00  0.00    +0.000 N 
ATOM      9  C   UNL     1       4.488   6.345  16.821  0.00  0.00    +0.000 C 
ATOM     10  O   UNL     1       5.076   7.362  16.478  0.00  0.00    +0.000 OA
ENDROOT
BRANCH   1  15
ATOM     11  C   UNL     1       1.212   9.424  20.073  0.00  0.00    +0.000 A 
ATOM     12  C   UNL     1       0.768  10.095  21.203  0.00  0.00    +0.000 A 
ATOM     13  C   UNL     1       0.828   9.215  22.303  0.00  0.00    +0.000 A 
ATOM     14  C   UNL     1       1.300   8.017  21.829  0.00  0.00    +0.000 A 
ATOM     15  N   UNL     1       1.582   8.135  20.479  0.00  0.00    +0.000 N 
BRANCH  11  16
ATOM     16  C   UNL     1       1.209   9.867  18.623  0.00  0.00    +0.000 C 
BRANCH  16  17
ATOM     17  C   UNL     1      -0.103   9.673  17.869  0.00  0.00    +0.000 C 
BRANCH  17  23
ATOM     18  C   UNL     1      -3.306   9.526  17.600  0.00  0.00    +0.000 C 
ATOM     19  N   UNL     1      -2.498  10.609  18.098  0.00  0.00    +0.000 N 
ATOM     20  C   UNL     1      -3.003  11.806  18.517  0.00  0.00    +0.000 A 
ATOM     21  N   UNL     1      -2.023  12.576  18.922  0.00  0.00    +0.000 NA
ATOM     22  N   UNL     1      -0.857  11.877  18.764  0.00  0.00    +0.000 NA
ATOM     23  C   UNL     1      -1.133  10.693  18.251  0.00  0.00    +0.000 A 
ENDBRANCH  17  23
ENDBRANCH  16  17
ENDBRANCH  11  16
ENDBRANCH   1  15
BRANCH   5  24
ATOM     24  C   UNL     1       1.645   3.296  19.319  0.00  0.00    +0.000 C 
ATOM     25  F   UNL     1       0.754   3.207  20.345  0.00  0.00    +0.000 F 
ATOM     26  F   UNL     1       1.012   2.781  18.231  0.00  0.00    +0.000 F 
ATOM     27  F   UNL     1       2.648   2.426  19.619  0.00  0.00    +0.000 F 
ENDBRANCH   5  24
BRANCH   8  28
ATOM     28  C   UNL     1       5.517   4.637  15.400  0.00  0.00    +0.000 C 
ATOM     29  C   UNL     1       5.398   4.092  14.174  0.00  0.00    +0.000 C 
ATOM     30  C   UNL     1       6.888   4.016  13.946  0.00  0.00    +0.000 C 
ATOM     31  C   UNL     1       7.037   4.593  15.364  0.00  0.00    +0.000 C 
ENDBRANCH   8  28
TORSDOF 6
ENDMDL
MODEL 8
REMARK VINA RESULT:      -8.0      1.705      2.412
REMARK  Name = 
REMARK  7 active torsions:
REMARK  status: ('A' for Active; 'I' for Inactive)
REMARK    1  A    between atoms: C_1  and  N_2
REMARK    2  A    between atoms: C_6  and  C_7
REMARK    3  A    between atoms: C_7  and  C_8
REMARK    4  A    between atoms: C_8  and  C_9
REMARK    5  A    between atoms: N_13  and  C_14
REMARK    6  A    between atoms: C_18  and  C_19
REMARK    7  A    between atoms: N_25  and  C_26
REMARK                            x       y       z     vdW  Elec       q    Type
REMARK                         _______ _______ _______ _____ _____    ______ ____
ROOT
ATOM      1  C   UNL     1       1.812   7.275  20.100  0.00  0.00    +0.000 A 
ATOM      2  C   UNL     1       2.706   7.507  19.054  0.00  0.00    +0.000 A 
ATOM      3  C   UNL     1       3.196   6.420  18.370  0.00  0.00    +0.000 A 
ATOM      4  C   UNL     1       2.862   5.108  18.687  0.00  0.00    +0.000 A 
ATOM      5  C   UNL     1       2.005   4.844  19.750  0.00  0.00    +0.000 A 
ATOM      6  C   UNL     1       1.490   5.950  20.464  0.00  0.00    +0.000 A 
ATOM      7  C   UNL     1       3.578   4.179  17.756  0.00  0.00    +0.000 C 
ATOM      8  N   UNL     1       4.357   5.080  16.928  0.00  0.00    +0.000 N 
ATOM      9  C   UNL     1       4.156   6.412  17.258  0.00  0.00    +0.000 C 
ATOM     10  O   UNL     1       4.658   7.425  16.792  0.00  0.00    +0.000 OA
ENDROOT
BRANCH   1  15
ATOM     11  C   UNL     1       0.781   9.590  20.290  0.00  0.00    +0.000 A 
ATOM     12  C   UNL     1       0.304  10.336  21.358  0.00  0.00    +0.000 A 
ATOM     13  C   UNL     1       0.418   9.565  22.533  0.00  0.00    +0.000 A 
ATOM     14  C   UNL     1       0.953   8.356  22.166  0.00  0.00    +0.000 A 
ATOM     15  N   UNL     1       1.223   8.366  20.809  0.00  0.00    +0.000 N 
BRANCH  11  16
ATOM     16  C   UNL     1       0.748   9.897  18.806  0.00  0.00    +0.000 C 
BRANCH  16  17
ATOM     17  C   UNL     1       1.665  11.022  18.337  0.00  0.00    +0.000 C 
BRANCH  17  23
ATOM     18  C   UNL     1       3.078  13.855  18.915  0.00  0.00    +0.000 C 
ATOM     19  N   UNL     1       1.673  13.565  18.787  0.00  0.00    +0.000 N 
ATOM     20  C   UNL     1       0.686  14.496  18.935  0.00  0.00    +0.000 A 
ATOM     21  N   UNL     1      -0.481  13.929  18.748  0.00  0.00    +0.000 NA
ATOM     22  N   UNL     1      -0.258  12.606  18.476  0.00  0.00    +0.000 NA
ATOM     23  C   UNL     1       1.040  12.374  18.513  0.00  0.00    +0.000 A 
ENDBRANCH  17  23
ENDBRANCH  16  17
ENDBRANCH  11  16
ENDBRANCH   1  15
BRANCH   5  24
ATOM     24  C   UNL     1       1.614   3.448  20.152  0.00  0.00    +0.000 C 
ATOM     25  F   UNL     1       0.907   3.394  21.314  0.00  0.00    +0.000 F 
ATOM     26  F   UNL     1       0.836   2.842  19.215  0.00  0.00    +0.000 F 
ATOM     27  F   UNL     1       2.691   2.637  20.331  0.00  0.00    +0.000 F 
ENDBRANCH   5  24
BRANCH   8  28
ATOM     28  C   UNL     1       5.271   4.640  15.985  0.00  0.00    +0.000 C 
ATOM     29  C   UNL     1       6.563   4.265  16.045  0.00  0.00    +0.000 C 
ATOM     30  C   UNL     1       6.659   3.978  14.567  0.00  0.00    +0.000 C 
ATOM     31  C   UNL     1       5.198   4.450  14.478  0.00  0.00    +0.000 C 
ENDBRANCH   8  28
TORSDOF 6
ENDMDL
MODEL 9
REMARK VINA RESULT:      -8.0      1.329      1.829
REMARK  Name = 
REMARK  7 active torsions:
REMARK  status: ('A' for Active; 'I' for Inactive)
REMARK    1  A    between atoms: C_1  and  N_2
REMARK    2  A    between atoms: C_6  and  C_7
REMARK    3  A    between atoms: C_7  and  C_8
REMARK    4  A    between atoms: C_8  and  C_9
REMARK    5  A    between atoms: N_13  and  C_14
REMARK    6  A    between atoms: C_18  and  C_19
REMARK    7  A    between atoms: N_25  and  C_26
REMARK                            x       y       z     vdW  Elec       q    Type
REMARK                         _______ _______ _______ _____ _____    ______ ____
ROOT
ATOM      1  C   UNL     1       1.832   7.305  20.015  0.00  0.00    +0.000 A 
ATOM      2  C   UNL     1       2.750   7.553  18.994  0.00  0.00    +0.000 A 
ATOM      3  C   UNL     1       3.238   6.479  18.290  0.00  0.00    +0.000 A 
ATOM      4  C   UNL     1       2.880   5.164  18.564  0.00  0.00    +0.000 A 
ATOM      5  C   UNL     1       1.999   4.883  19.601  0.00  0.00    +0.000 A 
ATOM      6  C   UNL     1       1.485   5.976  20.336  0.00  0.00    +0.000 A 
ATOM      7  C   UNL     1       3.602   4.250  17.621  0.00  0.00    +0.000 C 
ATOM      8  N   UNL     1       4.410   5.163  16.834  0.00  0.00    +0.000 N 
ATOM      9  C   UNL     1       4.221   6.488  17.197  0.00  0.00    +0.000 C 
ATOM     10  O   UNL     1       4.745   7.507  16.769  0.00  0.00    +0.000 OA
ENDROOT
BRANCH   1  15
ATOM     11  C   UNL     1       0.661   9.550  20.230  0.00  0.00    +0.000 A 
ATOM     12  C   UNL     1       0.247  10.310  21.314  0.00  0.00    +0.000 A 
ATOM     13  C   UNL     1       0.542   9.603  22.498  0.00  0.00    +0.000 A 
ATOM     14  C   UNL     1       1.122   8.418  22.120  0.00  0.00    +0.000 A 
ATOM     15  N   UNL     1       1.244   8.384  20.742  0.00  0.00    +0.000 N 
BRANCH  11  16
ATOM     16  C   UNL     1       0.447   9.786  18.747  0.00  0.00    +0.000 C 
BRANCH  16  17
ATOM     17  C   UNL     1      -0.734  10.678  18.377  0.00  0.00    +0.000 C 
BRANCH  17  23
ATOM     18  C   UNL     1      -2.597  12.674  20.079  0.00  0.00    +0.000 C 
ATOM     19  N   UNL     1      -1.330  12.948  19.452  0.00  0.00    +0.000 N 
ATOM     20  C   UNL     1      -0.723  14.171  19.462  0.00  0.00    +0.000 A 
ATOM     21  N   UNL     1       0.417  14.098  18.821  0.00  0.00    +0.000 NA
ATOM     22  N   UNL     1       0.561  12.811  18.380  0.00  0.00    +0.000 NA
ATOM     23  C   UNL     1      -0.498  12.113  18.743  0.00  0.00    +0.000 A 
ENDBRANCH  17  23
ENDBRANCH  16  17
ENDBRANCH  11  16
ENDBRANCH   1  15
BRANCH   5  24
ATOM     24  C   UNL     1       1.582   3.482  19.957  0.00  0.00    +0.000 C 
ATOM     25  F   UNL     1       0.803   3.411  21.071  0.00  0.00    +0.000 F 
ATOM     26  F   UNL     1       0.863   2.892  18.964  0.00  0.00    +0.000 F 
ATOM     27  F   UNL     1       2.644   2.665  20.191  0.00  0.00    +0.000 F 
ENDBRANCH   5  24
BRANCH   8  28
ATOM     28  C   UNL     1       5.337   4.737  15.898  0.00  0.00    +0.000 C 
ATOM     29  C   UNL     1       5.253   4.375  14.603  0.00  0.00    +0.000 C 
ATOM     30  C   UNL     1       6.729   4.088  14.477  0.00  0.00    +0.000 C 
ATOM     31  C   UNL     1       6.829   4.453  15.968  0.00  0.00    +0.000 C 
ENDBRANCH   8  28
TORSDOF 6
ENDMDL
