MODEL 1
REMARK VINA RESULT:      -9.0      0.000      0.000
REMARK  Name = 
REMARK  5 active torsions:
REMARK  status: ('A' for Active; 'I' for Inactive)
REMARK    1  A    between atoms: C_1  and  C_2
REMARK    2  A    between atoms: C_4  and  C_5
REMARK    3  A    between atoms: N_7  and  C_8
REMARK    4  A    between atoms: C_8  and  C_9
REMARK    5  A    between atoms: C_9  and  C_10
REMARK                            x       y       z     vdW  Elec       q    Type
REMARK                         _______ _______ _______ _____ _____    ______ ____
ROOT
ATOM      1  C   UNL     1       7.337   6.542  17.995  0.00  0.00    +0.000 C 
ATOM      2  O   UNL     1       7.852   6.129  19.028  0.00  0.00    +0.000 OA
ATOM      3  N   UNL     1       7.593   7.802  17.494  0.00  0.00    +0.000 N 
ATOM      4  H   UNL     1       7.104   8.143  16.677  0.00  0.00    +0.000 HD
ENDROOT
BRANCH   1   8
ATOM      5  C   UNL     1       6.297   3.957  13.850  0.00  0.00    +0.000 C 
ATOM      6  C   UNL     1       5.957   4.416  15.236  0.00  0.00    +0.000 A 
ATOM      7  C   UNL     1       6.794   5.268  15.936  0.00  0.00    +0.000 A 
ATOM      8  C   UNL     1       6.402   5.684  17.213  0.00  0.00    +0.000 A 
ATOM      9  C   UNL     1       5.175   5.238  17.769  0.00  0.00    +0.000 A 
ATOM     10  C   UNL     1       4.652   5.631  19.029  0.00  0.00    +0.000 A 
ATOM     11  C   UNL     1       3.442   5.122  19.504  0.00  0.00    +0.000 A 
ATOM     12  C   UNL     1       2.753   4.212  18.729  0.00  0.00    +0.000 A 
ATOM     13  F   UNL     1       1.598   3.703  19.177  0.00  0.00    +0.000 F 
ATOM     14  C   UNL     1       3.237   3.826  17.485  0.00  0.00    +0.000 A 
ATOM     15  C   UNL     1       4.421   4.339  16.984  0.00  0.00    +0.000 A 
ATOM     16  N   UNL     1       4.803   3.949  15.757  0.00  0.00    +0.000 NA
ENDBRANCH   1   8
BRANCH   3  17
ATOM     17  C   UNL     1       8.490   8.699  18.203  0.00  0.00    +0.000 C 
BRANCH  17  18
ATOM     18  C   UNL     1       8.225  10.181  17.920  0.00  0.00    +0.000 C 
BRANCH  18  19
ATOM     19  C   UNL     1       9.227  11.148  18.516  0.00  0.00    +0.000 A 
ATOM     20  C   UNL     1       9.858  10.919  19.762  0.00  0.00    +0.000 A 
ATOM     21  C   UNL     1      10.858  11.779  20.233  0.00  0.00    +0.000 A 
ATOM     22  C   UNL     1      11.205  12.847  19.438  0.00  0.00    +0.000 A 
ATOM     23  C   UNL     1      10.551  13.111  18.257  0.00  0.00    +0.000 A 
ATOM     24  C   UNL     1       9.541  12.306  17.787  0.00  0.00    +0.000 A 
ATOM     25  O   UNL     1      11.065  14.194  17.612  0.00  0.00    +0.000 OA
ATOM     26  C   UNL     1      12.260  14.399  18.391  0.00  0.00    +0.000 C 
ATOM     27  O   UNL     1      12.221  13.723  19.666  0.00  0.00    +0.000 OA
ENDBRANCH  18  19
ENDBRANCH  17  18
ENDBRANCH   3  17
TORSDOF 4
ENDMDL
MODEL 2
REMARK VINA RESULT:      -8.8      1.811      3.031
REMARK  Name = 
REMARK  5 active torsions:
REMARK  status: ('A' for Active; 'I' for Inactive)
REMARK    1  A    between atoms: C_1  and  C_2
REMARK    2  A    between atoms: C_4  and  C_5
REMARK    3  A    between atoms: N_7  and  C_8
REMARK    4  A    between atoms: C_8  and  C_9
REMARK    5  A    between atoms: C_9  and  C_10
REMARK                            x       y       z     vdW  Elec       q    Type
REMARK                         _______ _______ _______ _____ _____    ______ ____
ROOT
ATOM      1  C   UNL     1       7.458   5.911  18.652  0.00  0.00    +0.000 C 
ATOM      2  O   UNL     1       8.250   5.525  19.504  0.00  0.00    +0.000 OA
ATOM      3  N   UNL     1       7.493   7.191  18.137  0.00  0.00    +0.000 N 
ATOM      4  H   UNL     1       6.787   7.505  17.484  0.00  0.00    +0.000 HD
ENDROOT
BRANCH   1   8
ATOM      5  C   UNL     1       3.398   3.095  19.383  0.00  0.00    +0.000 C 
ATOM      6  C   UNL     1       4.440   3.698  18.489  0.00  0.00    +0.000 A 
ATOM      7  C   UNL     1       5.453   4.492  18.999  0.00  0.00    +0.000 A 
ATOM      8  C   UNL     1       6.411   4.998  18.114  0.00  0.00    +0.000 A 
ATOM      9  C   UNL     1       6.338   4.699  16.729  0.00  0.00    +0.000 A 
ATOM     10  C   UNL     1       7.276   5.113  15.747  0.00  0.00    +0.000 A 
ATOM     11  C   UNL     1       7.111   4.788  14.399  0.00  0.00    +0.000 A 
ATOM     12  C   UNL     1       6.003   4.057  14.024  0.00  0.00    +0.000 A 
ATOM     13  F   UNL     1       5.821   3.750  12.733  0.00  0.00    +0.000 F 
ATOM     14  C   UNL     1       5.080   3.626  14.969  0.00  0.00    +0.000 A 
ATOM     15  C   UNL     1       5.239   3.915  16.313  0.00  0.00    +0.000 A 
ATOM     16  N   UNL     1       4.328   3.430  17.171  0.00  0.00    +0.000 NA
ENDBRANCH   1   8
BRANCH   3  17
ATOM     17  C   UNL     1       8.482   8.142  18.614  0.00  0.00    +0.000 C 
BRANCH  17  18
ATOM     18  C   UNL     1       8.402   9.509  17.928  0.00  0.00    +0.000 C 
BRANCH  18  19
ATOM     19  C   UNL     1       9.147  10.632  18.620  0.00  0.00    +0.000 A 
ATOM     20  C   UNL     1       9.484  10.588  19.994  0.00  0.00    +0.000 A 
ATOM     21  C   UNL     1      10.266  11.593  20.578  0.00  0.00    +0.000 A 
ATOM     22  C   UNL     1      10.695  12.617  19.765  0.00  0.00    +0.000 A 
ATOM     23  C   UNL     1      10.317  12.699  18.445  0.00  0.00    +0.000 A 
ATOM     24  C   UNL     1       9.521  11.746  17.854  0.00  0.00    +0.000 A 
ATOM     25  O   UNL     1      10.872  13.769  17.813  0.00  0.00    +0.000 OA
ATOM     26  C   UNL     1      11.827  14.175  18.812  0.00  0.00    +0.000 C 
ATOM     27  O   UNL     1      11.548  13.618  20.114  0.00  0.00    +0.000 OA
ENDBRANCH  18  19
ENDBRANCH  17  18
ENDBRANCH   3  17
TORSDOF 4
ENDMDL
MODEL 3
REMARK VINA RESULT:      -8.7      6.178      9.041
REMARK  Name = 
REMARK  5 active torsions:
REMARK  status: ('A' for Active; 'I' for Inactive)
REMARK    1  A    between atoms: C_1  and  C_2
REMARK    2  A    between atoms: C_4  and  C_5
REMARK    3  A    between atoms: N_7  and  C_8
REMARK    4  A    between atoms: C_8  and  C_9
REMARK    5  A    between atoms: C_9  and  C_10
REMARK                            x       y       z     vdW  Elec       q    Type
REMARK                         _______ _______ _______ _____ _____    ______ ____
ROOT
ATOM      1  C   UNL     1       2.369   7.336  18.788  0.00  0.00    +0.000 C 
ATOM      2  O   UNL     1       2.474   7.673  19.962  0.00  0.00    +0.000 OA
ATOM      3  N   UNL     1       2.001   8.222  17.795  0.00  0.00    +0.000 N 
ATOM      4  H   UNL     1       1.857   7.904  16.846  0.00  0.00    +0.000 HD
ENDROOT
BRANCH   1   8
ATOM      5  C   UNL     1       1.017   2.530  18.618  0.00  0.00    +0.000 C 
ATOM      6  C   UNL     1       1.948   3.650  18.262  0.00  0.00    +0.000 A 
ATOM      7  C   UNL     1       1.724   4.941  18.710  0.00  0.00    +0.000 A 
ATOM      8  C   UNL     1       2.648   5.933  18.368  0.00  0.00    +0.000 A 
ATOM      9  C   UNL     1       3.786   5.616  17.581  0.00  0.00    +0.000 A 
ATOM     10  C   UNL     1       4.813   6.524  17.216  0.00  0.00    +0.000 A 
ATOM     11  C   UNL     1       5.888   6.125  16.419  0.00  0.00    +0.000 A 
ATOM     12  C   UNL     1       5.937   4.820  15.975  0.00  0.00    +0.000 A 
ATOM     13  F   UNL     1       6.953   4.424  15.197  0.00  0.00    +0.000 F 
ATOM     14  C   UNL     1       4.952   3.908  16.335  0.00  0.00    +0.000 A 
ATOM     15  C   UNL     1       3.893   4.277  17.145  0.00  0.00    +0.000 A 
ATOM     16  N   UNL     1       3.002   3.330  17.483  0.00  0.00    +0.000 NA
ENDBRANCH   1   8
BRANCH   3  17
ATOM     17  C   UNL     1       1.707   9.606  18.126  0.00  0.00    +0.000 C 
BRANCH  17  18
ATOM     18  C   UNL     1       0.550   9.768  19.117  0.00  0.00    +0.000 C 
BRANCH  18  19
ATOM     19  C   UNL     1      -0.763  10.226  18.517  0.00  0.00    +0.000 A 
ATOM     20  C   UNL     1      -1.544  11.258  19.091  0.00  0.00    +0.000 A 
ATOM     21  C   UNL     1      -2.698  11.729  18.453  0.00  0.00    +0.000 A 
ATOM     22  C   UNL     1      -3.038  11.157  17.250  0.00  0.00    +0.000 A 
ATOM     23  C   UNL     1      -2.320  10.111  16.718  0.00  0.00    +0.000 A 
ATOM     24  C   UNL     1      -1.204   9.602  17.339  0.00  0.00    +0.000 A 
ATOM     25  O   UNL     1      -2.805   9.711  15.511  0.00  0.00    +0.000 OA
ATOM     26  C   UNL     1      -3.725  10.788  15.247  0.00  0.00    +0.000 C 
ATOM     27  O   UNL     1      -4.050  11.550  16.429  0.00  0.00    +0.000 OA
ENDBRANCH  18  19
ENDBRANCH  17  18
ENDBRANCH   3  17
TORSDOF 4
ENDMDL
MODEL 4
REMARK VINA RESULT:      -8.6      5.924      8.100
REMARK  Name = 
REMARK  5 active torsions:
REMARK  status: ('A' for Active; 'I' for Inactive)
REMARK    1  A    between atoms: C_1  and  C_2
REMARK    2  A    between atoms: C_4  and  C_5
REMARK    3  A    between atoms: N_7  and  C_8
REMARK    4  A    between atoms: C_8  and  C_9
REMARK    5  A    between atoms: C_9  and  C_10
REMARK                            x       y       z     vdW  Elec       q    Type
REMARK                         _______ _______ _______ _____ _____    ______ ____
ROOT
ATOM      1  C   UNL     1       2.411   7.240  18.754  0.00  0.00    +0.000 C 
ATOM      2  O   UNL     1       2.445   7.554  19.938  0.00  0.00    +0.000 OA
ATOM      3  N   UNL     1       2.086   8.141  17.760  0.00  0.00    +0.000 N 
ATOM      4  H   UNL     1       2.001   7.841  16.798  0.00  0.00    +0.000 HD
ENDROOT
BRANCH   1   8
ATOM      5  C   UNL     1       1.214   2.395  18.545  0.00  0.00    +0.000 C 
ATOM      6  C   UNL     1       2.109   3.547  18.198  0.00  0.00    +0.000 A 
ATOM      7  C   UNL     1       1.843   4.826  18.656  0.00  0.00    +0.000 A 
ATOM      8  C   UNL     1       2.735   5.851  18.323  0.00  0.00    +0.000 A 
ATOM      9  C   UNL     1       3.882   5.576  17.534  0.00  0.00    +0.000 A 
ATOM     10  C   UNL     1       4.880   6.520  17.176  0.00  0.00    +0.000 A 
ATOM     11  C   UNL     1       5.967   6.162  16.376  0.00  0.00    +0.000 A 
ATOM     12  C   UNL     1       6.058   4.862  15.922  0.00  0.00    +0.000 A 
ATOM     13  F   UNL     1       7.086   4.505  15.141  0.00  0.00    +0.000 F 
ATOM     14  C   UNL     1       5.102   3.917  16.274  0.00  0.00    +0.000 A 
ATOM     15  C   UNL     1       4.032   4.245  17.087  0.00  0.00    +0.000 A 
ATOM     16  N   UNL     1       3.173   3.267  17.417  0.00  0.00    +0.000 NA
ENDBRANCH   1   8
BRANCH   3  17
ATOM     17  C   UNL     1       1.753   9.513  18.101  0.00  0.00    +0.000 C 
BRANCH  17  18
ATOM     18  C   UNL     1       0.251   9.755  18.276  0.00  0.00    +0.000 C 
BRANCH  18  19
ATOM     19  C   UNL     1      -0.179  10.227  19.649  0.00  0.00    +0.000 A 
ATOM     20  C   UNL     1      -0.099   9.403  20.797  0.00  0.00    +0.000 A 
ATOM     21  C   UNL     1      -0.404   9.906  22.069  0.00  0.00    +0.000 A 
ATOM     22  C   UNL     1      -0.777  11.227  22.158  0.00  0.00    +0.000 A 
ATOM     23  C   UNL     1      -0.919  12.015  21.039  0.00  0.00    +0.000 A 
ATOM     24  C   UNL     1      -0.662  11.539  19.775  0.00  0.00    +0.000 A 
ATOM     25  O   UNL     1      -1.267  13.294  21.348  0.00  0.00    +0.000 OA
ATOM     26  C   UNL     1      -1.067  13.265  22.774  0.00  0.00    +0.000 C 
ATOM     27  O   UNL     1      -1.002  11.924  23.304  0.00  0.00    +0.000 OA
ENDBRANCH  18  19
ENDBRANCH  17  18
ENDBRANCH   3  17
TORSDOF 4
ENDMDL
MODEL 5
REMARK VINA RESULT:      -8.6      0.842      1.174
REMARK  Name = 
REMARK  5 active torsions:
REMARK  status: ('A' for Active; 'I' for Inactive)
REMARK    1  A    between atoms: C_1  and  C_2
REMARK    2  A    between atoms: C_4  and  C_5
REMARK    3  A    between atoms: N_7  and  C_8
REMARK    4  A    between atoms: C_8  and  C_9
REMARK    5  A    between atoms: C_9  and  C_10
REMARK                            x       y       z     vdW  Elec       q    Type
REMARK                         _______ _______ _______ _____ _____    ______ ____
ROOT
ATOM      1  C   UNL     1       7.441   6.626  17.973  0.00  0.00    +0.000 C 
ATOM      2  O   UNL     1       8.010   6.166  18.957  0.00  0.00    +0.000 OA
ATOM      3  N   UNL     1       7.664   7.912  17.524  0.00  0.00    +0.000 N 
ATOM      4  H   UNL     1       7.133   8.289  16.751  0.00  0.00    +0.000 HD
ENDROOT
BRANCH   1   8
ATOM      5  C   UNL     1       6.322   4.016  13.864  0.00  0.00    +0.000 C 
ATOM      6  C   UNL     1       5.989   4.518  15.237  0.00  0.00    +0.000 A 
ATOM      7  C   UNL     1       6.859   5.341  15.931  0.00  0.00    +0.000 A 
ATOM      8  C   UNL     1       6.474   5.800  17.195  0.00  0.00    +0.000 A 
ATOM      9  C   UNL     1       5.220   5.426  17.744  0.00  0.00    +0.000 A 
ATOM     10  C   UNL     1       4.703   5.868  18.990  0.00  0.00    +0.000 A 
ATOM     11  C   UNL     1       3.464   5.429  19.461  0.00  0.00    +0.000 A 
ATOM     12  C   UNL     1       2.740   4.539  18.694  0.00  0.00    +0.000 A 
ATOM     13  F   UNL     1       1.556   4.096  19.137  0.00  0.00    +0.000 F 
ATOM     14  C   UNL     1       3.218   4.106  17.464  0.00  0.00    +0.000 A 
ATOM     15  C   UNL     1       4.431   4.550  16.967  0.00  0.00    +0.000 A 
ATOM     16  N   UNL     1       4.807   4.119  15.752  0.00  0.00    +0.000 NA
ENDBRANCH   1   8
BRANCH   3  17
ATOM     17  C   UNL     1       8.589   8.780  18.232  0.00  0.00    +0.000 C 
BRANCH  17  18
ATOM     18  C   UNL     1       8.262  10.270  18.092  0.00  0.00    +0.000 C 
BRANCH  18  19
ATOM     19  C   UNL     1       9.381  11.221  18.463  0.00  0.00    +0.000 A 
ATOM     20  C   UNL     1      10.552  11.362  17.680  0.00  0.00    +0.000 A 
ATOM     21  C   UNL     1      11.517  12.327  17.993  0.00  0.00    +0.000 A 
ATOM     22  C   UNL     1      11.281  13.133  19.083  0.00  0.00    +0.000 A 
ATOM     23  C   UNL     1      10.177  12.959  19.885  0.00  0.00    +0.000 A 
ATOM     24  C   UNL     1       9.231  11.996  19.624  0.00  0.00    +0.000 A 
ATOM     25  O   UNL     1      10.117  13.875  20.889  0.00  0.00    +0.000 OA
ATOM     26  C   UNL     1      11.154  14.779  20.458  0.00  0.00    +0.000 C 
ATOM     27  O   UNL     1      12.037  14.193  19.478  0.00  0.00    +0.000 OA
ENDBRANCH  18  19
ENDBRANCH  17  18
ENDBRANCH   3  17
TORSDOF 4
ENDMDL
MODEL 6
REMARK VINA RESULT:      -8.6      5.900      8.269
REMARK  Name = 
REMARK  5 active torsions:
REMARK  status: ('A' for Active; 'I' for Inactive)
REMARK    1  A    between atoms: C_1  and  C_2
REMARK    2  A    between atoms: C_4  and  C_5
REMARK    3  A    between atoms: N_7  and  C_8
REMARK    4  A    between atoms: C_8  and  C_9
REMARK    5  A    between atoms: C_9  and  C_10
REMARK                            x       y       z     vdW  Elec       q    Type
REMARK                         _______ _______ _______ _____ _____    ______ ____
ROOT
ATOM      1  C   UNL     1       2.428   7.187  18.709  0.00  0.00    +0.000 C 
ATOM      2  O   UNL     1       2.286   7.475  19.891  0.00  0.00    +0.000 OA
ATOM      3  N   UNL     1       2.257   8.110  17.697  0.00  0.00    +0.000 N 
ATOM      4  H   UNL     1       2.315   7.831  16.727  0.00  0.00    +0.000 HD
ENDROOT
BRANCH   1   8
ATOM      5  C   UNL     1       1.406   2.301  18.526  0.00  0.00    +0.000 C 
ATOM      6  C   UNL     1       2.269   3.480  18.188  0.00  0.00    +0.000 A 
ATOM      7  C   UNL     1       1.948   4.753  18.625  0.00  0.00    +0.000 A 
ATOM      8  C   UNL     1       2.812   5.805  18.301  0.00  0.00    +0.000 A 
ATOM      9  C   UNL     1       3.986   5.563  17.543  0.00  0.00    +0.000 A 
ATOM     10  C   UNL     1       4.959   6.538  17.198  0.00  0.00    +0.000 A 
ATOM     11  C   UNL     1       6.076   6.210  16.428  0.00  0.00    +0.000 A 
ATOM     12  C   UNL     1       6.223   4.909  15.991  0.00  0.00    +0.000 A 
ATOM     13  F   UNL     1       7.282   4.581  15.238  0.00  0.00    +0.000 F 
ATOM     14  C   UNL     1       5.293   3.935  16.330  0.00  0.00    +0.000 A 
ATOM     15  C   UNL     1       4.193   4.233  17.114  0.00  0.00    +0.000 A 
ATOM     16  N   UNL     1       3.360   3.229  17.435  0.00  0.00    +0.000 NA
ENDBRANCH   1   8
BRANCH   3  17
ATOM     17  C   UNL     1       1.878   9.476  18.015  0.00  0.00    +0.000 C 
BRANCH  17  18
ATOM     18  C   UNL     1       0.379   9.749  17.864  0.00  0.00    +0.000 C 
BRANCH  18  19
ATOM     19  C   UNL     1      -0.246  10.586  18.961  0.00  0.00    +0.000 A 
ATOM     20  C   UNL     1      -1.287  11.512  18.713  0.00  0.00    +0.000 A 
ATOM     21  C   UNL     1      -1.915  12.191  19.765  0.00  0.00    +0.000 A 
ATOM     22  C   UNL     1      -1.485  11.920  21.043  0.00  0.00    +0.000 A 
ATOM     23  C   UNL     1      -0.431  11.070  21.286  0.00  0.00    +0.000 A 
ATOM     24  C   UNL     1       0.229  10.417  20.271  0.00  0.00    +0.000 A 
ATOM     25  O   UNL     1      -0.185  10.917  22.616  0.00  0.00    +0.000 OA
ATOM     26  C   UNL     1      -1.359  11.554  23.157  0.00  0.00    +0.000 C 
ATOM     27  O   UNL     1      -2.038  12.388  22.195  0.00  0.00    +0.000 OA
ENDBRANCH  18  19
ENDBRANCH  17  18
ENDBRANCH   3  17
TORSDOF 4
ENDMDL
MODEL 7
REMARK VINA RESULT:      -8.5      6.401      9.296
REMARK  Name = 
REMARK  5 active torsions:
REMARK  status: ('A' for Active; 'I' for Inactive)
REMARK    1  A    between atoms: C_1  and  C_2
REMARK    2  A    between atoms: C_4  and  C_5
REMARK    3  A    between atoms: N_7  and  C_8
REMARK    4  A    between atoms: C_8  and  C_9
REMARK    5  A    between atoms: C_9  and  C_10
REMARK                            x       y       z     vdW  Elec       q    Type
REMARK                         _______ _______ _______ _____ _____    ______ ____
ROOT
ATOM      1  C   UNL     1       2.308   8.007  18.409  0.00  0.00    +0.000 C 
ATOM      2  O   UNL     1       2.493   8.483  17.296  0.00  0.00    +0.000 OA
ATOM      3  N   UNL     1       1.648   8.695  19.407  0.00  0.00    +0.000 N 
ATOM      4  H   UNL     1       1.566   8.306  20.337  0.00  0.00    +0.000 HD
ENDROOT
BRANCH   1   8
ATOM      5  C   UNL     1       2.101   3.952  21.319  0.00  0.00    +0.000 C 
ATOM      6  C   UNL     1       2.625   4.690  20.124  0.00  0.00    +0.000 A 
ATOM      7  C   UNL     1       2.234   5.991  19.855  0.00  0.00    +0.000 A 
ATOM      8  C   UNL     1       2.784   6.633  18.741  0.00  0.00    +0.000 A 
ATOM      9  C   UNL     1       3.719   5.961  17.913  0.00  0.00    +0.000 A 
ATOM     10  C   UNL     1       4.379   6.526  16.790  0.00  0.00    +0.000 A 
ATOM     11  C   UNL     1       5.272   5.779  16.019  0.00  0.00    +0.000 A 
ATOM     12  C   UNL     1       5.503   4.462  16.360  0.00  0.00    +0.000 A 
ATOM     13  F   UNL     1       6.345   3.727  15.622  0.00  0.00    +0.000 F 
ATOM     14  C   UNL     1       4.882   3.893  17.464  0.00  0.00    +0.000 A 
ATOM     15  C   UNL     1       4.014   4.624  18.257  0.00  0.00    +0.000 A 
ATOM     16  N   UNL     1       3.485   4.017  19.332  0.00  0.00    +0.000 NA
ENDBRANCH   1   8
BRANCH   3  17
ATOM     17  C   UNL     1       1.158  10.041  19.162  0.00  0.00    +0.000 C 
BRANCH  17  18
ATOM     18  C   UNL     1      -0.173  10.345  19.855  0.00  0.00    +0.000 C 
BRANCH  18  19
ATOM     19  C   UNL     1      -1.347  10.600  18.931  0.00  0.00    +0.000 A 
ATOM     20  C   UNL     1      -2.384  11.508  19.251  0.00  0.00    +0.000 A 
ATOM     21  C   UNL     1      -3.397  11.800  18.329  0.00  0.00    +0.000 A 
ATOM     22  C   UNL     1      -3.341  11.176  17.105  0.00  0.00    +0.000 A 
ATOM     23  C   UNL     1      -2.372  10.244  16.811  0.00  0.00    +0.000 A 
ATOM     24  C   UNL     1      -1.386   9.910  17.710  0.00  0.00    +0.000 A 
ATOM     25  O   UNL     1      -2.479   9.769  15.540  0.00  0.00    +0.000 OA
ATOM     26  C   UNL     1      -3.446  10.697  15.012  0.00  0.00    +0.000 C 
ATOM     27  O   UNL     1      -4.161  11.410  16.044  0.00  0.00    +0.000 OA
ENDBRANCH  18  19
ENDBRANCH  17  18
ENDBRANCH   3  17
TORSDOF 4
ENDMDL
MODEL 8
REMARK VINA RESULT:      -8.5      6.362      9.533
REMARK  Name = 
REMARK  5 active torsions:
REMARK  status: ('A' for Active; 'I' for Inactive)
REMARK    1  A    between atoms: C_1  and  C_2
REMARK    2  A    between atoms: C_4  and  C_5
REMARK    3  A    between atoms: N_7  and  C_8
REMARK    4  A    between atoms: C_8  and  C_9
REMARK    5  A    between atoms: C_9  and  C_10
REMARK                            x       y       z     vdW  Elec       q    Type
REMARK                         _______ _______ _______ _____ _____    ______ ____
ROOT
ATOM      1  C   UNL     1       1.349   9.902  18.376  0.00  0.00    +0.000 C 
ATOM      2  O   UNL     1       2.017  10.428  17.494  0.00  0.00    +0.000 OA
ATOM      3  N   UNL     1       1.621   8.637  18.855  0.00  0.00    +0.000 N 
ATOM      4  H   UNL     1       1.015   8.200  19.536  0.00  0.00    +0.000 HD
ENDROOT
BRANCH   1   8
ATOM      5  C   UNL     1      -0.481  12.838  21.980  0.00  0.00    +0.000 C 
ATOM      6  C   UNL     1      -0.636  12.066  20.703  0.00  0.00    +0.000 A 
ATOM      7  C   UNL     1       0.417  11.344  20.169  0.00  0.00    +0.000 A 
ATOM      8  C   UNL     1       0.197  10.621  18.991  0.00  0.00    +0.000 A 
ATOM      9  C   UNL     1      -1.078  10.634  18.368  0.00  0.00    +0.000 A 
ATOM     10  C   UNL     1      -1.432   9.902  17.204  0.00  0.00    +0.000 A 
ATOM     11  C   UNL     1      -2.710   9.993  16.648  0.00  0.00    +0.000 A 
ATOM     12  C   UNL     1      -3.637  10.822  17.246  0.00  0.00    +0.000 A 
ATOM     13  F   UNL     1      -4.862  10.933  16.717  0.00  0.00    +0.000 F 
ATOM     14  C   UNL     1      -3.318  11.534  18.396  0.00  0.00    +0.000 A 
ATOM     15  C   UNL     1      -2.066  11.437  18.977  0.00  0.00    +0.000 A 
ATOM     16  N   UNL     1      -1.847  12.124  20.111  0.00  0.00    +0.000 NA
ENDBRANCH   1   8
BRANCH   3  17
ATOM     17  C   UNL     1       2.726   7.871  18.302  0.00  0.00    +0.000 C 
BRANCH  17  18
ATOM     18  C   UNL     1       2.481   6.360  18.294  0.00  0.00    +0.000 C 
BRANCH  18  19
ATOM     19  C   UNL     1       3.537   5.531  17.592  0.00  0.00    +0.000 A 
ATOM     20  C   UNL     1       3.519   4.116  17.593  0.00  0.00    +0.000 A 
ATOM     21  C   UNL     1       4.449   3.382  16.845  0.00  0.00    +0.000 A 
ATOM     22  C   UNL     1       5.372   4.089  16.109  0.00  0.00    +0.000 A 
ATOM     23  C   UNL     1       5.436   5.462  16.155  0.00  0.00    +0.000 A 
ATOM     24  C   UNL     1       4.560   6.207  16.908  0.00  0.00    +0.000 A 
ATOM     25  O   UNL     1       6.398   5.963  15.334  0.00  0.00    +0.000 OA
ATOM     26  C   UNL     1       6.734   4.774  14.594  0.00  0.00    +0.000 C 
ATOM     27  O   UNL     1       6.278   3.565  15.238  0.00  0.00    +0.000 OA
ENDBRANCH  18  19
ENDBRANCH  17  18
ENDBRANCH   3  17
TORSDOF 4
ENDMDL
MODEL 9
REMARK VINA RESULT:      -8.5      6.702      9.557
REMARK  Name = 
REMARK  5 active torsions:
REMARK  status: ('A' for Active; 'I' for Inactive)
REMARK    1  A    between atoms: C_1  and  C_2
REMARK    2  A    between atoms: C_4  and  C_5
REMARK    3  A    between atoms: N_7  and  C_8
REMARK    4  A    between atoms: C_8  and  C_9
REMARK    5  A    between atoms: C_9  and  C_10
REMARK                            x       y       z     vdW  Elec       q    Type
REMARK                         _______ _______ _______ _____ _____    ______ ____
ROOT
ATOM      1  C   UNL     1       2.227   8.116  18.461  0.00  0.00    +0.000 C 
ATOM      2  O   UNL     1       2.310   8.585  17.332  0.00  0.00    +0.000 OA
ATOM      3  N   UNL     1       1.641   8.802  19.505  0.00  0.00    +0.000 N 
ATOM      4  H   UNL     1       1.644   8.420  20.441  0.00  0.00    +0.000 HD
ENDROOT
BRANCH   1   8
ATOM      5  C   UNL     1       2.134   3.971  21.247  0.00  0.00    +0.000 C 
ATOM      6  C   UNL     1       2.649   4.766  20.084  0.00  0.00    +0.000 A 
ATOM      7  C   UNL     1       2.210   6.056  19.846  0.00  0.00    +0.000 A 
ATOM      8  C   UNL     1       2.753   6.754  18.762  0.00  0.00    +0.000 A 
ATOM      9  C   UNL     1       3.731   6.145  17.933  0.00  0.00    +0.000 A 
ATOM     10  C   UNL     1       4.387   6.770  16.840  0.00  0.00    +0.000 A 
ATOM     11  C   UNL     1       5.324   6.083  16.065  0.00  0.00    +0.000 A 
ATOM     12  C   UNL     1       5.603   4.767  16.372  0.00  0.00    +0.000 A 
ATOM     13  F   UNL     1       6.488   4.089  15.630  0.00  0.00    +0.000 F 
ATOM     14  C   UNL     1       4.986   4.141  17.448  0.00  0.00    +0.000 A 
ATOM     15  C   UNL     1       4.074   4.811  18.244  0.00  0.00    +0.000 A 
ATOM     16  N   UNL     1       3.551   4.152  19.290  0.00  0.00    +0.000 NA
ENDBRANCH   1   8
BRANCH   3  17
ATOM     17  C   UNL     1       1.109  10.137  19.292  0.00  0.00    +0.000 C 
BRANCH  17  18
ATOM     18  C   UNL     1      -0.321  10.318  19.810  0.00  0.00    +0.000 C 
BRANCH  18  19
ATOM     19  C   UNL     1      -1.372  10.573  18.750  0.00  0.00    +0.000 A 
ATOM     20  C   UNL     1      -1.326   9.968  17.471  0.00  0.00    +0.000 A 
ATOM     21  C   UNL     1      -2.369  10.142  16.553  0.00  0.00    +0.000 A 
ATOM     22  C   UNL     1      -3.438  10.914  16.944  0.00  0.00    +0.000 A 
ATOM     23  C   UNL     1      -3.460  11.556  18.160  0.00  0.00    +0.000 A 
ATOM     24  C   UNL     1      -2.434  11.435  19.067  0.00  0.00    +0.000 A 
ATOM     25  O   UNL     1      -4.617  12.243  18.362  0.00  0.00    +0.000 OA
ATOM     26  C   UNL     1      -5.397  11.739  17.260  0.00  0.00    +0.000 C 
ATOM     27  O   UNL     1      -4.590  11.108  16.244  0.00  0.00    +0.000 OA
ENDBRANCH  18  19
ENDBRANCH  17  18
ENDBRANCH   3  17
TORSDOF 4
ENDMDL
