MODEL 1
REMARK VINA RESULT:      -9.8      0.000      0.000
REMARK  Name = 
REMARK  3 active torsions:
REMARK  status: ('A' for Active; 'I' for Inactive)
REMARK    1  A    between atoms: C_2  and  C_3
REMARK    2  A    between atoms: C_3  and  C_4
REMARK    3  A    between atoms: C_3  and  N_10
REMARK                            x       y       z     vdW  Elec       q    Type
REMARK                         _______ _______ _______ _____ _____    ______ ____
ROOT
ATOM      1  C   UNL     1       3.497   6.120  19.083  0.00  0.00    +0.000 C 
ENDROOT
BRANCH   1   3
ATOM      2  O   UNL     1       3.315   7.501  17.087  0.00  0.00    +0.000 OA
ATOM      3  C   UNL     1       3.025   7.337  18.276  0.00  0.00    +0.000 C 
ATOM      4  N   UNL     1       2.085   8.175  18.886  0.00  0.00    +0.000 N 
ATOM      5  C   UNL     1       1.760   8.236  20.301  0.00  0.00    +0.000 C 
ATOM      6  C   UNL     1       0.540   9.150  20.429  0.00  0.00    +0.000 C 
ATOM      7  C   UNL     1       0.782  10.431  21.239  0.00  0.00    +0.000 C 
ATOM      8  C   UNL     1      -0.539  11.159  21.488  0.00  0.00    +0.000 C 
ATOM      9  C   UNL     1      -0.880  11.685  20.093  0.00  0.00    +0.000 C 
ATOM     10  C   UNL     1       0.323  11.220  19.269  0.00  0.00    +0.000 C 
ATOM     11  O   UNL     1       1.384  11.303  20.253  0.00  0.00    +0.000 OA
ATOM     12  C   UNL     1       0.268   9.710  19.021  0.00  0.00    +0.000 C 
ATOM     13  C   UNL     1       1.407   9.206  18.134  0.00  0.00    +0.000 C 
ENDBRANCH   1   3
BRANCH   1  14
ATOM     14  N   UNL     1       4.715   5.355  18.683  0.00  0.00    +0.000 N 
ATOM     15  C   UNL     1       5.793   5.254  19.555  0.00  0.00    +0.000 A 
ATOM     16  N   UNL     1       6.931   5.093  18.937  0.00  0.00    +0.000 NA
ATOM     17  C   UNL     1       6.582   4.916  17.633  0.00  0.00    +0.000 A 
ATOM     18  C   UNL     1       7.434   4.701  16.545  0.00  0.00    +0.000 A 
ATOM     19  C   UNL     1       6.877   4.434  15.297  0.00  0.00    +0.000 A 
ATOM     20  C   UNL     1       5.492   4.348  15.154  0.00  0.00    +0.000 A 
ATOM     21  C   UNL     1       4.620   4.612  16.223  0.00  0.00    +0.000 A 
ATOM     22  C   UNL     1       5.191   4.948  17.456  0.00  0.00    +0.000 A 
ENDBRANCH   1  14
BRANCH   1  23
ATOM     23  C   UNL     1       2.341   5.128  19.243  0.00  0.00    +0.000 A 
ATOM     24  C   UNL     1       1.825   4.468  18.119  0.00  0.00    +0.000 A 
ATOM     25  C   UNL     1       1.025   3.342  18.280  0.00  0.00    +0.000 A 
ATOM     26  C   UNL     1       0.733   2.870  19.558  0.00  0.00    +0.000 A 
ATOM     27  C   UNL     1       1.173   3.568  20.681  0.00  0.00    +0.000 A 
ATOM     28  C   UNL     1       1.951   4.712  20.528  0.00  0.00    +0.000 A 
ENDBRANCH   1  23
TORSDOF 3
ENDMDL
MODEL 2
REMARK VINA RESULT:      -9.2      1.531      1.713
REMARK  Name = 
REMARK  3 active torsions:
REMARK  status: ('A' for Active; 'I' for Inactive)
REMARK    1  A    between atoms: C_2  and  C_3
REMARK    2  A    between atoms: C_3  and  C_4
REMARK    3  A    between atoms: C_3  and  N_10
REMARK                            x       y       z     vdW  Elec       q    Type
REMARK                         _______ _______ _______ _____ _____    ______ ____
ROOT
ATOM      1  C   UNL     1       3.011   6.170  19.380  0.00  0.00    +0.000 C 
ENDROOT
BRANCH   1   3
ATOM      2  O   UNL     1       2.583   7.855  17.677  0.00  0.00    +0.000 OA
ATOM      3  C   UNL     1       2.437   7.490  18.848  0.00  0.00    +0.000 C 
ATOM      4  N   UNL     1       1.568   8.189  19.693  0.00  0.00    +0.000 N 
ATOM      5  C   UNL     1       1.412   8.007  21.126  0.00  0.00    +0.000 C 
ATOM      6  C   UNL     1       0.208   8.854  21.544  0.00  0.00    +0.000 C 
ATOM      7  C   UNL     1       0.534   9.989  22.523  0.00  0.00    +0.000 C 
ATOM      8  C   UNL     1      -0.755  10.629  23.041  0.00  0.00    +0.000 C 
ATOM      9  C   UNL     1      -1.262  11.369  21.801  0.00  0.00    +0.000 C 
ATOM     10  C   UNL     1      -0.161  11.079  20.779  0.00  0.00    +0.000 C 
ATOM     11  O   UNL     1       1.008  11.028  21.634  0.00  0.00    +0.000 OA
ATOM     12  C   UNL     1      -0.233   9.630  20.290  0.00  0.00    +0.000 C 
ATOM     13  C   UNL     1       0.798   9.311  19.206  0.00  0.00    +0.000 C 
ENDBRANCH   1   3
BRANCH   1  14
ATOM     14  N   UNL     1       4.337   5.664  18.917  0.00  0.00    +0.000 N 
ATOM     15  C   UNL     1       4.788   4.415  19.329  0.00  0.00    +0.000 A 
ATOM     16  N   UNL     1       6.091   4.331  19.356  0.00  0.00    +0.000 NA
ATOM     17  C   UNL     1       6.513   5.495  18.789  0.00  0.00    +0.000 A 
ATOM     18  C   UNL     1       7.832   5.908  18.576  0.00  0.00    +0.000 A 
ATOM     19  C   UNL     1       8.060   7.093  17.881  0.00  0.00    +0.000 A 
ATOM     20  C   UNL     1       6.986   7.828  17.378  0.00  0.00    +0.000 A 
ATOM     21  C   UNL     1       5.655   7.455  17.627  0.00  0.00    +0.000 A 
ATOM     22  C   UNL     1       5.437   6.300  18.387  0.00  0.00    +0.000 A 
ENDBRANCH   1  14
BRANCH   1  23
ATOM     23  C   UNL     1       1.982   5.050  19.198  0.00  0.00    +0.000 A 
ATOM     24  C   UNL     1       1.799   4.466  17.936  0.00  0.00    +0.000 A 
ATOM     25  C   UNL     1       1.132   3.251  17.823  0.00  0.00    +0.000 A 
ATOM     26  C   UNL     1       0.643   2.614  18.961  0.00  0.00    +0.000 A 
ATOM     27  C   UNL     1       0.748   3.227  20.208  0.00  0.00    +0.000 A 
ATOM     28  C   UNL     1       1.389   4.457  20.326  0.00  0.00    +0.000 A 
ENDBRANCH   1  23
TORSDOF 3
ENDMDL
MODEL 3
REMARK VINA RESULT:      -9.2      0.833      1.316
REMARK  Name = 
REMARK  3 active torsions:
REMARK  status: ('A' for Active; 'I' for Inactive)
REMARK    1  A    between atoms: C_2  and  C_3
REMARK    2  A    between atoms: C_3  and  C_4
REMARK    3  A    between atoms: C_3  and  N_10
REMARK                            x       y       z     vdW  Elec       q    Type
REMARK                         _______ _______ _______ _____ _____    ______ ____
ROOT
ATOM      1  C   UNL     1       3.830   5.676  19.325  0.00  0.00    +0.000 C 
ENDROOT
BRANCH   1   3
ATOM      2  O   UNL     1       3.327   7.321  17.603  0.00  0.00    +0.000 OA
ATOM      3  C   UNL     1       3.185   6.954  18.773  0.00  0.00    +0.000 C 
ATOM      4  N   UNL     1       2.261   7.604  19.599  0.00  0.00    +0.000 N 
ATOM      5  C   UNL     1       2.092   7.421  21.031  0.00  0.00    +0.000 C 
ATOM      6  C   UNL     1       0.831   8.195  21.423  0.00  0.00    +0.000 C 
ATOM      7  C   UNL     1       1.070   9.355  22.398  0.00  0.00    +0.000 C 
ATOM      8  C   UNL     1      -0.264   9.917  22.890  0.00  0.00    +0.000 C 
ATOM      9  C   UNL     1      -0.797  10.615  21.637  0.00  0.00    +0.000 C 
ATOM     10  C   UNL     1       0.338  10.388  20.635  0.00  0.00    +0.000 C 
ATOM     11  O   UNL     1       1.493  10.415  21.509  0.00  0.00    +0.000 OA
ATOM     12  C   UNL     1       0.364   8.934  20.156  0.00  0.00    +0.000 C 
ATOM     13  C   UNL     1       1.431   8.672  19.091  0.00  0.00    +0.000 C 
ENDBRANCH   1   3
BRANCH   1  14
ATOM     14  N   UNL     1       5.085   5.128  18.729  0.00  0.00    +0.000 N 
ATOM     15  C   UNL     1       6.287   5.231  19.419  0.00  0.00    +0.000 A 
ATOM     16  N   UNL     1       7.324   5.259  18.628  0.00  0.00    +0.000 NA
ATOM     17  C   UNL     1       6.811   5.000  17.393  0.00  0.00    +0.000 A 
ATOM     18  C   UNL     1       7.506   4.918  16.183  0.00  0.00    +0.000 A 
ATOM     19  C   UNL     1       6.814   4.536  15.036  0.00  0.00    +0.000 A 
ATOM     20  C   UNL     1       5.461   4.207  15.112  0.00  0.00    +0.000 A 
ATOM     21  C   UNL     1       4.735   4.335  16.309  0.00  0.00    +0.000 A 
ATOM     22  C   UNL     1       5.425   4.788  17.439  0.00  0.00    +0.000 A 
ENDBRANCH   1  14
BRANCH   1  23
ATOM     23  C   UNL     1       2.792   4.552  19.370  0.00  0.00    +0.000 A 
ATOM     24  C   UNL     1       2.515   3.902  20.582  0.00  0.00    +0.000 A 
ATOM     25  C   UNL     1       1.365   3.131  20.711  0.00  0.00    +0.000 A 
ATOM     26  C   UNL     1       0.489   3.000  19.637  0.00  0.00    +0.000 A 
ATOM     27  C   UNL     1       0.798   3.573  18.404  0.00  0.00    +0.000 A 
ATOM     28  C   UNL     1       1.961   4.324  18.259  0.00  0.00    +0.000 A 
ENDBRANCH   1  23
TORSDOF 3
ENDMDL
MODEL 4
REMARK VINA RESULT:      -8.2      1.346      1.987
REMARK  Name = 
REMARK  3 active torsions:
REMARK  status: ('A' for Active; 'I' for Inactive)
REMARK    1  A    between atoms: C_2  and  C_3
REMARK    2  A    between atoms: C_3  and  C_4
REMARK    3  A    between atoms: C_3  and  N_10
REMARK                            x       y       z     vdW  Elec       q    Type
REMARK                         _______ _______ _______ _____ _____    ______ ____
ROOT
ATOM      1  C   UNL     1       3.384   7.175  18.571  0.00  0.00    +0.000 C 
ENDROOT
BRANCH   1   3
ATOM      2  O   UNL     1       2.289   8.834  17.166  0.00  0.00    +0.000 OA
ATOM      3  C   UNL     1       2.439   8.352  18.293  0.00  0.00    +0.000 C 
ATOM      4  N   UNL     1       1.596   8.748  19.338  0.00  0.00    +0.000 N 
ATOM      5  C   UNL     1       1.741   8.420  20.746  0.00  0.00    +0.000 C 
ATOM      6  C   UNL     1       0.468   8.910  21.440  0.00  0.00    +0.000 C 
ATOM      7  C   UNL     1       0.693  10.009  22.486  0.00  0.00    +0.000 C 
ATOM      8  C   UNL     1      -0.595  10.270  23.267  0.00  0.00    +0.000 C 
ATOM      9  C   UNL     1      -1.469  10.959  22.216  0.00  0.00    +0.000 C 
ATOM     10  C   UNL     1      -0.529  11.030  21.011  0.00  0.00    +0.000 C 
ATOM     11  O   UNL     1       0.753  11.200  21.666  0.00  0.00    +0.000 OA
ATOM     12  C   UNL     1      -0.352   9.651  20.369  0.00  0.00    +0.000 C 
ATOM     13  C   UNL     1       0.517   9.681  19.111  0.00  0.00    +0.000 C 
ENDBRANCH   1   3
BRANCH   1  14
ATOM     14  N   UNL     1       4.543   6.889  17.674  0.00  0.00    +0.000 N 
ATOM     15  C   UNL     1       4.420   7.062  16.301  0.00  0.00    +0.000 A 
ATOM     16  N   UNL     1       5.217   6.284  15.619  0.00  0.00    +0.000 NA
ATOM     17  C   UNL     1       6.006   5.702  16.565  0.00  0.00    +0.000 A 
ATOM     18  C   UNL     1       7.034   4.777  16.362  0.00  0.00    +0.000 A 
ATOM     19  C   UNL     1       7.801   4.376  17.454  0.00  0.00    +0.000 A 
ATOM     20  C   UNL     1       7.564   4.923  18.714  0.00  0.00    +0.000 A 
ATOM     21  C   UNL     1       6.502   5.814  18.945  0.00  0.00    +0.000 A 
ATOM     22  C   UNL     1       5.694   6.155  17.855  0.00  0.00    +0.000 A 
ENDBRANCH   1  14
BRANCH   1  23
ATOM     23  C   UNL     1       2.571   5.887  18.727  0.00  0.00    +0.000 A 
ATOM     24  C   UNL     1       1.881   5.357  17.626  0.00  0.00    +0.000 A 
ATOM     25  C   UNL     1       1.426   4.044  17.657  0.00  0.00    +0.000 A 
ATOM     26  C   UNL     1       1.652   3.253  18.781  0.00  0.00    +0.000 A 
ATOM     27  C   UNL     1       2.263   3.796  19.910  0.00  0.00    +0.000 A 
ATOM     28  C   UNL     1       2.696   5.119  19.898  0.00  0.00    +0.000 A 
ENDBRANCH   1  23
TORSDOF 3
ENDMDL
MODEL 5
REMARK VINA RESULT:      -8.0      1.249      1.418
REMARK  Name = 
REMARK  3 active torsions:
REMARK  status: ('A' for Active; 'I' for Inactive)
REMARK    1  A    between atoms: C_2  and  C_3
REMARK    2  A    between atoms: C_3  and  C_4
REMARK    3  A    between atoms: C_3  and  N_10
REMARK                            x       y       z     vdW  Elec       q    Type
REMARK                         _______ _______ _______ _____ _____    ______ ____
ROOT
ATOM      1  C   UNL     1       3.656   6.538  18.710  0.00  0.00    +0.000 C 
ENDROOT
BRANCH   1   3
ATOM      2  O   UNL     1       2.787   8.252  17.216  0.00  0.00    +0.000 OA
ATOM      3  C   UNL     1       2.824   7.778  18.356  0.00  0.00    +0.000 C 
ATOM      4  N   UNL     1       1.947   8.253  19.336  0.00  0.00    +0.000 N 
ATOM      5  C   UNL     1       1.971   7.938  20.755  0.00  0.00    +0.000 C 
ATOM      6  C   UNL     1       0.696   8.534  21.356  0.00  0.00    +0.000 C 
ATOM      7  C   UNL     1       0.934   9.630  22.402  0.00  0.00    +0.000 C 
ATOM      8  C   UNL     1      -0.380  10.000  23.091  0.00  0.00    +0.000 C 
ATOM      9  C   UNL     1      -1.126  10.736  21.976  0.00  0.00    +0.000 C 
ATOM     10  C   UNL     1      -0.105  10.716  20.836  0.00  0.00    +0.000 C 
ATOM     11  O   UNL     1       1.140  10.799  21.575  0.00  0.00    +0.000 OA
ATOM     12  C   UNL     1       0.008   9.317  20.224  0.00  0.00    +0.000 C 
ATOM     13  C   UNL     1       0.959   9.262  19.027  0.00  0.00    +0.000 C 
ENDBRANCH   1   3
BRANCH   1  14
ATOM     14  N   UNL     1       4.877   6.180  17.929  0.00  0.00    +0.000 N 
ATOM     15  C   UNL     1       5.939   7.073  17.847  0.00  0.00    +0.000 A 
ATOM     16  N   UNL     1       6.636   6.932  16.753  0.00  0.00    +0.000 NA
ATOM     17  C   UNL     1       6.128   5.809  16.174  0.00  0.00    +0.000 A 
ATOM     18  C   UNL     1       6.526   5.216  14.973  0.00  0.00    +0.000 A 
ATOM     19  C   UNL     1       5.952   4.003  14.599  0.00  0.00    +0.000 A 
ATOM     20  C   UNL     1       5.025   3.381  15.435  0.00  0.00    +0.000 A 
ATOM     21  C   UNL     1       4.574   3.988  16.620  0.00  0.00    +0.000 A 
ATOM     22  C   UNL     1       5.106   5.240  16.949  0.00  0.00    +0.000 A 
ENDBRANCH   1  14
BRANCH   1  23
ATOM     23  C   UNL     1       2.747   5.307  18.766  0.00  0.00    +0.000 A 
ATOM     24  C   UNL     1       1.794   5.093  17.759  0.00  0.00    +0.000 A 
ATOM     25  C   UNL     1       1.206   3.842  17.613  0.00  0.00    +0.000 A 
ATOM     26  C   UNL     1       1.560   2.800  18.467  0.00  0.00    +0.000 A 
ATOM     27  C   UNL     1       2.443   3.025  19.521  0.00  0.00    +0.000 A 
ATOM     28  C   UNL     1       3.015   4.283  19.692  0.00  0.00    +0.000 A 
ENDBRANCH   1  23
TORSDOF 3
ENDMDL
MODEL 6
REMARK VINA RESULT:      -7.7      2.581      7.799
REMARK  Name = 
REMARK  3 active torsions:
REMARK  status: ('A' for Active; 'I' for Inactive)
REMARK    1  A    between atoms: C_2  and  C_3
REMARK    2  A    between atoms: C_3  and  C_4
REMARK    3  A    between atoms: C_3  and  N_10
REMARK                            x       y       z     vdW  Elec       q    Type
REMARK                         _______ _______ _______ _____ _____    ______ ____
ROOT
ATOM      1  C   UNL     1       1.022  10.200  19.423  0.00  0.00    +0.000 C 
ENDROOT
BRANCH   1   3
ATOM      2  O   UNL     1       0.654   8.756  21.348  0.00  0.00    +0.000 OA
ATOM      3  C   UNL     1       1.181   8.912  20.242  0.00  0.00    +0.000 C 
ATOM      4  N   UNL     1       1.797   7.829  19.605  0.00  0.00    +0.000 N 
ATOM      5  C   UNL     1       2.608   7.873  18.400  0.00  0.00    +0.000 C 
ATOM      6  C   UNL     1       2.872   6.419  18.000  0.00  0.00    +0.000 C 
ATOM      7  C   UNL     1       4.349   6.007  18.028  0.00  0.00    +0.000 C 
ATOM      8  C   UNL     1       4.524   4.620  17.410  0.00  0.00    +0.000 C 
ATOM      9  C   UNL     1       3.887   3.717  18.468  0.00  0.00    +0.000 C 
ATOM     10  C   UNL     1       3.490   4.721  19.552  0.00  0.00    +0.000 C 
ATOM     11  O   UNL     1       4.551   5.701  19.428  0.00  0.00    +0.000 OA
ATOM     12  C   UNL     1       2.274   5.546  19.117  0.00  0.00    +0.000 C 
ATOM     13  C   UNL     1       1.787   6.511  20.199  0.00  0.00    +0.000 C 
ENDBRANCH   1   3
BRANCH   1  14
ATOM     14  N   UNL     1       1.403  11.526  19.992  0.00  0.00    +0.000 N 
ATOM     15  C   UNL     1       0.978  11.887  21.266  0.00  0.00    +0.000 A 
ATOM     16  N   UNL     1       0.867  13.179  21.416  0.00  0.00    +0.000 NA
ATOM     17  C   UNL     1       1.391  13.695  20.270  0.00  0.00    +0.000 A 
ATOM     18  C   UNL     1       1.512  15.044  19.922  0.00  0.00    +0.000 A 
ATOM     19  C   UNL     1       2.177  15.377  18.745  0.00  0.00    +0.000 A 
ATOM     20  C   UNL     1       2.742  14.376  17.953  0.00  0.00    +0.000 A 
ATOM     21  C   UNL     1       2.584  13.014  18.260  0.00  0.00    +0.000 A 
ATOM     22  C   UNL     1       1.853  12.690  19.408  0.00  0.00    +0.000 A 
ENDBRANCH   1  14
BRANCH   1  23
ATOM     23  C   UNL     1      -0.412  10.301  18.895  0.00  0.00    +0.000 A 
ATOM     24  C   UNL     1      -1.322  11.178  19.504  0.00  0.00    +0.000 A 
ATOM     25  C   UNL     1      -2.497  11.527  18.847  0.00  0.00    +0.000 A 
ATOM     26  C   UNL     1      -2.773  11.003  17.586  0.00  0.00    +0.000 A 
ATOM     27  C   UNL     1      -1.916  10.068  17.011  0.00  0.00    +0.000 A 
ATOM     28  C   UNL     1      -0.751   9.692  17.674  0.00  0.00    +0.000 A 
ENDBRANCH   1  23
TORSDOF 3
ENDMDL
MODEL 7
REMARK VINA RESULT:      -7.4      6.385      8.743
REMARK  Name = 
REMARK  3 active torsions:
REMARK  status: ('A' for Active; 'I' for Inactive)
REMARK    1  A    between atoms: C_2  and  C_3
REMARK    2  A    between atoms: C_3  and  C_4
REMARK    3  A    between atoms: C_3  and  N_10
REMARK                            x       y       z     vdW  Elec       q    Type
REMARK                         _______ _______ _______ _____ _____    ______ ____
ROOT
ATOM      1  C   UNL     1      -0.362  11.796  19.213  0.00  0.00    +0.000 C 
ENDROOT
BRANCH   1   3
ATOM      2  O   UNL     1      -1.194  14.073  19.430  0.00  0.00    +0.000 OA
ATOM      3  C   UNL     1      -0.234  13.325  19.221  0.00  0.00    +0.000 C 
ATOM      4  N   UNL     1       1.061  13.851  19.168  0.00  0.00    +0.000 N 
ATOM      5  C   UNL     1       2.270  13.154  18.763  0.00  0.00    +0.000 C 
ATOM      6  C   UNL     1       3.439  14.091  19.074  0.00  0.00    +0.000 C 
ATOM      7  C   UNL     1       4.237  14.547  17.846  0.00  0.00    +0.000 C 
ATOM      8  C   UNL     1       5.498  15.294  18.280  0.00  0.00    +0.000 C 
ATOM      9  C   UNL     1       4.921  16.601  18.828  0.00  0.00    +0.000 C 
ATOM     10  C   UNL     1       3.422  16.421  18.577  0.00  0.00    +0.000 C 
ATOM     11  O   UNL     1       3.434  15.645  17.353  0.00  0.00    +0.000 OA
ATOM     12  C   UNL     1       2.818  15.413  19.559  0.00  0.00    +0.000 C 
ATOM     13  C   UNL     1       1.304  15.257  19.403  0.00  0.00    +0.000 C 
ENDBRANCH   1   3
BRANCH   1  14
ATOM     14  N   UNL     1      -1.508  11.122  18.533  0.00  0.00    +0.000 N 
ATOM     15  C   UNL     1      -1.274  10.224  17.499  0.00  0.00    +0.000 A 
ATOM     16  N   UNL     1      -2.266  10.156  16.653  0.00  0.00    +0.000 NA
ATOM     17  C   UNL     1      -3.250  10.901  17.230  0.00  0.00    +0.000 A 
ATOM     18  C   UNL     1      -4.530  11.154  16.729  0.00  0.00    +0.000 A 
ATOM     19  C   UNL     1      -5.435  11.856  17.521  0.00  0.00    +0.000 A 
ATOM     20  C   UNL     1      -5.072  12.262  18.805  0.00  0.00    +0.000 A 
ATOM     21  C   UNL     1      -3.774  12.063  19.304  0.00  0.00    +0.000 A 
ATOM     22  C   UNL     1      -2.852  11.418  18.471  0.00  0.00    +0.000 A 
ENDBRANCH   1  14
BRANCH   1  23
ATOM     23  C   UNL     1      -0.279  11.264  20.647  0.00  0.00    +0.000 A 
ATOM     24  C   UNL     1      -0.910  11.960  21.690  0.00  0.00    +0.000 A 
ATOM     25  C   UNL     1      -1.127  11.333  22.911  0.00  0.00    +0.000 A 
ATOM     26  C   UNL     1      -0.716  10.016  23.103  0.00  0.00    +0.000 A 
ATOM     27  C   UNL     1      -0.015   9.347  22.103  0.00  0.00    +0.000 A 
ATOM     28  C   UNL     1       0.231   9.976  20.886  0.00  0.00    +0.000 A 
ENDBRANCH   1  23
TORSDOF 3
ENDMDL
MODEL 8
REMARK VINA RESULT:      -7.4      2.527      7.873
REMARK  Name = 
REMARK  3 active torsions:
REMARK  status: ('A' for Active; 'I' for Inactive)
REMARK    1  A    between atoms: C_2  and  C_3
REMARK    2  A    between atoms: C_3  and  C_4
REMARK    3  A    between atoms: C_3  and  N_10
REMARK                            x       y       z     vdW  Elec       q    Type
REMARK                         _______ _______ _______ _____ _____    ______ ____
ROOT
ATOM      1  C   UNL     1       0.909  10.427  18.735  0.00  0.00    +0.000 C 
ENDROOT
BRANCH   1   3
ATOM      2  O   UNL     1       0.914   9.586  21.019  0.00  0.00    +0.000 OA
ATOM      3  C   UNL     1       1.229   9.410  19.838  0.00  0.00    +0.000 C 
ATOM      4  N   UNL     1       1.732   8.170  19.429  0.00  0.00    +0.000 N 
ATOM      5  C   UNL     1       2.310   7.848  18.135  0.00  0.00    +0.000 C 
ATOM      6  C   UNL     1       2.514   6.331  18.115  0.00  0.00    +0.000 C 
ATOM      7  C   UNL     1       3.977   5.884  17.994  0.00  0.00    +0.000 C 
ATOM      8  C   UNL     1       4.053   4.375  17.765  0.00  0.00    +0.000 C 
ATOM      9  C   UNL     1       3.629   3.825  19.129  0.00  0.00    +0.000 C 
ATOM     10  C   UNL     1       3.423   5.104  19.943  0.00  0.00    +0.000 C 
ATOM     11  O   UNL     1       4.433   5.969  19.365  0.00  0.00    +0.000 OA
ATOM     12  C   UNL     1       2.140   5.824  19.519  0.00  0.00    +0.000 C 
ATOM     13  C   UNL     1       1.846   7.069  20.358  0.00  0.00    +0.000 C 
ENDBRANCH   1   3
BRANCH   1  14
ATOM     14  N   UNL     1       1.369  11.844  18.836  0.00  0.00    +0.000 N 
ATOM     15  C   UNL     1       2.324  12.331  17.951  0.00  0.00    +0.000 A 
ATOM     16  N   UNL     1       3.031  13.306  18.455  0.00  0.00    +0.000 NA
ATOM     17  C   UNL     1       2.421  13.584  19.640  0.00  0.00    +0.000 A 
ATOM     18  C   UNL     1       2.787  14.554  20.578  0.00  0.00    +0.000 A 
ATOM     19  C   UNL     1       1.969  14.759  21.687  0.00  0.00    +0.000 A 
ATOM     20  C   UNL     1       0.789  14.029  21.830  0.00  0.00    +0.000 A 
ATOM     21  C   UNL     1       0.434  13.014  20.925  0.00  0.00    +0.000 A 
ATOM     22  C   UNL     1       1.299  12.770  19.853  0.00  0.00    +0.000 A 
ENDBRANCH   1  14
BRANCH   1  23
ATOM     23  C   UNL     1      -0.598  10.434  18.461  0.00  0.00    +0.000 A 
ATOM     24  C   UNL     1      -1.431  11.327  19.151  0.00  0.00    +0.000 A 
ATOM     25  C   UNL     1      -2.717  11.577  18.687  0.00  0.00    +0.000 A 
ATOM     26  C   UNL     1      -3.181  10.940  17.538  0.00  0.00    +0.000 A 
ATOM     27  C   UNL     1      -2.391   9.990  16.895  0.00  0.00    +0.000 A 
ATOM     28  C   UNL     1      -1.112   9.712  17.369  0.00  0.00    +0.000 A 
ENDBRANCH   1  23
TORSDOF 3
ENDMDL
MODEL 9
REMARK VINA RESULT:      -7.2      6.384      8.861
REMARK  Name = 
REMARK  3 active torsions:
REMARK  status: ('A' for Active; 'I' for Inactive)
REMARK    1  A    between atoms: C_2  and  C_3
REMARK    2  A    between atoms: C_3  and  C_4
REMARK    3  A    between atoms: C_3  and  N_10
REMARK                            x       y       z     vdW  Elec       q    Type
REMARK                         _______ _______ _______ _____ _____    ______ ____
ROOT
ATOM      1  C   UNL     1      -0.830  11.707  19.294  0.00  0.00    +0.000 C 
ENDROOT
BRANCH   1   3
ATOM      2  O   UNL     1      -1.519  13.913  20.055  0.00  0.00    +0.000 OA
ATOM      3  C   UNL     1      -0.624  13.196  19.599  0.00  0.00    +0.000 C 
ATOM      4  N   UNL     1       0.686  13.683  19.518  0.00  0.00    +0.000 N 
ATOM      5  C   UNL     1       1.812  13.048  18.855  0.00  0.00    +0.000 C 
ATOM      6  C   UNL     1       3.052  13.865  19.226  0.00  0.00    +0.000 C 
ATOM      7  C   UNL     1       3.751  14.542  18.039  0.00  0.00    +0.000 C 
ATOM      8  C   UNL     1       5.084  15.144  18.481  0.00  0.00    +0.000 C 
ATOM      9  C   UNL     1       4.630  16.326  19.341  0.00  0.00    +0.000 C 
ATOM     10  C   UNL     1       3.106  16.247  19.218  0.00  0.00    +0.000 C 
ATOM     11  O   UNL     1       2.961  15.742  17.867  0.00  0.00    +0.000 OA
ATOM     12  C   UNL     1       2.549  15.076  20.032  0.00  0.00    +0.000 C 
ATOM     13  C   UNL     1       1.022  15.001  20.007  0.00  0.00    +0.000 C 
ENDBRANCH   1   3
BRANCH   1  14
ATOM     14  N   UNL     1      -1.991  11.241  18.479  0.00  0.00    +0.000 N 
ATOM     15  C   UNL     1      -1.777  10.564  17.284  0.00  0.00    +0.000 A 
ATOM     16  N   UNL     1      -2.755  10.717  16.433  0.00  0.00    +0.000 NA
ATOM     17  C   UNL     1      -3.716  11.372  17.142  0.00  0.00    +0.000 A 
ATOM     18  C   UNL     1      -4.975  11.782  16.692  0.00  0.00    +0.000 A 
ATOM     19  C   UNL     1      -5.863  12.347  17.604  0.00  0.00    +0.000 A 
ATOM     20  C   UNL     1      -5.507  12.464  18.947  0.00  0.00    +0.000 A 
ATOM     21  C   UNL     1      -4.228  12.107  19.406  0.00  0.00    +0.000 A 
ATOM     22  C   UNL     1      -3.319  11.605  18.467  0.00  0.00    +0.000 A 
ENDBRANCH   1  14
BRANCH   1  23
ATOM     23  C   UNL     1      -0.810  10.905  20.599  0.00  0.00    +0.000 A 
ATOM     24  C   UNL     1      -0.149   9.669  20.652  0.00  0.00    +0.000 A 
ATOM     25  C   UNL     1       0.162   9.100  21.881  0.00  0.00    +0.000 A 
ATOM     26  C   UNL     1      -0.184   9.754  23.061  0.00  0.00    +0.000 A 
ATOM     27  C   UNL     1      -0.915  10.940  23.018  0.00  0.00    +0.000 A 
ATOM     28  C   UNL     1      -1.255  11.503  21.791  0.00  0.00    +0.000 A 
ENDBRANCH   1  23
TORSDOF 3
ENDMDL
