MODEL 1
REMARK VINA RESULT:      -8.9      0.000      0.000
REMARK  Name = 
REMARK  4 active torsions:
REMARK  status: ('A' for Active; 'I' for Inactive)
REMARK    1  A    between atoms: C_2  and  C_3
REMARK    2  A    between atoms: C_15  and  C_16
REMARK    3  A    between atoms: C_22  and  C_24
REMARK    4  A    between atoms: C_24  and  O_25
REMARK                            x       y       z     vdW  Elec       q    Type
REMARK                         _______ _______ _______ _____ _____    ______ ____
ROOT
ATOM      1  O   UNL     1       3.948   2.123  17.718  0.00  0.00    +0.000 OA
ATOM      2  C   UNL     1       4.271   3.299  17.836  0.00  0.00    +0.000 C 
ATOM      3  N   UNL     1       3.889   4.046  18.956  0.00  0.00    +0.000 N 
ATOM      4  C   UNL     1       4.199   5.425  19.287  0.00  0.00    +0.000 C 
ATOM      5  C   UNL     1       3.100   5.901  20.246  0.00  0.00    +0.000 C 
ATOM      6  C   UNL     1       2.304   4.623  20.623  0.00  0.00    +0.000 C 
ATOM      7  F   UNL     1       2.321   4.526  21.994  0.00  0.00    +0.000 F 
ATOM      8  C   UNL     1       3.123   3.462  20.039  0.00  0.00    +0.000 C 
ENDROOT
BRANCH   2   9
ATOM      9  C   UNL     1       5.083   3.957  16.776  0.00  0.00    +0.000 A 
ATOM     10  C   UNL     1       4.794   3.766  15.411  0.00  0.00    +0.000 A 
ATOM     11  C   UNL     1       5.616   4.285  14.421  0.00  0.00    +0.000 A 
ATOM     12  F   UNL     1       5.361   3.975  13.142  0.00  0.00    +0.000 F 
ATOM     13  C   UNL     1       6.693   5.109  14.715  0.00  0.00    +0.000 A 
ATOM     14  C   UNL     1       6.909   5.382  16.066  0.00  0.00    +0.000 A 
ATOM     15  N   UNL     1       7.824   6.192  16.690  0.00  0.00    +0.000 N 
ATOM     16  C   UNL     1       7.634   6.081  18.035  0.00  0.00    +0.000 A 
ATOM     17  N   UNL     1       6.661   5.248  18.316  0.00  0.00    +0.000 NA
ATOM     18  C   UNL     1       6.155   4.822  17.104  0.00  0.00    +0.000 A 
ATOM     19  H   UNL     1       8.506   6.781  16.232  0.00  0.00    +0.000 HD
ENDBRANCH   2   9
BRANCH   5  20
ATOM     20  C   UNL     1       2.341   7.097  19.705  0.00  0.00    +0.000 A 
ATOM     21  C   UNL     1       2.335   7.432  18.340  0.00  0.00    +0.000 A 
ATOM     22  C   UNL     1       1.665   8.569  17.889  0.00  0.00    +0.000 A 
ATOM     23  C   UNL     1       0.964   9.370  18.787  0.00  0.00    +0.000 A 
ATOM     24  C   UNL     1       0.940   9.037  20.139  0.00  0.00    +0.000 A 
ATOM     25  C   UNL     1       1.629   7.914  20.597  0.00  0.00    +0.000 A 
ENDBRANCH   5  20
BRANCH   6  26
ATOM     26  C   UNL     1       0.839   4.513  20.193  0.00  0.00    +0.000 C 
BRANCH  26  27
ATOM     27  O   UNL     1       0.385   3.167  20.072  0.00  0.00    +0.000 OA
ATOM     28  H   UNL     1       0.609   2.859  19.176  0.00  0.00    +0.000 HD
ENDBRANCH  26  27
ENDBRANCH   6  26
TORSDOF 4
ENDMDL
MODEL 2
REMARK VINA RESULT:      -8.8      0.356      1.009
REMARK  Name = 
REMARK  4 active torsions:
REMARK  status: ('A' for Active; 'I' for Inactive)
REMARK    1  A    between atoms: C_2  and  C_3
REMARK    2  A    between atoms: C_15  and  C_16
REMARK    3  A    between atoms: C_22  and  C_24
REMARK    4  A    between atoms: C_24  and  O_25
REMARK                            x       y       z     vdW  Elec       q    Type
REMARK                         _______ _______ _______ _____ _____    ______ ____
ROOT
ATOM      1  O   UNL     1       3.715   1.970  17.625  0.00  0.00    +0.000 OA
ATOM      2  C   UNL     1       4.104   3.110  17.848  0.00  0.00    +0.000 C 
ATOM      3  N   UNL     1       3.730   3.788  19.013  0.00  0.00    +0.000 N 
ATOM      4  C   UNL     1       4.111   5.114  19.464  0.00  0.00    +0.000 C 
ATOM      5  C   UNL     1       3.011   5.580  20.425  0.00  0.00    +0.000 C 
ATOM      6  C   UNL     1       2.126   4.330  20.672  0.00  0.00    +0.000 C 
ATOM      7  F   UNL     1       2.089   4.124  22.031  0.00  0.00    +0.000 F 
ATOM      8  C   UNL     1       2.893   3.169  20.021  0.00  0.00    +0.000 C 
ENDROOT
BRANCH   2   9
ATOM      9  C   UNL     1       4.991   3.796  16.869  0.00  0.00    +0.000 A 
ATOM     10  C   UNL     1       4.712   3.774  15.489  0.00  0.00    +0.000 A 
ATOM     11  C   UNL     1       5.595   4.316  14.566  0.00  0.00    +0.000 A 
ATOM     12  F   UNL     1       5.338   4.163  13.260  0.00  0.00    +0.000 F 
ATOM     13  C   UNL     1       6.737   5.004  14.954  0.00  0.00    +0.000 A 
ATOM     14  C   UNL     1       6.950   5.116  16.328  0.00  0.00    +0.000 A 
ATOM     15  N   UNL     1       7.923   5.771  17.042  0.00  0.00    +0.000 N 
ATOM     16  C   UNL     1       7.698   5.540  18.366  0.00  0.00    +0.000 A 
ATOM     17  N   UNL     1       6.650   4.773  18.550  0.00  0.00    +0.000 NA
ATOM     18  C   UNL     1       6.130   4.522  17.296  0.00  0.00    +0.000 A 
ATOM     19  H   UNL     1       8.663   6.340  16.655  0.00  0.00    +0.000 HD
ENDBRANCH   2   9
BRANCH   5  20
ATOM     20  C   UNL     1       2.345   6.862  19.961  0.00  0.00    +0.000 A 
ATOM     21  C   UNL     1       1.600   7.680  20.827  0.00  0.00    +0.000 A 
ATOM     22  C   UNL     1       0.962   8.826  20.350  0.00  0.00    +0.000 A 
ATOM     23  C   UNL     1       1.086   9.189  19.012  0.00  0.00    +0.000 A 
ATOM     24  C   UNL     1       1.842   8.403  18.148  0.00  0.00    +0.000 A 
ATOM     25  C   UNL     1       2.462   7.244  18.615  0.00  0.00    +0.000 A 
ENDBRANCH   5  20
BRANCH   6  26
ATOM     26  C   UNL     1       0.672   4.348  20.192  0.00  0.00    +0.000 C 
BRANCH  26  27
ATOM     27  O   UNL     1       0.162   3.052  19.887  0.00  0.00    +0.000 OA
ATOM     28  H   UNL     1      -0.668   3.169  19.393  0.00  0.00    +0.000 HD
ENDBRANCH  26  27
ENDBRANCH   6  26
TORSDOF 4
ENDMDL
MODEL 3
REMARK VINA RESULT:      -8.3      9.843     12.860
REMARK  Name = 
REMARK  4 active torsions:
REMARK  status: ('A' for Active; 'I' for Inactive)
REMARK    1  A    between atoms: C_2  and  C_3
REMARK    2  A    between atoms: C_15  and  C_16
REMARK    3  A    between atoms: C_22  and  C_24
REMARK    4  A    between atoms: C_24  and  O_25
REMARK                            x       y       z     vdW  Elec       q    Type
REMARK                         _______ _______ _______ _____ _____    ______ ____
ROOT
ATOM      1  O   UNL     1      -6.698  12.206  23.019  0.00  0.00    +0.000 OA
ATOM      2  C   UNL     1      -5.835  12.654  22.274  0.00  0.00    +0.000 C 
ATOM      3  N   UNL     1      -6.022  12.692  20.888  0.00  0.00    +0.000 N 
ATOM      4  C   UNL     1      -5.141  13.210  19.858  0.00  0.00    +0.000 C 
ATOM      5  C   UNL     1      -5.523  12.493  18.557  0.00  0.00    +0.000 C 
ATOM      6  C   UNL     1      -6.837  11.732  18.879  0.00  0.00    +0.000 C 
ATOM      7  F   UNL     1      -7.777  12.146  17.966  0.00  0.00    +0.000 F 
ATOM      8  C   UNL     1      -7.250  12.232  20.271  0.00  0.00    +0.000 C 
ENDROOT
BRANCH   2   9
ATOM      9  C   UNL     1      -4.559  13.171  22.842  0.00  0.00    +0.000 A 
ATOM     10  C   UNL     1      -3.351  12.466  22.685  0.00  0.00    +0.000 A 
ATOM     11  C   UNL     1      -2.184  12.887  23.307  0.00  0.00    +0.000 A 
ATOM     12  F   UNL     1      -1.092  12.115  23.221  0.00  0.00    +0.000 F 
ATOM     13  C   UNL     1      -2.117  14.077  24.019  0.00  0.00    +0.000 A 
ATOM     14  C   UNL     1      -3.292  14.826  24.079  0.00  0.00    +0.000 A 
ATOM     15  N   UNL     1      -3.555  16.053  24.632  0.00  0.00    +0.000 N 
ATOM     16  C   UNL     1      -4.878  16.323  24.446  0.00  0.00    +0.000 A 
ATOM     17  N   UNL     1      -5.484  15.345  23.817  0.00  0.00    +0.000 NA
ATOM     18  C   UNL     1      -4.512  14.407  23.533  0.00  0.00    +0.000 A 
ATOM     19  H   UNL     1      -2.883  16.660  25.081  0.00  0.00    +0.000 HD
ENDBRANCH   2   9
BRANCH   5  20
ATOM     20  C   UNL     1      -4.361  11.720  17.962  0.00  0.00    +0.000 A 
ATOM     21  C   UNL     1      -3.214  11.394  18.704  0.00  0.00    +0.000 A 
ATOM     22  C   UNL     1      -2.145  10.725  18.107  0.00  0.00    +0.000 A 
ATOM     23  C   UNL     1      -2.220  10.342  16.770  0.00  0.00    +0.000 A 
ATOM     24  C   UNL     1      -3.361  10.635  16.028  0.00  0.00    +0.000 A 
ATOM     25  C   UNL     1      -4.422  11.325  16.616  0.00  0.00    +0.000 A 
ENDBRANCH   5  20
BRANCH   6  26
ATOM     26  C   UNL     1      -6.831  10.202  18.839  0.00  0.00    +0.000 C 
BRANCH  26  27
ATOM     27  O   UNL     1      -7.569   9.607  19.904  0.00  0.00    +0.000 OA
ATOM     28  H   UNL     1      -7.059   8.844  20.227  0.00  0.00    +0.000 HD
ENDBRANCH  26  27
ENDBRANCH   6  26
TORSDOF 4
ENDMDL
MODEL 4
REMARK VINA RESULT:      -8.2      1.775      2.310
REMARK  Name = 
REMARK  4 active torsions:
REMARK  status: ('A' for Active; 'I' for Inactive)
REMARK    1  A    between atoms: C_2  and  C_3
REMARK    2  A    between atoms: C_15  and  C_16
REMARK    3  A    between atoms: C_22  and  C_24
REMARK    4  A    between atoms: C_24  and  O_25
REMARK                            x       y       z     vdW  Elec       q    Type
REMARK                         _______ _______ _______ _____ _____    ______ ____
ROOT
ATOM      1  O   UNL     1       4.388   2.379  17.674  0.00  0.00    +0.000 OA
ATOM      2  C   UNL     1       4.613   3.480  18.163  0.00  0.00    +0.000 C 
ATOM      3  N   UNL     1       3.890   3.943  19.266  0.00  0.00    +0.000 N 
ATOM      4  C   UNL     1       4.031   5.189  19.997  0.00  0.00    +0.000 C 
ATOM      5  C   UNL     1       2.681   5.453  20.675  0.00  0.00    +0.000 C 
ATOM      6  C   UNL     1       1.863   4.149  20.481  0.00  0.00    +0.000 C 
ATOM      7  F   UNL     1       1.481   3.721  21.730  0.00  0.00    +0.000 F 
ATOM      8  C   UNL     1       2.865   3.139  19.901  0.00  0.00    +0.000 C 
ENDROOT
BRANCH   2   9
ATOM      9  C   UNL     1       5.672   4.348  17.580  0.00  0.00    +0.000 A 
ATOM     10  C   UNL     1       6.540   5.093  18.402  0.00  0.00    +0.000 A 
ATOM     11  C   UNL     1       7.453   5.988  17.862  0.00  0.00    +0.000 A 
ATOM     12  F   UNL     1       8.171   6.756  18.692  0.00  0.00    +0.000 F 
ATOM     13  C   UNL     1       7.638   6.115  16.492  0.00  0.00    +0.000 A 
ATOM     14  C   UNL     1       6.850   5.294  15.686  0.00  0.00    +0.000 A 
ATOM     15  N   UNL     1       6.823   5.121  14.325  0.00  0.00    +0.000 N 
ATOM     16  C   UNL     1       5.840   4.222  14.036  0.00  0.00    +0.000 A 
ATOM     17  N   UNL     1       5.229   3.812  15.121  0.00  0.00    +0.000 NA
ATOM     18  C   UNL     1       5.863   4.432  16.179  0.00  0.00    +0.000 A 
ATOM     19  H   UNL     1       7.436   5.566  13.656  0.00  0.00    +0.000 HD
ENDBRANCH   2   9
BRANCH   5  20
ATOM     20  C   UNL     1       2.065   6.770  20.242  0.00  0.00    +0.000 A 
ATOM     21  C   UNL     1       2.305   7.334  18.978  0.00  0.00    +0.000 A 
ATOM     22  C   UNL     1       1.759   8.571  18.635  0.00  0.00    +0.000 A 
ATOM     23  C   UNL     1       0.940   9.247  19.535  0.00  0.00    +0.000 A 
ATOM     24  C   UNL     1       0.672   8.689  20.782  0.00  0.00    +0.000 A 
ATOM     25  C   UNL     1       1.235   7.463  21.137  0.00  0.00    +0.000 A 
ENDBRANCH   5  20
BRANCH   6  26
ATOM     26  C   UNL     1       0.594   4.195  19.626  0.00  0.00    +0.000 C 
BRANCH  26  27
ATOM     27  O   UNL     1      -0.001   2.914  19.429  0.00  0.00    +0.000 OA
ATOM     28  H   UNL     1       0.656   2.242  19.681  0.00  0.00    +0.000 HD
ENDBRANCH  26  27
ENDBRANCH   6  26
TORSDOF 4
ENDMDL
MODEL 5
REMARK VINA RESULT:      -8.0      1.806      2.514
REMARK  Name = 
REMARK  4 active torsions:
REMARK  status: ('A' for Active; 'I' for Inactive)
REMARK    1  A    between atoms: C_2  and  C_3
REMARK    2  A    between atoms: C_15  and  C_16
REMARK    3  A    between atoms: C_22  and  C_24
REMARK    4  A    between atoms: C_24  and  O_25
REMARK                            x       y       z     vdW  Elec       q    Type
REMARK                         _______ _______ _______ _____ _____    ______ ____
ROOT
ATOM      1  O   UNL     1       4.411   2.453  17.473  0.00  0.00    +0.000 OA
ATOM      2  C   UNL     1       4.646   3.531  18.004  0.00  0.00    +0.000 C 
ATOM      3  N   UNL     1       3.915   3.966  19.114  0.00  0.00    +0.000 N 
ATOM      4  C   UNL     1       4.065   5.182  19.892  0.00  0.00    +0.000 C 
ATOM      5  C   UNL     1       2.710   5.443  20.561  0.00  0.00    +0.000 C 
ATOM      6  C   UNL     1       1.874   4.160  20.307  0.00  0.00    +0.000 C 
ATOM      7  F   UNL     1       1.468   3.694  21.535  0.00  0.00    +0.000 F 
ATOM      8  C   UNL     1       2.868   3.156  19.705  0.00  0.00    +0.000 C 
ENDROOT
BRANCH   2   9
ATOM      9  C   UNL     1       5.727   4.403  17.469  0.00  0.00    +0.000 A 
ATOM     10  C   UNL     1       6.531   5.180  18.325  0.00  0.00    +0.000 A 
ATOM     11  C   UNL     1       7.463   6.077  17.822  0.00  0.00    +0.000 A 
ATOM     12  F   UNL     1       8.116   6.876  18.677  0.00  0.00    +0.000 F 
ATOM     13  C   UNL     1       7.732   6.175  16.464  0.00  0.00    +0.000 A 
ATOM     14  C   UNL     1       7.009   5.324  15.630  0.00  0.00    +0.000 A 
ATOM     15  N   UNL     1       7.070   5.119  14.274  0.00  0.00    +0.000 N 
ATOM     16  C   UNL     1       6.121   4.198  13.946  0.00  0.00    +0.000 A 
ATOM     17  N   UNL     1       5.448   3.803  15.000  0.00  0.00    +0.000 NA
ATOM     18  C   UNL     1       6.005   4.457  16.081  0.00  0.00    +0.000 A 
ATOM     19  H   UNL     1       7.718   5.559  13.635  0.00  0.00    +0.000 HD
ENDBRANCH   2   9
BRANCH   5  20
ATOM     20  C   UNL     1       2.121   6.784  20.167  0.00  0.00    +0.000 A 
ATOM     21  C   UNL     1       1.301   7.530  21.031  0.00  0.00    +0.000 A 
ATOM     22  C   UNL     1       0.738   8.737  20.614  0.00  0.00    +0.000 A 
ATOM     23  C   UNL     1       1.013   9.232  19.342  0.00  0.00    +0.000 A 
ATOM     24  C   UNL     1       1.844   8.518  18.484  0.00  0.00    +0.000 A 
ATOM     25  C   UNL     1       2.389   7.299  18.889  0.00  0.00    +0.000 A 
ENDBRANCH   5  20
BRANCH   6  26
ATOM     26  C   UNL     1       0.618   4.258  19.437  0.00  0.00    +0.000 C 
BRANCH  26  27
ATOM     27  O   UNL     1       0.750   3.599  18.180  0.00  0.00    +0.000 OA
ATOM     28  H   UNL     1       1.137   4.233  17.552  0.00  0.00    +0.000 HD
ENDBRANCH  26  27
ENDBRANCH   6  26
TORSDOF 4
ENDMDL
MODEL 6
REMARK VINA RESULT:      -8.0      2.904      6.168
REMARK  Name = 
REMARK  4 active torsions:
REMARK  status: ('A' for Active; 'I' for Inactive)
REMARK    1  A    between atoms: C_2  and  C_3
REMARK    2  A    between atoms: C_15  and  C_16
REMARK    3  A    between atoms: C_22  and  C_24
REMARK    4  A    between atoms: C_24  and  O_25
REMARK                            x       y       z     vdW  Elec       q    Type
REMARK                         _______ _______ _______ _____ _____    ______ ____
ROOT
ATOM      1  O   UNL     1       1.855   5.824  21.526  0.00  0.00    +0.000 OA
ATOM      2  C   UNL     1       1.923   6.070  20.328  0.00  0.00    +0.000 C 
ATOM      3  N   UNL     1       2.220   5.068  19.399  0.00  0.00    +0.000 N 
ATOM      4  C   UNL     1       2.311   5.157  17.953  0.00  0.00    +0.000 C 
ATOM      5  C   UNL     1       3.210   4.001  17.500  0.00  0.00    +0.000 C 
ATOM      6  C   UNL     1       3.407   3.117  18.760  0.00  0.00    +0.000 C 
ATOM      7  F   UNL     1       2.998   1.847  18.431  0.00  0.00    +0.000 F 
ATOM      8  C   UNL     1       2.434   3.692  19.800  0.00  0.00    +0.000 C 
ENDROOT
BRANCH   2   9
ATOM      9  C   UNL     1       1.686   7.457  19.841  0.00  0.00    +0.000 A 
ATOM     10  C   UNL     1       2.100   7.860  18.557  0.00  0.00    +0.000 A 
ATOM     11  C   UNL     1       1.981   9.180  18.143  0.00  0.00    +0.000 A 
ATOM     12  F   UNL     1       2.498   9.533  16.958  0.00  0.00    +0.000 F 
ATOM     13  C   UNL     1       1.351  10.142  18.920  0.00  0.00    +0.000 A 
ATOM     14  C   UNL     1       0.847   9.709  20.146  0.00  0.00    +0.000 A 
ATOM     15  N   UNL     1       0.127  10.368  21.111  0.00  0.00    +0.000 N 
ATOM     16  C   UNL     1      -0.092   9.499  22.138  0.00  0.00    +0.000 A 
ATOM     17  N   UNL     1       0.446   8.327  21.900  0.00  0.00    +0.000 NA
ATOM     18  C   UNL     1       1.008   8.409  20.641  0.00  0.00    +0.000 A 
ATOM     19  H   UNL     1      -0.199  11.323  21.061  0.00  0.00    +0.000 HD
ENDBRANCH   2   9
BRANCH   5  20
ATOM     20  C   UNL     1       4.438   4.484  16.751  0.00  0.00    +0.000 A 
ATOM     21  C   UNL     1       5.172   3.650  15.891  0.00  0.00    +0.000 A 
ATOM     22  C   UNL     1       6.324   4.117  15.258  0.00  0.00    +0.000 A 
ATOM     23  C   UNL     1       6.741   5.432  15.448  0.00  0.00    +0.000 A 
ATOM     24  C   UNL     1       6.009   6.278  16.277  0.00  0.00    +0.000 A 
ATOM     25  C   UNL     1       4.870   5.807  16.930  0.00  0.00    +0.000 A 
ENDBRANCH   5  20
BRANCH   6  26
ATOM     26  C   UNL     1       4.811   2.985  19.356  0.00  0.00    +0.000 C 
BRANCH  26  27
ATOM     27  O   UNL     1       5.036   1.732  19.999  0.00  0.00    +0.000 OA
ATOM     28  H   UNL     1       5.942   1.450  19.787  0.00  0.00    +0.000 HD
ENDBRANCH  26  27
ENDBRANCH   6  26
TORSDOF 4
ENDMDL
MODEL 7
REMARK VINA RESULT:      -7.8      8.039     10.349
REMARK  Name = 
REMARK  4 active torsions:
REMARK  status: ('A' for Active; 'I' for Inactive)
REMARK    1  A    between atoms: C_2  and  C_3
REMARK    2  A    between atoms: C_15  and  C_16
REMARK    3  A    between atoms: C_22  and  C_24
REMARK    4  A    between atoms: C_24  and  O_25
REMARK                            x       y       z     vdW  Elec       q    Type
REMARK                         _______ _______ _______ _____ _____    ______ ____
ROOT
ATOM      1  O   UNL     1      -0.249  10.681  20.951  0.00  0.00    +0.000 OA
ATOM      2  C   UNL     1      -0.320  11.360  19.933  0.00  0.00    +0.000 C 
ATOM      3  N   UNL     1       0.673  12.291  19.614  0.00  0.00    +0.000 N 
ATOM      4  C   UNL     1       0.781  13.154  18.451  0.00  0.00    +0.000 C 
ATOM      5  C   UNL     1       1.665  14.337  18.865  0.00  0.00    +0.000 C 
ATOM      6  C   UNL     1       2.246  13.948  20.251  0.00  0.00    +0.000 C 
ATOM      7  F   UNL     1       3.615  14.018  20.149  0.00  0.00    +0.000 F 
ATOM      8  C   UNL     1       1.842  12.479  20.449  0.00  0.00    +0.000 C 
ENDROOT
BRANCH   2   9
ATOM      9  C   UNL     1      -1.479  11.199  19.013  0.00  0.00    +0.000 A 
ATOM     10  C   UNL     1      -1.409  10.348  17.893  0.00  0.00    +0.000 A 
ATOM     11  C   UNL     1      -2.446  10.282  16.973  0.00  0.00    +0.000 A 
ATOM     12  F   UNL     1      -2.279   9.546  15.865  0.00  0.00    +0.000 F 
ATOM     13  C   UNL     1      -3.643  10.958  17.162  0.00  0.00    +0.000 A 
ATOM     14  C   UNL     1      -3.745  11.714  18.329  0.00  0.00    +0.000 A 
ATOM     15  N   UNL     1      -4.788  12.439  18.848  0.00  0.00    +0.000 N 
ATOM     16  C   UNL     1      -4.360  13.023  20.003  0.00  0.00    +0.000 A 
ATOM     17  N   UNL     1      -3.108  12.726  20.256  0.00  0.00    +0.000 NA
ATOM     18  C   UNL     1      -2.702  11.873  19.249  0.00  0.00    +0.000 A 
ATOM     19  H   UNL     1      -5.716  12.512  18.454  0.00  0.00    +0.000 HD
ENDBRANCH   2   9
BRANCH   5  20
ATOM     20  C   UNL     1       0.952  15.668  18.723  0.00  0.00    +0.000 A 
ATOM     21  C   UNL     1      -0.422  15.818  18.979  0.00  0.00    +0.000 A 
ATOM     22  C   UNL     1      -1.051  17.049  18.789  0.00  0.00    +0.000 A 
ATOM     23  C   UNL     1      -0.313  18.153  18.372  0.00  0.00    +0.000 A 
ATOM     24  C   UNL     1       1.053  18.027  18.139  0.00  0.00    +0.000 A 
ATOM     25  C   UNL     1       1.681  16.792  18.305  0.00  0.00    +0.000 A 
ENDBRANCH   5  20
BRANCH   6  26
ATOM     26  C   UNL     1       1.854  14.781  21.475  0.00  0.00    +0.000 C 
BRANCH  26  27
ATOM     27  O   UNL     1       0.874  14.151  22.296  0.00  0.00    +0.000 OA
ATOM     28  H   UNL     1       0.476  13.428  21.780  0.00  0.00    +0.000 HD
ENDBRANCH  26  27
ENDBRANCH   6  26
TORSDOF 4
ENDMDL
MODEL 8
REMARK VINA RESULT:      -7.8      9.609     12.148
REMARK  Name = 
REMARK  4 active torsions:
REMARK  status: ('A' for Active; 'I' for Inactive)
REMARK    1  A    between atoms: C_2  and  C_3
REMARK    2  A    between atoms: C_15  and  C_16
REMARK    3  A    between atoms: C_22  and  C_24
REMARK    4  A    between atoms: C_24  and  O_25
REMARK                            x       y       z     vdW  Elec       q    Type
REMARK                         _______ _______ _______ _____ _____    ______ ____
ROOT
ATOM      1  O   UNL     1      -5.252  12.308  23.222  0.00  0.00    +0.000 OA
ATOM      2  C   UNL     1      -4.637  12.720  22.246  0.00  0.00    +0.000 C 
ATOM      3  N   UNL     1      -5.182  12.642  20.961  0.00  0.00    +0.000 N 
ATOM      4  C   UNL     1      -4.627  13.101  19.700  0.00  0.00    +0.000 C 
ATOM      5  C   UNL     1      -5.300  12.271  18.599  0.00  0.00    +0.000 C 
ATOM      6  C   UNL     1      -6.445  11.501  19.310  0.00  0.00    +0.000 C 
ATOM      7  F   UNL     1      -7.611  11.813  18.651  0.00  0.00    +0.000 F 
ATOM      8  C   UNL     1      -6.504  12.099  20.723  0.00  0.00    +0.000 C 
ENDROOT
BRANCH   2   9
ATOM      9  C   UNL     1      -3.284  13.318  22.419  0.00  0.00    +0.000 A 
ATOM     10  C   UNL     1      -2.118  12.579  22.142  0.00  0.00    +0.000 A 
ATOM     11  C   UNL     1      -0.857  13.094  22.408  0.00  0.00    +0.000 A 
ATOM     12  F   UNL     1       0.212  12.305  22.237  0.00  0.00    +0.000 F 
ATOM     13  C   UNL     1      -0.673  14.396  22.852  0.00  0.00    +0.000 A 
ATOM     14  C   UNL     1      -1.828  15.159  23.021  0.00  0.00    +0.000 A 
ATOM     15  N   UNL     1      -2.000  16.473  23.376  0.00  0.00    +0.000 N 
ATOM     16  C   UNL     1      -3.340  16.721  23.432  0.00  0.00    +0.000 A 
ATOM     17  N   UNL     1      -4.039  15.650  23.143  0.00  0.00    +0.000 NA
ATOM     18  C   UNL     1      -3.124  14.661  22.838  0.00  0.00    +0.000 A 
ATOM     19  H   UNL     1      -1.264  17.144  23.548  0.00  0.00    +0.000 HD
ENDBRANCH   2   9
BRANCH   5  20
ATOM     20  C   UNL     1      -4.298  11.487  17.774  0.00  0.00    +0.000 A 
ATOM     21  C   UNL     1      -3.081  11.026  18.304  0.00  0.00    +0.000 A 
ATOM     22  C   UNL     1      -2.164  10.351  17.498  0.00  0.00    +0.000 A 
ATOM     23  C   UNL     1      -2.462  10.097  16.162  0.00  0.00    +0.000 A 
ATOM     24  C   UNL     1      -3.674  10.525  15.629  0.00  0.00    +0.000 A 
ATOM     25  C   UNL     1      -4.584  11.222  16.425  0.00  0.00    +0.000 A 
ENDBRANCH   5  20
BRANCH   6  26
ATOM     26  C   UNL     1      -6.375   9.973  19.376  0.00  0.00    +0.000 C 
BRANCH  26  27
ATOM     27  O   UNL     1      -7.586   9.335  18.978  0.00  0.00    +0.000 OA
ATOM     28  H   UNL     1      -7.424   8.902  18.122  0.00  0.00    +0.000 HD
ENDBRANCH  26  27
ENDBRANCH   6  26
TORSDOF 4
ENDMDL
MODEL 9
REMARK VINA RESULT:      -7.8      7.915     10.555
REMARK  Name = 
REMARK  4 active torsions:
REMARK  status: ('A' for Active; 'I' for Inactive)
REMARK    1  A    between atoms: C_2  and  C_3
REMARK    2  A    between atoms: C_15  and  C_16
REMARK    3  A    between atoms: C_22  and  C_24
REMARK    4  A    between atoms: C_24  and  O_25
REMARK                            x       y       z     vdW  Elec       q    Type
REMARK                         _______ _______ _______ _____ _____    ______ ____
ROOT
ATOM      1  O   UNL     1       0.658  11.525  21.513  0.00  0.00    +0.000 OA
ATOM      2  C   UNL     1       0.468  12.021  20.409  0.00  0.00    +0.000 C 
ATOM      3  N   UNL     1       1.336  12.988  19.890  0.00  0.00    +0.000 N 
ATOM      4  C   UNL     1       1.296  13.659  18.604  0.00  0.00    +0.000 C 
ATOM      5  C   UNL     1       2.059  14.978  18.776  0.00  0.00    +0.000 C 
ATOM      6  C   UNL     1       2.739  14.879  20.168  0.00  0.00    +0.000 C 
ATOM      7  F   UNL     1       4.086  15.073  19.974  0.00  0.00    +0.000 F 
ATOM      8  C   UNL     1       2.512  13.427  20.614  0.00  0.00    +0.000 C 
ENDROOT
BRANCH   2   9
ATOM      9  C   UNL     1      -0.704  11.596  19.596  0.00  0.00    +0.000 A 
ATOM     10  C   UNL     1      -0.596  10.566  18.641  0.00  0.00    +0.000 A 
ATOM     11  C   UNL     1      -1.656  10.245  17.805  0.00  0.00    +0.000 A 
ATOM     12  F   UNL     1      -1.461   9.339  16.836  0.00  0.00    +0.000 F 
ATOM     13  C   UNL     1      -2.905  10.836  17.938  0.00  0.00    +0.000 A 
ATOM     14  C   UNL     1      -3.035  11.778  18.958  0.00  0.00    +0.000 A 
ATOM     15  N   UNL     1      -4.122  12.490  19.398  0.00  0.00    +0.000 N 
ATOM     16  C   UNL     1      -3.708  13.307  20.407  0.00  0.00    +0.000 A 
ATOM     17  N   UNL     1      -2.424  13.173  20.639  0.00  0.00    +0.000 NA
ATOM     18  C   UNL     1      -1.976  12.191  19.777  0.00  0.00    +0.000 A 
ATOM     19  H   UNL     1      -5.067  12.409  19.049  0.00  0.00    +0.000 HD
ENDBRANCH   2   9
BRANCH   5  20
ATOM     20  C   UNL     1       1.196  16.188  18.473  0.00  0.00    +0.000 A 
ATOM     21  C   UNL     1       1.723  17.374  17.934  0.00  0.00    +0.000 A 
ATOM     22  C   UNL     1       0.904  18.482  17.715  0.00  0.00    +0.000 A 
ATOM     23  C   UNL     1      -0.457  18.412  17.999  0.00  0.00    +0.000 A 
ATOM     24  C   UNL     1      -0.999  17.236  18.510  0.00  0.00    +0.000 A 
ATOM     25  C   UNL     1      -0.179  16.134  18.752  0.00  0.00    +0.000 A 
ENDBRANCH   5  20
BRANCH   6  26
ATOM     26  C   UNL     1       2.310  15.852  21.269  0.00  0.00    +0.000 C 
BRANCH  26  27
ATOM     27  O   UNL     1       1.723  15.205  22.396  0.00  0.00    +0.000 OA
ATOM     28  H   UNL     1       1.146  14.497  22.063  0.00  0.00    +0.000 HD
ENDBRANCH  26  27
ENDBRANCH   6  26
TORSDOF 4
ENDMDL
