MODEL 1
REMARK VINA RESULT:      -9.0      0.000      0.000
REMARK  Name = 
REMARK  4 active torsions:
REMARK  status: ('A' for Active; 'I' for Inactive)
REMARK    1  A    between atoms: C_6  and  C_7
REMARK    2  A    between atoms: C_7  and  C_8
REMARK    3  A    between atoms: C_8  and  C_9
REMARK    4  A    between atoms: C_9  and  C_10
REMARK                            x       y       z     vdW  Elec       q    Type
REMARK                         _______ _______ _______ _____ _____    ______ ____
ROOT
ATOM      1  C   UNL     1       3.132   3.455  17.952  0.00  0.00    +0.000 C 
ATOM      2  O   UNL     1       2.428   3.265  16.956  0.00  0.00    +0.000 OA
ATOM      3  N   UNL     1       4.445   3.914  17.860  0.00  0.00    +0.000 N 
ATOM      4  C   UNL     1       5.413   4.220  18.978  0.00  0.00    +0.000 C 
ATOM      5  C   UNL     1       6.517   5.070  18.289  0.00  0.00    +0.000 C 
ATOM      6  C   UNL     1       7.896   5.558  18.884  0.00  0.00    +0.000 C 
ATOM      7  C   UNL     1       7.650   6.895  18.124  0.00  0.00    +0.000 C 
ATOM      8  C   UNL     1       6.150   6.617  18.358  0.00  0.00    +0.000 C 
ATOM      9  C   UNL     1       6.411   4.545  16.815  0.00  0.00    +0.000 A 
ATOM     10  C   UNL     1       7.295   4.672  15.740  0.00  0.00    +0.000 A 
ATOM     11  C   UNL     1       6.790   4.587  14.446  0.00  0.00    +0.000 A 
ATOM     12 BR   UNL     1       7.901   5.025  12.981  0.00  0.00    +0.000 Br
ATOM     13  C   UNL     1       5.443   4.289  14.234  0.00  0.00    +0.000 A 
ATOM     14  C   UNL     1       4.608   3.987  15.314  0.00  0.00    +0.000 A 
ATOM     15  C   UNL     1       5.110   4.087  16.604  0.00  0.00    +0.000 A 
ENDROOT
BRANCH   1  16
ATOM     16  C   UNL     1       2.523   3.156  19.331  0.00  0.00    +0.000 C 
BRANCH  16  17
ATOM     17  C   UNL     1       1.659   4.372  19.795  0.00  0.00    +0.000 C 
BRANCH  17  18
ATOM     18  C   UNL     1       2.442   5.596  20.322  0.00  0.00    +0.000 C 
BRANCH  18  24
ATOM     19  O   UNL     1       0.326  12.529  18.977  0.00  0.00    +0.000 OA
ATOM     20  C   UNL     1       0.740  11.384  19.035  0.00  0.00    +0.000 C 
ATOM     21  C   UNL     1       0.605  10.412  20.220  0.00  0.00    +0.000 C 
ATOM     22  C   UNL     1       1.305   9.179  19.704  0.00  0.00    +0.000 A 
ATOM     23  C   UNL     1       1.519   7.952  20.316  0.00  0.00    +0.000 A 
ATOM     24  C   UNL     1       2.214   6.936  19.616  0.00  0.00    +0.000 A 
ATOM     25  C   UNL     1       2.665   7.220  18.298  0.00  0.00    +0.000 A 
ATOM     26  C   UNL     1       2.435   8.469  17.691  0.00  0.00    +0.000 A 
ATOM     27  C   UNL     1       1.757   9.423  18.420  0.00  0.00    +0.000 A 
ATOM     28  N   UNL     1       1.431  10.712  18.026  0.00  0.00    +0.000 N 
ATOM     29  H   UNL     1       1.644  11.129  17.147  0.00  0.00    +0.000 HD
ENDBRANCH  18  24
ENDBRANCH  17  18
ENDBRANCH  16  17
ENDBRANCH   1  16
TORSDOF 4
ENDMDL
MODEL 2
REMARK VINA RESULT:      -8.6      1.613      1.964
REMARK  Name = 
REMARK  4 active torsions:
REMARK  status: ('A' for Active; 'I' for Inactive)
REMARK    1  A    between atoms: C_6  and  C_7
REMARK    2  A    between atoms: C_7  and  C_8
REMARK    3  A    between atoms: C_8  and  C_9
REMARK    4  A    between atoms: C_9  and  C_10
REMARK                            x       y       z     vdW  Elec       q    Type
REMARK                         _______ _______ _______ _____ _____    ______ ____
ROOT
ATOM      1  C   UNL     1       3.509   4.157  18.466  0.00  0.00    +0.000 C 
ATOM      2  O   UNL     1       2.760   3.684  17.606  0.00  0.00    +0.000 OA
ATOM      3  N   UNL     1       4.764   4.677  18.156  0.00  0.00    +0.000 N 
ATOM      4  C   UNL     1       5.773   5.311  19.084  0.00  0.00    +0.000 C 
ATOM      5  C   UNL     1       6.744   6.053  18.124  0.00  0.00    +0.000 C 
ATOM      6  C   UNL     1       8.108   6.769  18.467  0.00  0.00    +0.000 C 
ATOM      7  C   UNL     1       7.688   7.867  17.445  0.00  0.00    +0.000 C 
ATOM      8  C   UNL     1       6.240   7.541  17.866  0.00  0.00    +0.000 C 
ATOM      9  C   UNL     1       6.588   5.188  16.826  0.00  0.00    +0.000 A 
ATOM     10  C   UNL     1       7.382   5.122  15.677  0.00  0.00    +0.000 A 
ATOM     11  C   UNL     1       6.800   4.695  14.487  0.00  0.00    +0.000 A 
ATOM     12 BR   UNL     1       7.765   4.854  12.870  0.00  0.00    +0.000 Br
ATOM     13  C   UNL     1       5.476   4.255  14.468  0.00  0.00    +0.000 A 
ATOM     14  C   UNL     1       4.747   4.156  15.657  0.00  0.00    +0.000 A 
ATOM     15  C   UNL     1       5.324   4.597  16.840  0.00  0.00    +0.000 A 
ENDROOT
BRANCH   1  16
ATOM     16  C   UNL     1       3.025   4.148  19.925  0.00  0.00    +0.000 C 
BRANCH  16  17
ATOM     17  C   UNL     1       2.066   5.358  20.163  0.00  0.00    +0.000 C 
BRANCH  17  18
ATOM     18  C   UNL     1       2.500   6.700  19.530  0.00  0.00    +0.000 C 
BRANCH  18  24
ATOM     19  O   UNL     1      -1.333  11.593  23.494  0.00  0.00    +0.000 OA
ATOM     20  C   UNL     1      -0.719  10.897  22.704  0.00  0.00    +0.000 C 
ATOM     21  C   UNL     1      -0.107   9.513  22.976  0.00  0.00    +0.000 C 
ATOM     22  C   UNL     1       0.515   9.170  21.645  0.00  0.00    +0.000 A 
ATOM     23  C   UNL     1       1.224   8.043  21.253  0.00  0.00    +0.000 A 
ATOM     24  C   UNL     1       1.714   7.953  19.928  0.00  0.00    +0.000 A 
ATOM     25  C   UNL     1       1.454   9.036  19.043  0.00  0.00    +0.000 A 
ATOM     26  C   UNL     1       0.730  10.170  19.456  0.00  0.00    +0.000 A 
ATOM     27  C   UNL     1       0.279  10.206  20.758  0.00  0.00    +0.000 A 
ATOM     28  N   UNL     1      -0.440  11.218  21.375  0.00  0.00    +0.000 N 
ATOM     29  H   UNL     1      -0.736  12.070  20.952  0.00  0.00    +0.000 HD
ENDBRANCH  18  24
ENDBRANCH  17  18
ENDBRANCH  16  17
ENDBRANCH   1  16
TORSDOF 4
ENDMDL
MODEL 3
REMARK VINA RESULT:      -8.4      3.950      8.877
REMARK  Name = 
REMARK  4 active torsions:
REMARK  status: ('A' for Active; 'I' for Inactive)
REMARK    1  A    between atoms: C_6  and  C_7
REMARK    2  A    between atoms: C_7  and  C_8
REMARK    3  A    between atoms: C_8  and  C_9
REMARK    4  A    between atoms: C_9  and  C_10
REMARK                            x       y       z     vdW  Elec       q    Type
REMARK                         _______ _______ _______ _____ _____    ______ ____
ROOT
ATOM      1  C   UNL     1       1.663   8.233  19.959  0.00  0.00    +0.000 C 
ATOM      2  O   UNL     1       1.629   7.608  21.023  0.00  0.00    +0.000 OA
ATOM      3  N   UNL     1       1.012   9.453  19.790  0.00  0.00    +0.000 N 
ATOM      4  C   UNL     1       0.985  10.342  18.569  0.00  0.00    +0.000 C 
ATOM      5  C   UNL     1       0.477  11.705  19.115  0.00  0.00    +0.000 C 
ATOM      6  C   UNL     1       0.072  12.999  18.305  0.00  0.00    +0.000 C 
ATOM      7  C   UNL     1       0.756  13.816  19.441  0.00  0.00    +0.000 C 
ATOM      8  C   UNL     1       1.702  12.606  19.584  0.00  0.00    +0.000 C 
ATOM      9  C   UNL     1      -0.361  11.230  20.353  0.00  0.00    +0.000 A 
ATOM     10  C   UNL     1      -1.316  11.906  21.117  0.00  0.00    +0.000 A 
ATOM     11  C   UNL     1      -1.539  11.490  22.426  0.00  0.00    +0.000 A 
ATOM     12 BR   UNL     1      -2.614  12.545  23.568  0.00  0.00    +0.000 Br
ATOM     13  C   UNL     1      -0.888  10.363  22.928  0.00  0.00    +0.000 A 
ATOM     14  C   UNL     1      -0.072   9.589  22.097  0.00  0.00    +0.000 A 
ATOM     15  C   UNL     1       0.162  10.015  20.797  0.00  0.00    +0.000 A 
ENDROOT
BRANCH   1  16
ATOM     16  C   UNL     1       2.446   7.616  18.788  0.00  0.00    +0.000 C 
BRANCH  16  17
ATOM     17  C   UNL     1       2.521   6.067  18.970  0.00  0.00    +0.000 C 
BRANCH  17  18
ATOM     18  C   UNL     1       3.915   5.493  19.316  0.00  0.00    +0.000 C 
BRANCH  18  24
ATOM     19  O   UNL     1       7.209   4.438  12.807  0.00  0.00    +0.000 OA
ATOM     20  C   UNL     1       6.819   4.681  13.935  0.00  0.00    +0.000 C 
ATOM     21  C   UNL     1       5.431   4.368  14.519  0.00  0.00    +0.000 C 
ATOM     22  C   UNL     1       5.546   4.901  15.926  0.00  0.00    +0.000 A 
ATOM     23  C   UNL     1       4.616   4.917  16.954  0.00  0.00    +0.000 A 
ATOM     24  C   UNL     1       4.968   5.482  18.204  0.00  0.00    +0.000 A 
ATOM     25  C   UNL     1       6.277   6.015  18.353  0.00  0.00    +0.000 A 
ATOM     26  C   UNL     1       7.210   5.988  17.300  0.00  0.00    +0.000 A 
ATOM     27  C   UNL     1       6.814   5.428  16.104  0.00  0.00    +0.000 A 
ATOM     28  N   UNL     1       7.560   5.303  14.941  0.00  0.00    +0.000 N 
ATOM     29  H   UNL     1       8.500   5.604  14.812  0.00  0.00    +0.000 HD
ENDBRANCH  18  24
ENDBRANCH  17  18
ENDBRANCH  16  17
ENDBRANCH   1  16
TORSDOF 4
ENDMDL
MODEL 4
REMARK VINA RESULT:      -8.2      2.052      3.589
REMARK  Name = 
REMARK  4 active torsions:
REMARK  status: ('A' for Active; 'I' for Inactive)
REMARK    1  A    between atoms: C_6  and  C_7
REMARK    2  A    between atoms: C_7  and  C_8
REMARK    3  A    between atoms: C_8  and  C_9
REMARK    4  A    between atoms: C_9  and  C_10
REMARK                            x       y       z     vdW  Elec       q    Type
REMARK                         _______ _______ _______ _____ _____    ______ ____
ROOT
ATOM      1  C   UNL     1       4.545   2.596  18.941  0.00  0.00    +0.000 C 
ATOM      2  O   UNL     1       5.053   2.687  20.062  0.00  0.00    +0.000 OA
ATOM      3  N   UNL     1       4.832   3.497  17.917  0.00  0.00    +0.000 N 
ATOM      4  C   UNL     1       4.317   3.500  16.497  0.00  0.00    +0.000 C 
ATOM      5  C   UNL     1       5.291   4.456  15.753  0.00  0.00    +0.000 C 
ATOM      6  C   UNL     1       5.188   5.009  14.278  0.00  0.00    +0.000 C 
ATOM      7  C   UNL     1       6.732   4.824  14.195  0.00  0.00    +0.000 C 
ATOM      8  C   UNL     1       6.526   3.643  15.166  0.00  0.00    +0.000 C 
ATOM      9  C   UNL     1       5.752   5.380  16.933  0.00  0.00    +0.000 A 
ATOM     10  C   UNL     1       6.398   6.620  16.918  0.00  0.00    +0.000 A 
ATOM     11  C   UNL     1       7.146   6.996  18.029  0.00  0.00    +0.000 A 
ATOM     12 BR   UNL     1       8.247   8.529  17.935  0.00  0.00    +0.000 Br
ATOM     13  C   UNL     1       7.171   6.190  19.168  0.00  0.00    +0.000 A 
ATOM     14  C   UNL     1       6.377   5.041  19.238  0.00  0.00    +0.000 A 
ATOM     15  C   UNL     1       5.644   4.659  18.123  0.00  0.00    +0.000 A 
ENDROOT
BRANCH   1  16
ATOM     16  C   UNL     1       3.554   1.449  18.692  0.00  0.00    +0.000 C 
BRANCH  16  17
ATOM     17  C   UNL     1       2.227   1.729  19.468  0.00  0.00    +0.000 C 
BRANCH  17  18
ATOM     18  C   UNL     1       1.263   2.746  18.814  0.00  0.00    +0.000 C 
BRANCH  18  24
ATOM     19  O   UNL     1       2.527   9.970  18.057  0.00  0.00    +0.000 OA
ATOM     20  C   UNL     1       2.309   8.809  18.355  0.00  0.00    +0.000 C 
ATOM     21  C   UNL     1       2.229   7.608  17.396  0.00  0.00    +0.000 C 
ATOM     22  C   UNL     1       1.934   6.465  18.337  0.00  0.00    +0.000 A 
ATOM     23  C   UNL     1       1.745   5.117  18.072  0.00  0.00    +0.000 A 
ATOM     24  C   UNL     1       1.476   4.228  19.141  0.00  0.00    +0.000 A 
ATOM     25  C   UNL     1       1.413   4.762  20.457  0.00  0.00    +0.000 A 
ATOM     26  C   UNL     1       1.611   6.133  20.708  0.00  0.00    +0.000 A 
ATOM     27  C   UNL     1       1.866   6.954  19.630  0.00  0.00    +0.000 A 
ATOM     28  N   UNL     1       2.082   8.323  19.644  0.00  0.00    +0.000 N 
ATOM     29  H   UNL     1       2.085   8.909  20.450  0.00  0.00    +0.000 HD
ENDBRANCH  18  24
ENDBRANCH  17  18
ENDBRANCH  16  17
ENDBRANCH   1  16
TORSDOF 4
ENDMDL
MODEL 5
REMARK VINA RESULT:      -8.1      4.118      9.116
REMARK  Name = 
REMARK  4 active torsions:
REMARK  status: ('A' for Active; 'I' for Inactive)
REMARK    1  A    between atoms: C_6  and  C_7
REMARK    2  A    between atoms: C_7  and  C_8
REMARK    3  A    between atoms: C_8  and  C_9
REMARK    4  A    between atoms: C_9  and  C_10
REMARK                            x       y       z     vdW  Elec       q    Type
REMARK                         _______ _______ _______ _____ _____    ______ ____
ROOT
ATOM      1  C   UNL     1       1.185   8.744  21.009  0.00  0.00    +0.000 C 
ATOM      2  O   UNL     1       1.278   8.577  22.228  0.00  0.00    +0.000 OA
ATOM      3  N   UNL     1       0.391   9.744  20.452  0.00  0.00    +0.000 N 
ATOM      4  C   UNL     1       0.199  10.089  18.993  0.00  0.00    +0.000 C 
ATOM      5  C   UNL     1      -0.433  11.508  19.029  0.00  0.00    +0.000 C 
ATOM      6  C   UNL     1      -1.024  12.350  17.831  0.00  0.00    +0.000 C 
ATOM      7  C   UNL     1      -0.381  13.598  18.506  0.00  0.00    +0.000 C 
ATOM      8  C   UNL     1       0.704  12.622  19.009  0.00  0.00    +0.000 C 
ATOM      9  C   UNL     1      -1.146  11.476  20.425  0.00  0.00    +0.000 A 
ATOM     10  C   UNL     1      -2.131  12.310  20.962  0.00  0.00    +0.000 A 
ATOM     11  C   UNL     1      -2.237  12.411  22.345  0.00  0.00    +0.000 A 
ATOM     12 BR   UNL     1      -3.366  13.728  23.098  0.00  0.00    +0.000 Br
ATOM     13  C   UNL     1      -1.436  11.625  23.174  0.00  0.00    +0.000 A 
ATOM     14  C   UNL     1      -0.581  10.665  22.625  0.00  0.00    +0.000 A 
ATOM     15  C   UNL     1      -0.465  10.575  21.245  0.00  0.00    +0.000 A 
ENDROOT
BRANCH   1  16
ATOM     16  C   UNL     1       1.972   7.795  20.091  0.00  0.00    +0.000 C 
BRANCH  16  17
ATOM     17  C   UNL     1       1.722   6.317  20.532  0.00  0.00    +0.000 C 
BRANCH  17  18
ATOM     18  C   UNL     1       1.797   5.254  19.412  0.00  0.00    +0.000 C 
BRANCH  18  24
ATOM     19  O   UNL     1       7.629   5.259  14.903  0.00  0.00    +0.000 OA
ATOM     20  C   UNL     1       6.759   5.146  15.748  0.00  0.00    +0.000 C 
ATOM     21  C   UNL     1       5.369   5.806  15.735  0.00  0.00    +0.000 C 
ATOM     22  C   UNL     1       4.763   5.303  17.023  0.00  0.00    +0.000 A 
ATOM     23  C   UNL     1       3.517   5.552  17.580  0.00  0.00    +0.000 A 
ATOM     24  C   UNL     1       3.176   4.953  18.818  0.00  0.00    +0.000 A 
ATOM     25  C   UNL     1       4.137   4.113  19.443  0.00  0.00    +0.000 A 
ATOM     26  C   UNL     1       5.395   3.869  18.861  0.00  0.00    +0.000 A 
ATOM     27  C   UNL     1       5.676   4.479  17.657  0.00  0.00    +0.000 A 
ATOM     28  N   UNL     1       6.844   4.387  16.916  0.00  0.00    +0.000 N 
ATOM     29  H   UNL     1       7.652   3.856  17.156  0.00  0.00    +0.000 HD
ENDBRANCH  18  24
ENDBRANCH  17  18
ENDBRANCH  16  17
ENDBRANCH   1  16
TORSDOF 4
ENDMDL
MODEL 6
REMARK VINA RESULT:      -8.0      1.012      1.538
REMARK  Name = 
REMARK  4 active torsions:
REMARK  status: ('A' for Active; 'I' for Inactive)
REMARK    1  A    between atoms: C_6  and  C_7
REMARK    2  A    between atoms: C_7  and  C_8
REMARK    3  A    between atoms: C_8  and  C_9
REMARK    4  A    between atoms: C_9  and  C_10
REMARK                            x       y       z     vdW  Elec       q    Type
REMARK                         _______ _______ _______ _____ _____    ______ ____
ROOT
ATOM      1  C   UNL     1       3.632   3.854  18.324  0.00  0.00    +0.000 C 
ATOM      2  O   UNL     1       2.907   3.387  17.442  0.00  0.00    +0.000 OA
ATOM      3  N   UNL     1       4.858   4.454  18.042  0.00  0.00    +0.000 N 
ATOM      4  C   UNL     1       5.835   5.092  19.001  0.00  0.00    +0.000 C 
ATOM      5  C   UNL     1       6.764   5.930  18.079  0.00  0.00    +0.000 C 
ATOM      6  C   UNL     1       8.091   6.698  18.459  0.00  0.00    +0.000 C 
ATOM      7  C   UNL     1       7.612   7.823  17.493  0.00  0.00    +0.000 C 
ATOM      8  C   UNL     1       6.184   7.401  17.897  0.00  0.00    +0.000 C 
ATOM      9  C   UNL     1       6.650   5.125  16.739  0.00  0.00    +0.000 A 
ATOM     10  C   UNL     1       7.444   5.159  15.589  0.00  0.00    +0.000 A 
ATOM     11  C   UNL     1       6.882   4.763  14.379  0.00  0.00    +0.000 A 
ATOM     12 BR   UNL     1       7.833   5.054  12.772  0.00  0.00    +0.000 Br
ATOM     13  C   UNL     1       5.582   4.257  14.337  0.00  0.00    +0.000 A 
ATOM     14  C   UNL     1       4.862   4.060  15.520  0.00  0.00    +0.000 A 
ATOM     15  C   UNL     1       5.418   4.470  16.723  0.00  0.00    +0.000 A 
ENDROOT
BRANCH   1  16
ATOM     16  C   UNL     1       3.153   3.747  19.781  0.00  0.00    +0.000 C 
BRANCH  16  17
ATOM     17  C   UNL     1       2.237   4.966  20.119  0.00  0.00    +0.000 C 
BRANCH  17  18
ATOM     18  C   UNL     1       2.655   6.319  19.499  0.00  0.00    +0.000 C 
BRANCH  18  24
ATOM     19  O   UNL     1      -0.602  12.931  19.376  0.00  0.00    +0.000 OA
ATOM     20  C   UNL     1      -0.119  11.829  19.563  0.00  0.00    +0.000 C 
ATOM     21  C   UNL     1       0.701  10.998  18.562  0.00  0.00    +0.000 C 
ATOM     22  C   UNL     1       1.008   9.751  19.355  0.00  0.00    +0.000 A 
ATOM     23  C   UNL     1       1.719   8.615  18.995  0.00  0.00    +0.000 A 
ATOM     24  C   UNL     1       1.872   7.563  19.930  0.00  0.00    +0.000 A 
ATOM     25  C   UNL     1       1.284   7.718  21.215  0.00  0.00    +0.000 A 
ATOM     26  C   UNL     1       0.569   8.879  21.565  0.00  0.00    +0.000 A 
ATOM     27  C   UNL     1       0.448   9.871  20.615  0.00  0.00    +0.000 A 
ATOM     28  N   UNL     1      -0.214  11.083  20.740  0.00  0.00    +0.000 N 
ATOM     29  H   UNL     1      -0.697  11.408  21.547  0.00  0.00    +0.000 HD
ENDBRANCH  18  24
ENDBRANCH  17  18
ENDBRANCH  16  17
ENDBRANCH   1  16
TORSDOF 4
ENDMDL
MODEL 7
REMARK VINA RESULT:      -7.9      7.266     10.358
REMARK  Name = 
REMARK  4 active torsions:
REMARK  status: ('A' for Active; 'I' for Inactive)
REMARK    1  A    between atoms: C_6  and  C_7
REMARK    2  A    between atoms: C_7  and  C_8
REMARK    3  A    between atoms: C_8  and  C_9
REMARK    4  A    between atoms: C_9  and  C_10
REMARK                            x       y       z     vdW  Elec       q    Type
REMARK                         _______ _______ _______ _____ _____    ______ ____
ROOT
ATOM      1  C   UNL     1       9.925  11.795  19.292  0.00  0.00    +0.000 C 
ATOM      2  O   UNL     1       9.927  11.408  20.464  0.00  0.00    +0.000 OA
ATOM      3  N   UNL     1      10.055  13.140  18.951  0.00  0.00    +0.000 N 
ATOM      4  C   UNL     1      10.099  13.759  17.574  0.00  0.00    +0.000 C 
ATOM      5  C   UNL     1      10.668  15.183  17.828  0.00  0.00    +0.000 C 
ATOM      6  C   UNL     1      10.798  16.384  16.811  0.00  0.00    +0.000 C 
ATOM      7  C   UNL     1      12.169  16.691  17.485  0.00  0.00    +0.000 C 
ATOM      8  C   UNL     1      12.257  15.170  17.730  0.00  0.00    +0.000 C 
ATOM      9  C   UNL     1      10.210  15.422  19.308  0.00  0.00    +0.000 A 
ATOM     10  C   UNL     1      10.139  16.599  20.058  0.00  0.00    +0.000 A 
ATOM     11  C   UNL     1      10.201  16.510  21.445  0.00  0.00    +0.000 A 
ATOM     12 BR   UNL     1      10.382  18.087  22.472  0.00  0.00    +0.000 Br
ATOM     13  C   UNL     1      10.240  15.264  22.071  0.00  0.00    +0.000 A 
ATOM     14  C   UNL     1      10.130  14.091  21.318  0.00  0.00    +0.000 A 
ATOM     15  C   UNL     1      10.084  14.181  19.934  0.00  0.00    +0.000 A 
ENDROOT
BRANCH   1  16
ATOM     16  C   UNL     1       9.758  10.739  18.187  0.00  0.00    +0.000 C 
BRANCH  16  17
ATOM     17  C   UNL     1       8.490   9.875  18.480  0.00  0.00    +0.000 C 
BRANCH  17  18
ATOM     18  C   UNL     1       8.083   8.875  17.373  0.00  0.00    +0.000 C 
BRANCH  18  24
ATOM     19  O   UNL     1       3.818   2.887  17.921  0.00  0.00    +0.000 OA
ATOM     20  C   UNL     1       4.622   3.802  17.957  0.00  0.00    +0.000 C 
ATOM     21  C   UNL     1       4.580   5.099  17.131  0.00  0.00    +0.000 C 
ATOM     22  C   UNL     1       5.820   5.819  17.602  0.00  0.00    +0.000 A 
ATOM     23  C   UNL     1       6.337   7.050  17.223  0.00  0.00    +0.000 A 
ATOM     24  C   UNL     1       7.534   7.516  17.819  0.00  0.00    +0.000 A 
ATOM     25  C   UNL     1       8.162   6.693  18.793  0.00  0.00    +0.000 A 
ATOM     26  C   UNL     1       7.622   5.449  19.169  0.00  0.00    +0.000 A 
ATOM     27  C   UNL     1       6.456   5.042  18.554  0.00  0.00    +0.000 A 
ATOM     28  N   UNL     1       5.760   3.861  18.763  0.00  0.00    +0.000 N 
ATOM     29  H   UNL     1       6.010   3.136  19.397  0.00  0.00    +0.000 HD
ENDBRANCH  18  24
ENDBRANCH  17  18
ENDBRANCH  16  17
ENDBRANCH   1  16
TORSDOF 4
ENDMDL
MODEL 8
REMARK VINA RESULT:      -7.9      4.146      9.267
REMARK  Name = 
REMARK  4 active torsions:
REMARK  status: ('A' for Active; 'I' for Inactive)
REMARK    1  A    between atoms: C_6  and  C_7
REMARK    2  A    between atoms: C_7  and  C_8
REMARK    3  A    between atoms: C_8  and  C_9
REMARK    4  A    between atoms: C_9  and  C_10
REMARK                            x       y       z     vdW  Elec       q    Type
REMARK                         _______ _______ _______ _____ _____    ______ ____
ROOT
ATOM      1  C   UNL     1       0.909   8.843  21.210  0.00  0.00    +0.000 C 
ATOM      2  O   UNL     1       0.897   8.641  22.428  0.00  0.00    +0.000 OA
ATOM      3  N   UNL     1       0.189   9.879  20.619  0.00  0.00    +0.000 N 
ATOM      4  C   UNL     1       0.128  10.268  19.161  0.00  0.00    +0.000 C 
ATOM      5  C   UNL     1      -0.469  11.702  19.186  0.00  0.00    +0.000 C 
ATOM      6  C   UNL     1      -0.938  12.592  17.968  0.00  0.00    +0.000 C 
ATOM      7  C   UNL     1      -0.322  13.803  18.730  0.00  0.00    +0.000 C 
ATOM      8  C   UNL     1       0.692  12.785  19.291  0.00  0.00    +0.000 C 
ATOM      9  C   UNL     1      -1.296  11.652  20.517  0.00  0.00    +0.000 A 
ATOM     10  C   UNL     1      -2.301  12.498  20.995  0.00  0.00    +0.000 A 
ATOM     11  C   UNL     1      -2.519  12.565  22.368  0.00  0.00    +0.000 A 
ATOM     12 BR   UNL     1      -3.673  13.891  23.063  0.00  0.00    +0.000 Br
ATOM     13  C   UNL     1      -1.809  11.735  23.236  0.00  0.00    +0.000 A 
ATOM     14  C   UNL     1      -0.936  10.767  22.732  0.00  0.00    +0.000 A 
ATOM     15  C   UNL     1      -0.708  10.711  21.364  0.00  0.00    +0.000 A 
ENDROOT
BRANCH   1  16
ATOM     16  C   UNL     1       1.745   7.897  20.333  0.00  0.00    +0.000 C 
BRANCH  16  17
ATOM     17  C   UNL     1       1.212   6.437  20.486  0.00  0.00    +0.000 C 
BRANCH  17  18
ATOM     18  C   UNL     1       2.279   5.352  20.760  0.00  0.00    +0.000 C 
BRANCH  18  24
ATOM     19  O   UNL     1       7.883   4.451  16.055  0.00  0.00    +0.000 OA
ATOM     20  C   UNL     1       6.868   4.489  16.728  0.00  0.00    +0.000 C 
ATOM     21  C   UNL     1       6.634   5.323  17.999  0.00  0.00    +0.000 C 
ATOM     22  C   UNL     1       5.219   4.951  18.371  0.00  0.00    +0.000 A 
ATOM     23  C   UNL     1       4.434   5.374  19.434  0.00  0.00    +0.000 A 
ATOM     24  C   UNL     1       3.117   4.872  19.570  0.00  0.00    +0.000 A 
ATOM     25  C   UNL     1       2.649   3.946  18.598  0.00  0.00    +0.000 A 
ATOM     26  C   UNL     1       3.457   3.531  17.524  0.00  0.00    +0.000 A 
ATOM     27  C   UNL     1       4.733   4.049  17.441  0.00  0.00    +0.000 A 
ATOM     28  N   UNL     1       5.695   3.775  16.481  0.00  0.00    +0.000 N 
ATOM     29  H   UNL     1       5.591   3.159  15.705  0.00  0.00    +0.000 HD
ENDBRANCH  18  24
ENDBRANCH  17  18
ENDBRANCH  16  17
ENDBRANCH   1  16
TORSDOF 4
ENDMDL
MODEL 9
REMARK VINA RESULT:      -7.9      1.932      3.247
REMARK  Name = 
REMARK  4 active torsions:
REMARK  status: ('A' for Active; 'I' for Inactive)
REMARK    1  A    between atoms: C_6  and  C_7
REMARK    2  A    between atoms: C_7  and  C_8
REMARK    3  A    between atoms: C_8  and  C_9
REMARK    4  A    between atoms: C_9  and  C_10
REMARK                            x       y       z     vdW  Elec       q    Type
REMARK                         _______ _______ _______ _____ _____    ______ ____
ROOT
ATOM      1  C   UNL     1       4.564   2.716  18.996  0.00  0.00    +0.000 C 
ATOM      2  O   UNL     1       5.087   2.768  20.113  0.00  0.00    +0.000 OA
ATOM      3  N   UNL     1       4.880   3.620  17.983  0.00  0.00    +0.000 N 
ATOM      4  C   UNL     1       4.353   3.666  16.568  0.00  0.00    +0.000 C 
ATOM      5  C   UNL     1       5.360   4.590  15.829  0.00  0.00    +0.000 C 
ATOM      6  C   UNL     1       5.268   5.169  14.363  0.00  0.00    +0.000 C 
ATOM      7  C   UNL     1       6.802   4.918  14.261  0.00  0.00    +0.000 C 
ATOM      8  C   UNL     1       6.553   3.733  15.217  0.00  0.00    +0.000 C 
ATOM      9  C   UNL     1       5.873   5.475  17.018  0.00  0.00    +0.000 A 
ATOM     10  C   UNL     1       6.572   6.685  17.014  0.00  0.00    +0.000 A 
ATOM     11  C   UNL     1       7.346   7.012  18.123  0.00  0.00    +0.000 A 
ATOM     12 BR   UNL     1       8.512   8.497  18.040  0.00  0.00    +0.000 Br
ATOM     13  C   UNL     1       7.347   6.189  19.249  0.00  0.00    +0.000 A 
ATOM     14  C   UNL     1       6.504   5.074  19.311  0.00  0.00    +0.000 A 
ATOM     15  C   UNL     1       5.745   4.741  18.198  0.00  0.00    +0.000 A 
ENDROOT
BRANCH   1  16
ATOM     16  C   UNL     1       3.521   1.617  18.741  0.00  0.00    +0.000 C 
BRANCH  16  17
ATOM     17  C   UNL     1       2.086   2.216  18.884  0.00  0.00    +0.000 C 
BRANCH  17  18
ATOM     18  C   UNL     1       1.875   3.189  20.068  0.00  0.00    +0.000 C 
BRANCH  18  24
ATOM     19  O   UNL     1       1.087  10.482  20.797  0.00  0.00    +0.000 OA
ATOM     20  C   UNL     1       1.259   9.311  20.508  0.00  0.00    +0.000 C 
ATOM     21  C   UNL     1       1.073   8.096  21.433  0.00  0.00    +0.000 C 
ATOM     22  C   UNL     1       1.434   6.945  20.526  0.00  0.00    +0.000 A 
ATOM     23  C   UNL     1       1.465   5.582  20.782  0.00  0.00    +0.000 A 
ATOM     24  C   UNL     1       1.842   4.687  19.751  0.00  0.00    +0.000 A 
ATOM     25  C   UNL     1       2.178   5.232  18.481  0.00  0.00    +0.000 A 
ATOM     26  C   UNL     1       2.138   6.618  18.238  0.00  0.00    +0.000 A 
ATOM     27  C   UNL     1       1.766   7.443  19.278  0.00  0.00    +0.000 A 
ATOM     28  N   UNL     1       1.667   8.826  19.265  0.00  0.00    +0.000 N 
ATOM     29  H   UNL     1       1.852   9.420  18.488  0.00  0.00    +0.000 HD
ENDBRANCH  18  24
ENDBRANCH  17  18
ENDBRANCH  16  17
ENDBRANCH   1  16
TORSDOF 4
ENDMDL
