MODEL 1
REMARK VINA RESULT:      -8.6      0.000      0.000
REMARK  Name = 
REMARK  3 active torsions:
REMARK  status: ('A' for Active; 'I' for Inactive)
REMARK    1  A    between atoms: C_1  and  C_2
REMARK    2  A    between atoms: C_8  and  C_9
REMARK    3  A    between atoms: N_28  and  C_29
REMARK                            x       y       z     vdW  Elec       q    Type
REMARK                         _______ _______ _______ _____ _____    ______ ____
ROOT
ATOM      1  C   UNL     1       4.348  15.953  18.585  0.00  0.00    +0.000 C 
ATOM      2  O   UNL     1       3.959  17.136  18.620  0.00  0.00    +0.000 OA
ATOM      3  N   UNL     1       5.791  15.738  18.633  0.00  0.00    +0.000 N 
ATOM      4  C   UNL     1       6.515  17.018  18.755  0.00  0.00    +0.000 C 
ATOM      5  C   UNL     1       8.035  17.147  18.940  0.00  0.00    +0.000 C 
ATOM      6  C   UNL     1       8.945  16.000  19.338  0.00  0.00    +0.000 C 
ATOM      7  N   UNL     1       8.692  14.663  18.838  0.00  0.00    +0.000 N 
ATOM      8  C   UNL     1       7.673  14.228  18.022  0.00  0.00    +0.000 A 
ATOM      9  C   UNL     1       8.106  13.019  17.506  0.00  0.00    +0.000 A 
ATOM     10  C   UNL     1       9.099  12.516  18.372  0.00  0.00    +0.000 A 
ATOM     11  C   UNL     1       9.641  11.240  18.552  0.00  0.00    +0.000 A 
ATOM     12  C   UNL     1      10.655  11.054  19.490  0.00  0.00    +0.000 A 
ATOM     13  C   UNL     1      11.190  12.147  20.165  0.00  0.00    +0.000 A 
ATOM     14  C   UNL     1      10.655  13.438  19.999  0.00  0.00    +0.000 A 
ATOM     15  C   UNL     1       9.549  13.593  19.135  0.00  0.00    +0.000 A 
ATOM     16  C   UNL     1       6.358  14.837  17.659  0.00  0.00    +0.000 C 
ENDROOT
BRANCH   1  24
ATOM     17  C   UNL     1      -1.566  10.280  18.898  0.00  0.00    +0.000 C 
ATOM     18  C   UNL     1      -0.491  11.247  18.358  0.00  0.00    +0.000 C 
ATOM     19  C   UNL     1       0.881  10.550  18.261  0.00  0.00    +0.000 C 
ATOM     20  O   UNL     1       1.017   9.324  18.110  0.00  0.00    +0.000 OA
ATOM     21  N   UNL     1       1.985  11.366  18.196  0.00  0.00    +0.000 N 
ATOM     22  C   UNL     1       1.947  12.763  18.417  0.00  0.00    +0.000 A 
ATOM     23  C   UNL     1       3.165  13.544  18.249  0.00  0.00    +0.000 A 
ATOM     24  C   UNL     1       3.185  14.927  18.504  0.00  0.00    +0.000 A 
ATOM     25  C   UNL     1       1.932  15.460  18.891  0.00  0.00    +0.000 A 
ATOM     26  C   UNL     1       0.752  14.694  19.063  0.00  0.00    +0.000 A 
ATOM     27  C   UNL     1       0.715  13.320  18.855  0.00  0.00    +0.000 A 
ATOM     28  N   UNL     1      -0.404  12.521  19.121  0.00  0.00    +0.000 N 
ATOM     29  C   UNL     1      -1.608  13.001  19.796  0.00  0.00    +0.000 C 
ATOM     30  H   UNL     1       2.861  10.895  18.021  0.00  0.00    +0.000 HD
ENDBRANCH   1  24
TORSDOF 1
ENDMDL
MODEL 2
REMARK VINA RESULT:      -8.5      4.485      7.872
REMARK  Name = 
REMARK  3 active torsions:
REMARK  status: ('A' for Active; 'I' for Inactive)
REMARK    1  A    between atoms: C_1  and  C_2
REMARK    2  A    between atoms: C_8  and  C_9
REMARK    3  A    between atoms: N_28  and  C_29
REMARK                            x       y       z     vdW  Elec       q    Type
REMARK                         _______ _______ _______ _____ _____    ______ ____
ROOT
ATOM      1  C   UNL     1       0.870   9.087  20.464  0.00  0.00    +0.000 C 
ATOM      2  O   UNL     1       0.031   8.551  21.211  0.00  0.00    +0.000 OA
ATOM      3  N   UNL     1       0.919  10.546  20.475  0.00  0.00    +0.000 N 
ATOM      4  C   UNL     1      -0.052  11.102  21.438  0.00  0.00    +0.000 C 
ATOM      5  C   UNL     1      -0.185  12.595  21.779  0.00  0.00    +0.000 C 
ATOM      6  C   UNL     1       0.852  13.645  21.428  0.00  0.00    +0.000 C 
ATOM      7  N   UNL     1       1.576  13.561  20.174  0.00  0.00    +0.000 N 
ATOM      8  C   UNL     1       1.488  12.601  19.192  0.00  0.00    +0.000 A 
ATOM      9  C   UNL     1       2.036  13.182  18.061  0.00  0.00    +0.000 A 
ATOM     10  C   UNL     1       2.873  14.235  18.484  0.00  0.00    +0.000 A 
ATOM     11  C   UNL     1       3.906  14.935  17.854  0.00  0.00    +0.000 A 
ATOM     12  C   UNL     1       4.545  15.969  18.535  0.00  0.00    +0.000 A 
ATOM     13  C   UNL     1       4.091  16.365  19.789  0.00  0.00    +0.000 A 
ATOM     14  C   UNL     1       3.055  15.670  20.440  0.00  0.00    +0.000 A 
ATOM     15  C   UNL     1       2.495  14.548  19.790  0.00  0.00    +0.000 A 
ATOM     16  C   UNL     1       0.925  11.217  19.199  0.00  0.00    +0.000 C 
ENDROOT
BRANCH   1  24
ATOM     17  C   UNL     1       6.005   4.043  16.532  0.00  0.00    +0.000 C 
ATOM     18  C   UNL     1       4.766   4.898  16.873  0.00  0.00    +0.000 C 
ATOM     19  C   UNL     1       4.896   6.319  16.287  0.00  0.00    +0.000 C 
ATOM     20  O   UNL     1       5.578   6.585  15.283  0.00  0.00    +0.000 OA
ATOM     21  N   UNL     1       4.095   7.290  16.838  0.00  0.00    +0.000 N 
ATOM     22  C   UNL     1       3.332   7.109  18.015  0.00  0.00    +0.000 A 
ATOM     23  C   UNL     1       2.458   8.181  18.470  0.00  0.00    +0.000 A 
ATOM     24  C   UNL     1       1.717   8.063  19.660  0.00  0.00    +0.000 A 
ATOM     25  C   UNL     1       1.882   6.822  20.320  0.00  0.00    +0.000 A 
ATOM     26  C   UNL     1       2.741   5.785  19.879  0.00  0.00    +0.000 A 
ATOM     27  C   UNL     1       3.514   5.892  18.728  0.00  0.00    +0.000 A 
ATOM     28  N   UNL     1       4.452   4.933  18.326  0.00  0.00    +0.000 N 
ATOM     29  C   UNL     1       4.849   3.789  19.143  0.00  0.00    +0.000 C 
ATOM     30  H   UNL     1       4.115   8.184  16.368  0.00  0.00    +0.000 HD
ENDBRANCH   1  24
TORSDOF 1
ENDMDL
MODEL 3
REMARK VINA RESULT:      -8.1      5.735      8.780
REMARK  Name = 
REMARK  3 active torsions:
REMARK  status: ('A' for Active; 'I' for Inactive)
REMARK    1  A    between atoms: C_1  and  C_2
REMARK    2  A    between atoms: C_8  and  C_9
REMARK    3  A    between atoms: N_28  and  C_29
REMARK                            x       y       z     vdW  Elec       q    Type
REMARK                         _______ _______ _______ _____ _____    ______ ____
ROOT
ATOM      1  C   UNL     1       1.785   5.979  20.206  0.00  0.00    +0.000 C 
ATOM      2  O   UNL     1       0.984   5.379  20.946  0.00  0.00    +0.000 OA
ATOM      3  N   UNL     1       2.694   5.151  19.419  0.00  0.00    +0.000 N 
ATOM      4  C   UNL     1       2.436   3.716  19.646  0.00  0.00    +0.000 C 
ATOM      5  C   UNL     1       3.137   2.573  18.894  0.00  0.00    +0.000 C 
ATOM      6  C   UNL     1       3.936   2.758  17.618  0.00  0.00    +0.000 C 
ATOM      7  N   UNL     1       4.746   3.945  17.431  0.00  0.00    +0.000 N 
ATOM      8  C   UNL     1       4.900   5.023  18.274  0.00  0.00    +0.000 A 
ATOM      9  C   UNL     1       6.060   5.652  17.857  0.00  0.00    +0.000 A 
ATOM     10  C   UNL     1       6.295   5.272  16.520  0.00  0.00    +0.000 A 
ATOM     11  C   UNL     1       7.086   5.819  15.505  0.00  0.00    +0.000 A 
ATOM     12  C   UNL     1       7.139   5.188  14.264  0.00  0.00    +0.000 A 
ATOM     13  C   UNL     1       6.490   3.972  14.072  0.00  0.00    +0.000 A 
ATOM     14  C   UNL     1       5.687   3.408  15.080  0.00  0.00    +0.000 A 
ATOM     15  C   UNL     1       5.546   4.118  16.292  0.00  0.00    +0.000 A 
ATOM     16  C   UNL     1       4.092   5.503  19.436  0.00  0.00    +0.000 C 
ENDROOT
BRANCH   1  24
ATOM     17  C   UNL     1       0.324  14.049  20.153  0.00  0.00    +0.000 C 
ATOM     18  C   UNL     1       1.063  12.695  20.157  0.00  0.00    +0.000 C 
ATOM     19  C   UNL     1       1.354  12.218  18.720  0.00  0.00    +0.000 C 
ATOM     20  O   UNL     1       1.479  12.991  17.755  0.00  0.00    +0.000 OA
ATOM     21  N   UNL     1       1.624  10.880  18.555  0.00  0.00    +0.000 N 
ATOM     22  C   UNL     1       1.451   9.910  19.569  0.00  0.00    +0.000 A 
ATOM     23  C   UNL     1       1.840   8.531  19.310  0.00  0.00    +0.000 A 
ATOM     24  C   UNL     1       1.642   7.524  20.273  0.00  0.00    +0.000 A 
ATOM     25  C   UNL     1       1.079   7.989  21.485  0.00  0.00    +0.000 A 
ATOM     26  C   UNL     1       0.693   9.330  21.729  0.00  0.00    +0.000 A 
ATOM     27  C   UNL     1       0.842  10.336  20.781  0.00  0.00    +0.000 A 
ATOM     28  N   UNL     1       0.371  11.645  20.951  0.00  0.00    +0.000 N 
ATOM     29  C   UNL     1      -0.470  12.070  22.068  0.00  0.00    +0.000 C 
ATOM     30  H   UNL     1       1.920  10.610  17.627  0.00  0.00    +0.000 HD
ENDBRANCH   1  24
TORSDOF 1
ENDMDL
MODEL 4
REMARK VINA RESULT:      -8.0      1.307      1.581
REMARK  Name = 
REMARK  3 active torsions:
REMARK  status: ('A' for Active; 'I' for Inactive)
REMARK    1  A    between atoms: C_1  and  C_2
REMARK    2  A    between atoms: C_8  and  C_9
REMARK    3  A    between atoms: N_28  and  C_29
REMARK                            x       y       z     vdW  Elec       q    Type
REMARK                         _______ _______ _______ _____ _____    ______ ____
ROOT
ATOM      1  C   UNL     1       4.326  16.096  19.054  0.00  0.00    +0.000 C 
ATOM      2  O   UNL     1       3.965  17.287  19.097  0.00  0.00    +0.000 OA
ATOM      3  N   UNL     1       5.745  15.852  18.818  0.00  0.00    +0.000 N 
ATOM      4  C   UNL     1       6.492  17.120  18.713  0.00  0.00    +0.000 C 
ATOM      5  C   UNL     1       8.019  17.225  18.575  0.00  0.00    +0.000 C 
ATOM      6  C   UNL     1       8.980  16.083  18.846  0.00  0.00    +0.000 C 
ATOM      7  N   UNL     1       8.616  14.725  18.489  0.00  0.00    +0.000 N 
ATOM      8  C   UNL     1       7.446  14.269  17.925  0.00  0.00    +0.000 A 
ATOM      9  C   UNL     1       7.751  13.023  17.405  0.00  0.00    +0.000 A 
ATOM     10  C   UNL     1       8.896  12.547  18.078  0.00  0.00    +0.000 A 
ATOM     11  C   UNL     1       9.450  11.272  18.218  0.00  0.00    +0.000 A 
ATOM     12  C   UNL     1      10.633  11.116  18.938  0.00  0.00    +0.000 A 
ATOM     13  C   UNL     1      11.306  12.232  19.423  0.00  0.00    +0.000 A 
ATOM     14  C   UNL     1      10.762  13.523  19.294  0.00  0.00    +0.000 A 
ATOM     15  C   UNL     1       9.504  13.655  18.667  0.00  0.00    +0.000 A 
ATOM     16  C   UNL     1       6.091  14.886  17.804  0.00  0.00    +0.000 C 
ENDROOT
BRANCH   1  24
ATOM     17  C   UNL     1      -1.451  10.308  19.679  0.00  0.00    +0.000 C 
ATOM     18  C   UNL     1      -0.752  11.684  19.659  0.00  0.00    +0.000 C 
ATOM     19  C   UNL     1      -0.809  12.313  18.253  0.00  0.00    +0.000 C 
ATOM     20  O   UNL     1      -1.698  12.057  17.424  0.00  0.00    +0.000 OA
ATOM     21  N   UNL     1       0.099  13.310  17.985  0.00  0.00    +0.000 N 
ATOM     22  C   UNL     1       1.184  13.636  18.831  0.00  0.00    +0.000 A 
ATOM     23  C   UNL     1       2.042  14.762  18.487  0.00  0.00    +0.000 A 
ATOM     24  C   UNL     1       3.160  15.094  19.273  0.00  0.00    +0.000 A 
ATOM     25  C   UNL     1       3.331  14.266  20.409  0.00  0.00    +0.000 A 
ATOM     26  C   UNL     1       2.500  13.166  20.734  0.00  0.00    +0.000 A 
ATOM     27  C   UNL     1       1.412  12.794  19.953  0.00  0.00    +0.000 A 
ATOM     28  N   UNL     1       0.638  11.650  20.186  0.00  0.00    +0.000 N 
ATOM     29  C   UNL     1       0.974  10.626  21.174  0.00  0.00    +0.000 C 
ATOM     30  H   UNL     1      -0.028  13.784  17.101  0.00  0.00    +0.000 HD
ENDBRANCH   1  24
TORSDOF 1
ENDMDL
MODEL 5
REMARK VINA RESULT:      -7.9      3.648      6.927
REMARK  Name = 
REMARK  3 active torsions:
REMARK  status: ('A' for Active; 'I' for Inactive)
REMARK    1  A    between atoms: C_1  and  C_2
REMARK    2  A    between atoms: C_8  and  C_9
REMARK    3  A    between atoms: N_28  and  C_29
REMARK                            x       y       z     vdW  Elec       q    Type
REMARK                         _______ _______ _______ _____ _____    ______ ____
ROOT
ATOM      1  C   UNL     1       0.278  10.843  19.052  0.00  0.00    +0.000 C 
ATOM      2  O   UNL     1      -0.942  10.622  18.946  0.00  0.00    +0.000 OA
ATOM      3  N   UNL     1       0.691  12.243  19.060  0.00  0.00    +0.000 N 
ATOM      4  C   UNL     1      -0.477  13.141  18.974  0.00  0.00    +0.000 C 
ATOM      5  C   UNL     1      -0.408  14.673  19.068  0.00  0.00    +0.000 C 
ATOM      6  C   UNL     1       0.799  15.443  19.574  0.00  0.00    +0.000 C 
ATOM      7  N   UNL     1       2.138  14.978  19.270  0.00  0.00    +0.000 N 
ATOM      8  C   UNL     1       2.521  13.857  18.568  0.00  0.00    +0.000 A 
ATOM      9  C   UNL     1       3.835  14.087  18.200  0.00  0.00    +0.000 A 
ATOM     10  C   UNL     1       4.362  15.056  19.078  0.00  0.00    +0.000 A 
ATOM     11  C   UNL     1       5.670  15.429  19.401  0.00  0.00    +0.000 A 
ATOM     12  C   UNL     1       5.880  16.468  20.306  0.00  0.00    +0.000 A 
ATOM     13  C   UNL     1       4.799  17.190  20.802  0.00  0.00    +0.000 A 
ATOM     14  C   UNL     1       3.476  16.827  20.491  0.00  0.00    +0.000 A 
ATOM     15  C   UNL     1       3.273  15.698  19.667  0.00  0.00    +0.000 A 
ATOM     16  C   UNL     1       1.780  12.616  18.190  0.00  0.00    +0.000 C 
ENDROOT
BRANCH   1  24
ATOM     17  C   UNL     1       4.116   3.601  19.358  0.00  0.00    +0.000 C 
ATOM     18  C   UNL     1       3.696   5.051  19.679  0.00  0.00    +0.000 C 
ATOM     19  C   UNL     1       2.576   5.081  20.738  0.00  0.00    +0.000 C 
ATOM     20  O   UNL     1       2.407   4.184  21.582  0.00  0.00    +0.000 OA
ATOM     21  N   UNL     1       1.833   6.235  20.820  0.00  0.00    +0.000 N 
ATOM     22  C   UNL     1       1.903   7.285  19.875  0.00  0.00    +0.000 A 
ATOM     23  C   UNL     1       1.127   8.497  20.099  0.00  0.00    +0.000 A 
ATOM     24  C   UNL     1       1.129   9.548  19.164  0.00  0.00    +0.000 A 
ATOM     25  C   UNL     1       1.963   9.320  18.043  0.00  0.00    +0.000 A 
ATOM     26  C   UNL     1       2.708   8.135  17.825  0.00  0.00    +0.000 A 
ATOM     27  C   UNL     1       2.694   7.066  18.714  0.00  0.00    +0.000 A 
ATOM     28  N   UNL     1       3.331   5.842  18.475  0.00  0.00    +0.000 N 
ATOM     29  C   UNL     1       3.949   5.481  17.201  0.00  0.00    +0.000 C 
ATOM     30  H   UNL     1       1.181   6.275  21.590  0.00  0.00    +0.000 HD
ENDBRANCH   1  24
TORSDOF 1
ENDMDL
MODEL 6
REMARK VINA RESULT:      -7.8      5.737      8.779
REMARK  Name = 
REMARK  3 active torsions:
REMARK  status: ('A' for Active; 'I' for Inactive)
REMARK    1  A    between atoms: C_1  and  C_2
REMARK    2  A    between atoms: C_8  and  C_9
REMARK    3  A    between atoms: N_28  and  C_29
REMARK                            x       y       z     vdW  Elec       q    Type
REMARK                         _______ _______ _______ _____ _____    ______ ____
ROOT
ATOM      1  C   UNL     1       1.850   6.158  20.150  0.00  0.00    +0.000 C 
ATOM      2  O   UNL     1       1.172   5.597  21.030  0.00  0.00    +0.000 OA
ATOM      3  N   UNL     1       2.802   5.321  19.426  0.00  0.00    +0.000 N 
ATOM      4  C   UNL     1       2.732   3.920  19.882  0.00  0.00    +0.000 C 
ATOM      5  C   UNL     1       3.518   2.757  19.256  0.00  0.00    +0.000 C 
ATOM      6  C   UNL     1       4.212   2.827  17.908  0.00  0.00    +0.000 C 
ATOM      7  N   UNL     1       4.862   4.052  17.487  0.00  0.00    +0.000 N 
ATOM      8  C   UNL     1       4.936   5.258  18.146  0.00  0.00    +0.000 A 
ATOM      9  C   UNL     1       5.985   5.937  17.552  0.00  0.00    +0.000 A 
ATOM     10  C   UNL     1       6.184   5.382  16.272  0.00  0.00    +0.000 A 
ATOM     11  C   UNL     1       6.842   5.846  15.130  0.00  0.00    +0.000 A 
ATOM     12  C   UNL     1       6.896   5.039  13.995  0.00  0.00    +0.000 A 
ATOM     13  C   UNL     1       6.387   3.745  14.036  0.00  0.00    +0.000 A 
ATOM     14  C   UNL     1       5.718   3.261  15.175  0.00  0.00    +0.000 A 
ATOM     15  C   UNL     1       5.566   4.131  16.276  0.00  0.00    +0.000 A 
ATOM     16  C   UNL     1       4.147   5.822  19.283  0.00  0.00    +0.000 C 
ENDROOT
BRANCH   1  24
ATOM     17  C   UNL     1       0.836  14.288  19.762  0.00  0.00    +0.000 C 
ATOM     18  C   UNL     1       0.534  12.775  19.826  0.00  0.00    +0.000 C 
ATOM     19  C   UNL     1       0.359  12.307  21.285  0.00  0.00    +0.000 C 
ATOM     20  O   UNL     1      -0.018  13.055  22.202  0.00  0.00    +0.000 OA
ATOM     21  N   UNL     1       0.496  10.960  21.522  0.00  0.00    +0.000 N 
ATOM     22  C   UNL     1       0.979  10.036  20.566  0.00  0.00    +0.000 A 
ATOM     23  C   UNL     1       1.012   8.619  20.899  0.00  0.00    +0.000 A 
ATOM     24  C   UNL     1       1.527   7.670  19.998  0.00  0.00    +0.000 A 
ATOM     25  C   UNL     1       1.960   8.220  18.767  0.00  0.00    +0.000 A 
ATOM     26  C   UNL     1       1.935   9.601  18.452  0.00  0.00    +0.000 A 
ATOM     27  C   UNL     1       1.467  10.563  19.339  0.00  0.00    +0.000 A 
ATOM     28  N   UNL     1       1.530  11.941  19.101  0.00  0.00    +0.000 N 
ATOM     29  C   UNL     1       2.237  12.542  17.971  0.00  0.00    +0.000 C 
ATOM     30  H   UNL     1       0.268  10.661  22.460  0.00  0.00    +0.000 HD
ENDBRANCH   1  24
TORSDOF 1
ENDMDL
MODEL 7
REMARK VINA RESULT:      -7.7      4.137      7.483
REMARK  Name = 
REMARK  3 active torsions:
REMARK  status: ('A' for Active; 'I' for Inactive)
REMARK    1  A    between atoms: C_1  and  C_2
REMARK    2  A    between atoms: C_8  and  C_9
REMARK    3  A    between atoms: N_28  and  C_29
REMARK                            x       y       z     vdW  Elec       q    Type
REMARK                         _______ _______ _______ _____ _____    ______ ____
ROOT
ATOM      1  C   UNL     1       0.348   9.891  20.603  0.00  0.00    +0.000 C 
ATOM      2  O   UNL     1      -0.748   9.642  21.139  0.00  0.00    +0.000 OA
ATOM      3  N   UNL     1       0.641  11.295  20.336  0.00  0.00    +0.000 N 
ATOM      4  C   UNL     1      -0.452  12.166  20.810  0.00  0.00    +0.000 C 
ATOM      5  C   UNL     1      -0.418  13.702  20.785  0.00  0.00    +0.000 C 
ATOM      6  C   UNL     1       0.840  14.523  20.574  0.00  0.00    +0.000 C 
ATOM      7  N   UNL     1       1.865  14.063  19.657  0.00  0.00    +0.000 N 
ATOM      8  C   UNL     1       1.895  12.906  18.912  0.00  0.00    +0.000 A 
ATOM      9  C   UNL     1       2.833  13.134  17.919  0.00  0.00    +0.000 A 
ATOM     10  C   UNL     1       3.683  14.168  18.364  0.00  0.00    +0.000 A 
ATOM     11  C   UNL     1       4.956  14.584  17.965  0.00  0.00    +0.000 A 
ATOM     12  C   UNL     1       5.544  15.682  18.590  0.00  0.00    +0.000 A 
ATOM     13  C   UNL     1       4.827  16.416  19.529  0.00  0.00    +0.000 A 
ATOM     14  C   UNL     1       3.546  16.010  19.946  0.00  0.00    +0.000 A 
ATOM     15  C   UNL     1       3.010  14.827  19.392  0.00  0.00    +0.000 A 
ATOM     16  C   UNL     1       1.125  11.631  19.019  0.00  0.00    +0.000 C 
ENDROOT
BRANCH   1  24
ATOM     17  C   UNL     1       4.161   2.837  18.878  0.00  0.00    +0.000 C 
ATOM     18  C   UNL     1       3.790   4.175  19.552  0.00  0.00    +0.000 C 
ATOM     19  C   UNL     1       2.806   3.952  20.719  0.00  0.00    +0.000 C 
ATOM     20  O   UNL     1       2.738   2.892  21.363  0.00  0.00    +0.000 OA
ATOM     21  N   UNL     1       2.085   5.046  21.136  0.00  0.00    +0.000 N 
ATOM     22  C   UNL     1       2.044   6.275  20.439  0.00  0.00    +0.000 A 
ATOM     23  C   UNL     1       1.307   7.394  21.010  0.00  0.00    +0.000 A 
ATOM     24  C   UNL     1       1.199   8.621  20.330  0.00  0.00    +0.000 A 
ATOM     25  C   UNL     1       1.890   8.657  19.095  0.00  0.00    +0.000 A 
ATOM     26  C   UNL     1       2.598   7.563  18.539  0.00  0.00    +0.000 A 
ATOM     27  C   UNL     1       2.686   6.328  19.172  0.00  0.00    +0.000 A 
ATOM     28  N   UNL     1       3.284   5.198  18.599  0.00  0.00    +0.000 N 
ATOM     29  C   UNL     1       3.741   5.132  17.213  0.00  0.00    +0.000 C 
ATOM     30  H   UNL     1       1.532   4.906  21.970  0.00  0.00    +0.000 HD
ENDBRANCH   1  24
TORSDOF 1
ENDMDL
MODEL 8
REMARK VINA RESULT:      -7.6      5.739      9.232
REMARK  Name = 
REMARK  3 active torsions:
REMARK  status: ('A' for Active; 'I' for Inactive)
REMARK    1  A    between atoms: C_1  and  C_2
REMARK    2  A    between atoms: C_8  and  C_9
REMARK    3  A    between atoms: N_28  and  C_29
REMARK                            x       y       z     vdW  Elec       q    Type
REMARK                         _______ _______ _______ _____ _____    ______ ____
ROOT
ATOM      1  C   UNL     1       1.873  10.530  18.352  0.00  0.00    +0.000 C 
ATOM      2  O   UNL     1       2.614  10.933  17.437  0.00  0.00    +0.000 OA
ATOM      3  N   UNL     1       1.078  11.542  19.042  0.00  0.00    +0.000 N 
ATOM      4  C   UNL     1       1.301  12.879  18.460  0.00  0.00    +0.000 C 
ATOM      5  C   UNL     1       0.542  14.149  18.876  0.00  0.00    +0.000 C 
ATOM      6  C   UNL     1      -0.738  14.149  19.692  0.00  0.00    +0.000 C 
ATOM      7  N   UNL     1      -0.923  13.179  20.754  0.00  0.00    +0.000 N 
ATOM      8  C   UNL     1      -0.077  12.170  21.155  0.00  0.00    +0.000 A 
ATOM      9  C   UNL     1      -0.498  11.823  22.427  0.00  0.00    +0.000 A 
ATOM     10  C   UNL     1      -1.838  12.241  22.563  0.00  0.00    +0.000 A 
ATOM     11  C   UNL     1      -2.854  11.887  23.455  0.00  0.00    +0.000 A 
ATOM     12  C   UNL     1      -4.098  12.507  23.356  0.00  0.00    +0.000 A 
ATOM     13  C   UNL     1      -4.291  13.540  22.444  0.00  0.00    +0.000 A 
ATOM     14  C   UNL     1      -3.281  13.908  21.536  0.00  0.00    +0.000 A 
ATOM     15  C   UNL     1      -2.066  13.190  21.567  0.00  0.00    +0.000 A 
ATOM     16  C   UNL     1       1.090  11.522  20.484  0.00  0.00    +0.000 C 
ENDROOT
BRANCH   1  24
ATOM     17  C   UNL     1       3.041   2.525  19.702  0.00  0.00    +0.000 C 
ATOM     18  C   UNL     1       2.495   3.849  19.127  0.00  0.00    +0.000 C 
ATOM     19  C   UNL     1       3.288   4.278  17.876  0.00  0.00    +0.000 C 
ATOM     20  O   UNL     1       3.882   3.477  17.135  0.00  0.00    +0.000 OA
ATOM     21  N   UNL     1       3.196   5.599  17.509  0.00  0.00    +0.000 N 
ATOM     22  C   UNL     1       2.599   6.600  18.310  0.00  0.00    +0.000 A 
ATOM     23  C   UNL     1       2.488   7.956  17.790  0.00  0.00    +0.000 A 
ATOM     24  C   UNL     1       1.945   8.994  18.569  0.00  0.00    +0.000 A 
ATOM     25  C   UNL     1       1.504   8.582  19.850  0.00  0.00    +0.000 A 
ATOM     26  C   UNL     1       1.623   7.264  20.355  0.00  0.00    +0.000 A 
ATOM     27  C   UNL     1       2.191   6.229  19.620  0.00  0.00    +0.000 A 
ATOM     28  N   UNL     1       2.422   4.945  20.130  0.00  0.00    +0.000 N 
ATOM     29  C   UNL     1       2.246   4.582  21.534  0.00  0.00    +0.000 C 
ATOM     30  H   UNL     1       3.630   5.834  16.627  0.00  0.00    +0.000 HD
ENDBRANCH   1  24
TORSDOF 1
ENDMDL
MODEL 9
REMARK VINA RESULT:      -7.6      1.756      2.196
REMARK  Name = 
REMARK  3 active torsions:
REMARK  status: ('A' for Active; 'I' for Inactive)
REMARK    1  A    between atoms: C_1  and  C_2
REMARK    2  A    between atoms: C_8  and  C_9
REMARK    3  A    between atoms: N_28  and  C_29
REMARK                            x       y       z     vdW  Elec       q    Type
REMARK                         _______ _______ _______ _____ _____    ______ ____
ROOT
ATOM      1  C   UNL     1       4.902  16.327  19.062  0.00  0.00    +0.000 C 
ATOM      2  O   UNL     1       4.603  17.534  19.010  0.00  0.00    +0.000 OA
ATOM      3  N   UNL     1       6.298  15.987  18.801  0.00  0.00    +0.000 N 
ATOM      4  C   UNL     1       7.102  17.200  18.557  0.00  0.00    +0.000 C 
ATOM      5  C   UNL     1       8.626  17.211  18.359  0.00  0.00    +0.000 C 
ATOM      6  C   UNL     1       9.538  16.048  18.700  0.00  0.00    +0.000 C 
ATOM      7  N   UNL     1       9.094  14.686  18.479  0.00  0.00    +0.000 N 
ATOM      8  C   UNL     1       7.882  14.243  17.999  0.00  0.00    +0.000 A 
ATOM      9  C   UNL     1       8.105  12.942  17.583  0.00  0.00    +0.000 A 
ATOM     10  C   UNL     1       9.249  12.468  18.257  0.00  0.00    +0.000 A 
ATOM     11  C   UNL     1       9.744  11.182  18.494  0.00  0.00    +0.000 A 
ATOM     12  C   UNL     1      10.944  11.028  19.184  0.00  0.00    +0.000 A 
ATOM     13  C   UNL     1      11.691  12.146  19.543  0.00  0.00    +0.000 A 
ATOM     14  C   UNL     1      11.207  13.448  19.317  0.00  0.00    +0.000 A 
ATOM     15  C   UNL     1       9.934  13.590  18.723  0.00  0.00    +0.000 A 
ATOM     16  C   UNL     1       6.555  14.918  17.868  0.00  0.00    +0.000 C 
ENDROOT
BRANCH   1  24
ATOM     17  C   UNL     1      -1.931  12.154  20.842  0.00  0.00    +0.000 C 
ATOM     18  C   UNL     1      -0.452  12.590  20.796  0.00  0.00    +0.000 C 
ATOM     19  C   UNL     1      -0.122  13.551  21.957  0.00  0.00    +0.000 C 
ATOM     20  O   UNL     1      -0.738  13.557  23.035  0.00  0.00    +0.000 OA
ATOM     21  N   UNL     1       1.004  14.327  21.816  0.00  0.00    +0.000 N 
ATOM     22  C   UNL     1       1.738  14.440  20.612  0.00  0.00    +0.000 A 
ATOM     23  C   UNL     1       2.960  15.231  20.595  0.00  0.00    +0.000 A 
ATOM     24  C   UNL     1       3.697  15.410  19.410  0.00  0.00    +0.000 A 
ATOM     25  C   UNL     1       3.159  14.732  18.290  0.00  0.00    +0.000 A 
ATOM     26  C   UNL     1       1.964  13.971  18.309  0.00  0.00    +0.000 A 
ATOM     27  C   UNL     1       1.197  13.811  19.457  0.00  0.00    +0.000 A 
ATOM     28  N   UNL     1      -0.041  13.158  19.484  0.00  0.00    +0.000 N 
ATOM     29  C   UNL     1      -0.752  12.710  18.289  0.00  0.00    +0.000 C 
ATOM     30  H   UNL     1       1.263  14.865  22.631  0.00  0.00    +0.000 HD
ENDBRANCH   1  24
TORSDOF 1
ENDMDL
