MODEL 1
REMARK VINA RESULT:      -9.0      0.000      0.000
REMARK  Name = 
REMARK  3 active torsions:
REMARK  status: ('A' for Active; 'I' for Inactive)
REMARK    1  A    between atoms: C_11  and  C_12
REMARK    2  A    between atoms: C_12  and  N_13
REMARK    3  A    between atoms: C_16  and  C_17
REMARK                            x       y       z     vdW  Elec       q    Type
REMARK                         _______ _______ _______ _____ _____    ______ ____
ROOT
ATOM      1  O   UNL     1       7.000   4.504  18.767  0.00  0.00    +0.000 OA
ATOM      2  C   UNL     1       5.784   4.433  18.833  0.00  0.00    +0.000 A 
ATOM      3  N   UNL     1       5.126   3.443  19.516  0.00  0.00    +0.000 N 
ATOM      4  C   UNL     1       3.753   3.517  19.764  0.00  0.00    +0.000 A 
ATOM      5  C   UNL     1       3.143   2.550  20.566  0.00  0.00    +0.000 A 
ATOM      6  C   UNL     1       1.789   2.672  20.877  0.00  0.00    +0.000 A 
ATOM      7  C   UNL     1       1.059   3.755  20.387  0.00  0.00    +0.000 A 
ATOM      8  C   UNL     1       1.674   4.710  19.569  0.00  0.00    +0.000 A 
ATOM      9  C   UNL     1       3.026   4.598  19.243  0.00  0.00    +0.000 A 
ATOM     10  N   UNL     1       3.620   5.573  18.410  0.00  0.00    +0.000 NA
ATOM     11  C   UNL     1       4.904   5.495  18.184  0.00  0.00    +0.000 A 
ATOM     12  H   UNL     1       5.694   2.726  19.945  0.00  0.00    +0.000 HD
ENDROOT
BRANCH  11  13
ATOM     13  C   UNL     1       5.600   6.511  17.323  0.00  0.00    +0.000 C 
BRANCH  13  14
ATOM     14  N   UNL     1       6.092   5.958  16.078  0.00  0.00    +0.000 N 
ATOM     15  N   UNL     1       7.401   6.011  15.777  0.00  0.00    +0.000 NA
ATOM     16  N   UNL     1       7.532   5.256  14.698  0.00  0.00    +0.000 NA
ATOM     17  C   UNL     1       6.285   4.750  14.399  0.00  0.00    +0.000 A 
ATOM     18  N   UNL     1       5.354   5.143  15.289  0.00  0.00    +0.000 NA
BRANCH  17  19
ATOM     19  C   UNL     1       6.058   3.886  13.238  0.00  0.00    +0.000 A 
ATOM     20  C   UNL     1       7.158   3.313  12.574  0.00  0.00    +0.000 A 
ATOM     21  C   UNL     1       6.978   2.494  11.456  0.00  0.00    +0.000 A 
ATOM     22  C   UNL     1       5.695   2.240  10.980  0.00  0.00    +0.000 A 
ATOM     23  C   UNL     1       4.593   2.799  11.622  0.00  0.00    +0.000 A 
ATOM     24  C   UNL     1       4.772   3.617  12.744  0.00  0.00    +0.000 A 
ENDBRANCH  17  19
ENDBRANCH  13  14
ENDBRANCH  11  13
TORSDOF 3
ENDMDL
MODEL 2
REMARK VINA RESULT:      -8.9      0.191      1.022
REMARK  Name = 
REMARK  3 active torsions:
REMARK  status: ('A' for Active; 'I' for Inactive)
REMARK    1  A    between atoms: C_11  and  C_12
REMARK    2  A    between atoms: C_12  and  N_13
REMARK    3  A    between atoms: C_16  and  C_17
REMARK                            x       y       z     vdW  Elec       q    Type
REMARK                         _______ _______ _______ _____ _____    ______ ____
ROOT
ATOM      1  O   UNL     1       7.022   4.725  18.895  0.00  0.00    +0.000 OA
ATOM      2  C   UNL     1       5.814   4.559  18.858  0.00  0.00    +0.000 A 
ATOM      3  N   UNL     1       5.171   3.569  19.554  0.00  0.00    +0.000 N 
ATOM      4  C   UNL     1       3.780   3.547  19.674  0.00  0.00    +0.000 A 
ATOM      5  C   UNL     1       3.172   2.591  20.490  0.00  0.00    +0.000 A 
ATOM      6  C   UNL     1       1.790   2.622  20.670  0.00  0.00    +0.000 A 
ATOM      7  C   UNL     1       1.029   3.604  20.035  0.00  0.00    +0.000 A 
ATOM      8  C   UNL     1       1.644   4.546  19.204  0.00  0.00    +0.000 A 
ATOM      9  C   UNL     1       3.026   4.525  19.008  0.00  0.00    +0.000 A 
ATOM     10  N   UNL     1       3.620   5.484  18.158  0.00  0.00    +0.000 NA
ATOM     11  C   UNL     1       4.922   5.497  18.053  0.00  0.00    +0.000 A 
ATOM     12  H   UNL     1       5.749   2.932  20.086  0.00  0.00    +0.000 HD
ENDROOT
BRANCH  11  13
ATOM     13  C   UNL     1       5.617   6.504  17.181  0.00  0.00    +0.000 C 
BRANCH  13  14
ATOM     14  N   UNL     1       6.130   5.933  15.953  0.00  0.00    +0.000 N 
ATOM     15  N   UNL     1       7.447   5.957  15.686  0.00  0.00    +0.000 NA
ATOM     16  N   UNL     1       7.590   5.192  14.615  0.00  0.00    +0.000 NA
ATOM     17  C   UNL     1       6.341   4.710  14.286  0.00  0.00    +0.000 A 
ATOM     18  N   UNL     1       5.396   5.129  15.149  0.00  0.00    +0.000 NA
BRANCH  17  19
ATOM     19  C   UNL     1       6.126   3.844  13.125  0.00  0.00    +0.000 A 
ATOM     20  C   UNL     1       4.821   3.651  12.635  0.00  0.00    +0.000 A 
ATOM     21  C   UNL     1       4.578   2.821  11.538  0.00  0.00    +0.000 A 
ATOM     22  C   UNL     1       5.637   2.165  10.916  0.00  0.00    +0.000 A 
ATOM     23  C   UNL     1       6.936   2.341  11.386  0.00  0.00    +0.000 A 
ATOM     24  C   UNL     1       7.180   3.175  12.484  0.00  0.00    +0.000 A 
ENDBRANCH  17  19
ENDBRANCH  13  14
ENDBRANCH  11  13
TORSDOF 3
ENDMDL
MODEL 3
REMARK VINA RESULT:      -8.6      3.868      6.512
REMARK  Name = 
REMARK  3 active torsions:
REMARK  status: ('A' for Active; 'I' for Inactive)
REMARK    1  A    between atoms: C_11  and  C_12
REMARK    2  A    between atoms: C_12  and  N_13
REMARK    3  A    between atoms: C_16  and  C_17
REMARK                            x       y       z     vdW  Elec       q    Type
REMARK                         _______ _______ _______ _____ _____    ______ ____
ROOT
ATOM      1  O   UNL     1       6.583   4.063  16.146  0.00  0.00    +0.000 OA
ATOM      2  C   UNL     1       5.737   4.389  16.962  0.00  0.00    +0.000 A 
ATOM      3  N   UNL     1       4.398   4.154  16.790  0.00  0.00    +0.000 N 
ATOM      4  C   UNL     1       3.487   4.328  17.833  0.00  0.00    +0.000 A 
ATOM      5  C   UNL     1       2.151   3.963  17.652  0.00  0.00    +0.000 A 
ATOM      6  C   UNL     1       1.261   4.064  18.721  0.00  0.00    +0.000 A 
ATOM      7  C   UNL     1       1.712   4.527  19.958  0.00  0.00    +0.000 A 
ATOM      8  C   UNL     1       3.048   4.908  20.125  0.00  0.00    +0.000 A 
ATOM      9  C   UNL     1       3.949   4.820  19.064  0.00  0.00    +0.000 A 
ATOM     10  N   UNL     1       5.291   5.217  19.259  0.00  0.00    +0.000 NA
ATOM     11  C   UNL     1       6.136   5.050  18.278  0.00  0.00    +0.000 A 
ATOM     12  H   UNL     1       4.116   3.724  15.919  0.00  0.00    +0.000 HD
ENDROOT
BRANCH  11  13
ATOM     13  C   UNL     1       7.581   5.434  18.427  0.00  0.00    +0.000 C 
BRANCH  13  14
ATOM     14  N   UNL     1       7.832   6.827  18.122  0.00  0.00    +0.000 N 
ATOM     15  N   UNL     1       7.113   7.460  17.179  0.00  0.00    +0.000 NA
ATOM     16  N   UNL     1       7.450   8.735  17.295  0.00  0.00    +0.000 NA
ATOM     17  C   UNL     1       8.353   8.827  18.332  0.00  0.00    +0.000 A 
ATOM     18  N   UNL     1       8.582   7.632  18.909  0.00  0.00    +0.000 NA
BRANCH  17  19
ATOM     19  C   UNL     1       8.958  10.103  18.721  0.00  0.00    +0.000 A 
ATOM     20  C   UNL     1       9.290  10.331  20.069  0.00  0.00    +0.000 A 
ATOM     21  C   UNL     1       9.856  11.541  20.478  0.00  0.00    +0.000 A 
ATOM     22  C   UNL     1      10.095  12.547  19.544  0.00  0.00    +0.000 A 
ATOM     23  C   UNL     1       9.772  12.341  18.205  0.00  0.00    +0.000 A 
ATOM     24  C   UNL     1       9.207  11.128  17.795  0.00  0.00    +0.000 A 
ENDBRANCH  17  19
ENDBRANCH  13  14
ENDBRANCH  11  13
TORSDOF 3
ENDMDL
MODEL 4
REMARK VINA RESULT:      -8.6      1.000      1.962
REMARK  Name = 
REMARK  3 active torsions:
REMARK  status: ('A' for Active; 'I' for Inactive)
REMARK    1  A    between atoms: C_11  and  C_12
REMARK    2  A    between atoms: C_12  and  N_13
REMARK    3  A    between atoms: C_16  and  C_17
REMARK                            x       y       z     vdW  Elec       q    Type
REMARK                         _______ _______ _______ _____ _____    ______ ____
ROOT
ATOM      1  O   UNL     1       4.972   6.984  17.569  0.00  0.00    +0.000 OA
ATOM      2  C   UNL     1       4.653   6.068  18.309  0.00  0.00    +0.000 A 
ATOM      3  N   UNL     1       3.481   6.050  19.019  0.00  0.00    +0.000 N 
ATOM      4  C   UNL     1       3.042   4.896  19.671  0.00  0.00    +0.000 A 
ATOM      5  C   UNL     1       1.786   4.884  20.282  0.00  0.00    +0.000 A 
ATOM      6  C   UNL     1       1.317   3.706  20.863  0.00  0.00    +0.000 A 
ATOM      7  C   UNL     1       2.104   2.554  20.829  0.00  0.00    +0.000 A 
ATOM      8  C   UNL     1       3.369   2.581  20.230  0.00  0.00    +0.000 A 
ATOM      9  C   UNL     1       3.856   3.753  19.651  0.00  0.00    +0.000 A 
ATOM     10  N   UNL     1       5.139   3.753  19.061  0.00  0.00    +0.000 NA
ATOM     11  C   UNL     1       5.541   4.837  18.452  0.00  0.00    +0.000 A 
ATOM     12  H   UNL     1       2.885   6.863  18.942  0.00  0.00    +0.000 HD
ENDROOT
BRANCH  11  13
ATOM     13  C   UNL     1       6.887   4.896  17.787  0.00  0.00    +0.000 C 
BRANCH  13  14
ATOM     14  N   UNL     1       6.805   4.909  16.341  0.00  0.00    +0.000 N 
ATOM     15  N   UNL     1       7.588   5.729  15.619  0.00  0.00    +0.000 NA
ATOM     16  N   UNL     1       7.409   5.351  14.364  0.00  0.00    +0.000 NA
ATOM     17  C   UNL     1       6.532   4.287  14.377  0.00  0.00    +0.000 A 
ATOM     18  N   UNL     1       6.165   3.953  15.629  0.00  0.00    +0.000 NA
BRANCH  17  19
ATOM     19  C   UNL     1       6.090   3.632  13.145  0.00  0.00    +0.000 A 
ATOM     20  C   UNL     1       4.734   3.698  12.773  0.00  0.00    +0.000 A 
ATOM     21  C   UNL     1       4.275   3.073  11.610  0.00  0.00    +0.000 A 
ATOM     22  C   UNL     1       5.163   2.368  10.803  0.00  0.00    +0.000 A 
ATOM     23  C   UNL     1       6.509   2.290  11.154  0.00  0.00    +0.000 A 
ATOM     24  C   UNL     1       6.970   2.918  12.317  0.00  0.00    +0.000 A 
ENDBRANCH  17  19
ENDBRANCH  13  14
ENDBRANCH  11  13
TORSDOF 3
ENDMDL
MODEL 5
REMARK VINA RESULT:      -8.6      1.026      1.720
REMARK  Name = 
REMARK  3 active torsions:
REMARK  status: ('A' for Active; 'I' for Inactive)
REMARK    1  A    between atoms: C_11  and  C_12
REMARK    2  A    between atoms: C_12  and  N_13
REMARK    3  A    between atoms: C_16  and  C_17
REMARK                            x       y       z     vdW  Elec       q    Type
REMARK                         _______ _______ _______ _____ _____    ______ ____
ROOT
ATOM      1  O   UNL     1       4.880   6.873  17.382  0.00  0.00    +0.000 OA
ATOM      2  C   UNL     1       4.598   6.004  18.190  0.00  0.00    +0.000 A 
ATOM      3  N   UNL     1       3.434   6.000  18.914  0.00  0.00    +0.000 N 
ATOM      4  C   UNL     1       3.039   4.883  19.653  0.00  0.00    +0.000 A 
ATOM      5  C   UNL     1       1.790   4.876  20.278  0.00  0.00    +0.000 A 
ATOM      6  C   UNL     1       1.366   3.729  20.949  0.00  0.00    +0.000 A 
ATOM      7  C   UNL     1       2.189   2.603  20.988  0.00  0.00    +0.000 A 
ATOM      8  C   UNL     1       3.446   2.626  20.374  0.00  0.00    +0.000 A 
ATOM      9  C   UNL     1       3.889   3.768  19.706  0.00  0.00    +0.000 A 
ATOM     10  N   UNL     1       5.166   3.765  19.101  0.00  0.00    +0.000 NA
ATOM     11  C   UNL     1       5.527   4.814  18.411  0.00  0.00    +0.000 A 
ATOM     12  H   UNL     1       2.811   6.786  18.786  0.00  0.00    +0.000 HD
ENDROOT
BRANCH  11  13
ATOM     13  C   UNL     1       6.863   4.867  17.727  0.00  0.00    +0.000 C 
BRANCH  13  14
ATOM     14  N   UNL     1       6.761   4.863  16.282  0.00  0.00    +0.000 N 
ATOM     15  N   UNL     1       7.592   5.612  15.536  0.00  0.00    +0.000 NA
ATOM     16  N   UNL     1       7.367   5.228  14.290  0.00  0.00    +0.000 NA
ATOM     17  C   UNL     1       6.415   4.232  14.333  0.00  0.00    +0.000 A 
ATOM     18  N   UNL     1       6.042   3.946  15.595  0.00  0.00    +0.000 NA
BRANCH  17  19
ATOM     19  C   UNL     1       5.908   3.593  13.118  0.00  0.00    +0.000 A 
ATOM     20  C   UNL     1       6.745   2.730  12.387  0.00  0.00    +0.000 A 
ATOM     21  C   UNL     1       6.299   2.113  11.215  0.00  0.00    +0.000 A 
ATOM     22  C   UNL     1       5.008   2.353  10.752  0.00  0.00    +0.000 A 
ATOM     23  C   UNL     1       4.163   3.206  11.460  0.00  0.00    +0.000 A 
ATOM     24  C   UNL     1       4.610   3.821  12.635  0.00  0.00    +0.000 A 
ENDBRANCH  17  19
ENDBRANCH  13  14
ENDBRANCH  11  13
TORSDOF 3
ENDMDL
MODEL 6
REMARK VINA RESULT:      -8.5      4.215      6.740
REMARK  Name = 
REMARK  3 active torsions:
REMARK  status: ('A' for Active; 'I' for Inactive)
REMARK    1  A    between atoms: C_11  and  C_12
REMARK    2  A    between atoms: C_12  and  N_13
REMARK    3  A    between atoms: C_16  and  C_17
REMARK                            x       y       z     vdW  Elec       q    Type
REMARK                         _______ _______ _______ _____ _____    ______ ____
ROOT
ATOM      1  O   UNL     1       7.993   4.161  17.024  0.00  0.00    +0.000 OA
ATOM      2  C   UNL     1       6.881   4.462  17.426  0.00  0.00    +0.000 A 
ATOM      3  N   UNL     1       5.728   3.935  16.906  0.00  0.00    +0.000 N 
ATOM      4  C   UNL     1       4.494   4.121  17.533  0.00  0.00    +0.000 A 
ATOM      5  C   UNL     1       3.362   3.469  17.038  0.00  0.00    +0.000 A 
ATOM      6  C   UNL     1       2.148   3.593  17.713  0.00  0.00    +0.000 A 
ATOM      7  C   UNL     1       2.075   4.364  18.874  0.00  0.00    +0.000 A 
ATOM      8  C   UNL     1       3.210   5.029  19.352  0.00  0.00    +0.000 A 
ATOM      9  C   UNL     1       4.430   4.921  18.684  0.00  0.00    +0.000 A 
ATOM     10  N   UNL     1       5.558   5.608  19.186  0.00  0.00    +0.000 NA
ATOM     11  C   UNL     1       6.708   5.428  18.593  0.00  0.00    +0.000 A 
ATOM     12  H   UNL     1       5.824   3.300  16.126  0.00  0.00    +0.000 HD
ENDROOT
BRANCH  11  13
ATOM     13  C   UNL     1       7.950   6.114  19.089  0.00  0.00    +0.000 C 
BRANCH  13  14
ATOM     14  N   UNL     1       8.161   7.411  18.482  0.00  0.00    +0.000 N 
ATOM     15  N   UNL     1       7.470   7.775  17.387  0.00  0.00    +0.000 NA
ATOM     16  N   UNL     1       7.749   9.058  17.221  0.00  0.00    +0.000 NA
ATOM     17  C   UNL     1       8.589   9.431  18.248  0.00  0.00    +0.000 A 
ATOM     18  N   UNL     1       8.834   8.413  19.094  0.00  0.00    +0.000 NA
BRANCH  17  19
ATOM     19  C   UNL     1       9.120  10.791  18.358  0.00  0.00    +0.000 A 
ATOM     20  C   UNL     1       8.445  11.853  17.729  0.00  0.00    +0.000 A 
ATOM     21  C   UNL     1       8.931  13.161  17.802  0.00  0.00    +0.000 A 
ATOM     22  C   UNL     1      10.104  13.428  18.502  0.00  0.00    +0.000 A 
ATOM     23  C   UNL     1      10.789  12.391  19.131  0.00  0.00    +0.000 A 
ATOM     24  C   UNL     1      10.301  11.081  19.060  0.00  0.00    +0.000 A 
ENDBRANCH  17  19
ENDBRANCH  13  14
ENDBRANCH  11  13
TORSDOF 3
ENDMDL
MODEL 7
REMARK VINA RESULT:      -8.5      4.233      6.711
REMARK  Name = 
REMARK  3 active torsions:
REMARK  status: ('A' for Active; 'I' for Inactive)
REMARK    1  A    between atoms: C_11  and  C_12
REMARK    2  A    between atoms: C_12  and  N_13
REMARK    3  A    between atoms: C_16  and  C_17
REMARK                            x       y       z     vdW  Elec       q    Type
REMARK                         _______ _______ _______ _____ _____    ______ ____
ROOT
ATOM      1  O   UNL     1       7.976   4.318  16.875  0.00  0.00    +0.000 OA
ATOM      2  C   UNL     1       6.870   4.552  17.332  0.00  0.00    +0.000 A 
ATOM      3  N   UNL     1       5.716   4.028  16.809  0.00  0.00    +0.000 N 
ATOM      4  C   UNL     1       4.499   4.127  17.487  0.00  0.00    +0.000 A 
ATOM      5  C   UNL     1       3.372   3.477  16.979  0.00  0.00    +0.000 A 
ATOM      6  C   UNL     1       2.178   3.511  17.699  0.00  0.00    +0.000 A 
ATOM      7  C   UNL     1       2.120   4.191  18.916  0.00  0.00    +0.000 A 
ATOM      8  C   UNL     1       3.250   4.855  19.408  0.00  0.00    +0.000 A 
ATOM      9  C   UNL     1       4.450   4.837  18.696  0.00  0.00    +0.000 A 
ATOM     10  N   UNL     1       5.572   5.521  19.213  0.00  0.00    +0.000 NA
ATOM     11  C   UNL     1       6.707   5.423  18.573  0.00  0.00    +0.000 A 
ATOM     12  H   UNL     1       5.805   3.455  15.981  0.00  0.00    +0.000 HD
ENDROOT
BRANCH  11  13
ATOM     13  C   UNL     1       7.943   6.111  19.080  0.00  0.00    +0.000 C 
BRANCH  13  14
ATOM     14  N   UNL     1       8.154   7.412  18.481  0.00  0.00    +0.000 N 
ATOM     15  N   UNL     1       7.443   7.793  17.405  0.00  0.00    +0.000 NA
ATOM     16  N   UNL     1       7.731   9.075  17.245  0.00  0.00    +0.000 NA
ATOM     17  C   UNL     1       8.596   9.430  18.257  0.00  0.00    +0.000 A 
ATOM     18  N   UNL     1       8.849   8.401  19.088  0.00  0.00    +0.000 NA
BRANCH  17  19
ATOM     19  C   UNL     1       9.143  10.784  18.369  0.00  0.00    +0.000 A 
ATOM     20  C   UNL     1      10.310  11.000  19.124  0.00  0.00    +0.000 A 
ATOM     21  C   UNL     1      10.852  12.281  19.263  0.00  0.00    +0.000 A 
ATOM     22  C   UNL     1      10.231  13.368  18.654  0.00  0.00    +0.000 A 
ATOM     23  C   UNL     1       9.073  13.175  17.903  0.00  0.00    +0.000 A 
ATOM     24  C   UNL     1       8.532  11.892  17.762  0.00  0.00    +0.000 A 
ENDBRANCH  17  19
ENDBRANCH  13  14
ENDBRANCH  11  13
TORSDOF 3
ENDMDL
MODEL 8
REMARK VINA RESULT:      -8.4      3.929      6.559
REMARK  Name = 
REMARK  3 active torsions:
REMARK  status: ('A' for Active; 'I' for Inactive)
REMARK    1  A    between atoms: C_11  and  C_12
REMARK    2  A    between atoms: C_12  and  N_13
REMARK    3  A    between atoms: C_16  and  C_17
REMARK                            x       y       z     vdW  Elec       q    Type
REMARK                         _______ _______ _______ _____ _____    ______ ____
ROOT
ATOM      1  O   UNL     1       6.527   4.285  15.920  0.00  0.00    +0.000 OA
ATOM      2  C   UNL     1       5.706   4.543  16.784  0.00  0.00    +0.000 A 
ATOM      3  N   UNL     1       4.364   4.310  16.637  0.00  0.00    +0.000 N 
ATOM      4  C   UNL     1       3.486   4.400  17.720  0.00  0.00    +0.000 A 
ATOM      5  C   UNL     1       2.147   4.039  17.555  0.00  0.00    +0.000 A 
ATOM      6  C   UNL     1       1.292   4.054  18.657  0.00  0.00    +0.000 A 
ATOM      7  C   UNL     1       1.780   4.428  19.909  0.00  0.00    +0.000 A 
ATOM      8  C   UNL     1       3.119   4.806  20.061  0.00  0.00    +0.000 A 
ATOM      9  C   UNL     1       3.985   4.804  18.968  0.00  0.00    +0.000 A 
ATOM     10  N   UNL     1       5.330   5.197  19.149  0.00  0.00    +0.000 NA
ATOM     11  C   UNL     1       6.144   5.109  18.131  0.00  0.00    +0.000 A 
ATOM     12  H   UNL     1       4.055   3.944  15.747  0.00  0.00    +0.000 HD
ENDROOT
BRANCH  11  13
ATOM     13  C   UNL     1       7.591   5.492  18.262  0.00  0.00    +0.000 C 
BRANCH  13  14
ATOM     14  N   UNL     1       7.824   6.905  18.045  0.00  0.00    +0.000 N 
ATOM     15  N   UNL     1       7.027   7.612  17.225  0.00  0.00    +0.000 NA
ATOM     16  N   UNL     1       7.384   8.873  17.409  0.00  0.00    +0.000 NA
ATOM     17  C   UNL     1       8.380   8.882  18.361  0.00  0.00    +0.000 A 
ATOM     18  N   UNL     1       8.651   7.645  18.819  0.00  0.00    +0.000 NA
BRANCH  17  19
ATOM     19  C   UNL     1       9.030  10.122  18.791  0.00  0.00    +0.000 A 
ATOM     20  C   UNL     1       9.487  11.036  17.824  0.00  0.00    +0.000 A 
ATOM     21  C   UNL     1      10.124  12.223  18.198  0.00  0.00    +0.000 A 
ATOM     22  C   UNL     1      10.319  12.512  19.545  0.00  0.00    +0.000 A 
ATOM     23  C   UNL     1       9.875  11.619  20.518  0.00  0.00    +0.000 A 
ATOM     24  C   UNL     1       9.235  10.432  20.144  0.00  0.00    +0.000 A 
ENDBRANCH  17  19
ENDBRANCH  13  14
ENDBRANCH  11  13
TORSDOF 3
ENDMDL
MODEL 9
REMARK VINA RESULT:      -8.4      2.597      7.436
REMARK  Name = 
REMARK  3 active torsions:
REMARK  status: ('A' for Active; 'I' for Inactive)
REMARK    1  A    between atoms: C_11  and  C_12
REMARK    2  A    between atoms: C_12  and  N_13
REMARK    3  A    between atoms: C_16  and  C_17
REMARK                            x       y       z     vdW  Elec       q    Type
REMARK                         _______ _______ _______ _____ _____    ______ ____
ROOT
ATOM      1  O   UNL     1       7.594   5.771  17.863  0.00  0.00    +0.000 OA
ATOM      2  C   UNL     1       7.099   5.363  16.825  0.00  0.00    +0.000 A 
ATOM      3  N   UNL     1       7.571   5.705  15.585  0.00  0.00    +0.000 N 
ATOM      4  C   UNL     1       7.134   5.047  14.433  0.00  0.00    +0.000 A 
ATOM      5  C   UNL     1       7.727   5.342  13.203  0.00  0.00    +0.000 A 
ATOM      6  C   UNL     1       7.344   4.627  12.068  0.00  0.00    +0.000 A 
ATOM      7  C   UNL     1       6.377   3.627  12.171  0.00  0.00    +0.000 A 
ATOM      8  C   UNL     1       5.775   3.351  13.405  0.00  0.00    +0.000 A 
ATOM      9  C   UNL     1       6.142   4.062  14.548  0.00  0.00    +0.000 A 
ATOM     10  N   UNL     1       5.513   3.767  15.778  0.00  0.00    +0.000 NA
ATOM     11  C   UNL     1       5.929   4.387  16.850  0.00  0.00    +0.000 A 
ATOM     12  H   UNL     1       8.342   6.358  15.550  0.00  0.00    +0.000 HD
ENDROOT
BRANCH  11  13
ATOM     13  C   UNL     1       5.315   4.104  18.193  0.00  0.00    +0.000 C 
BRANCH  13  14
ATOM     14  N   UNL     1       4.109   4.867  18.436  0.00  0.00    +0.000 N 
ATOM     15  N   UNL     1       3.045   4.293  19.024  0.00  0.00    +0.000 NA
ATOM     16  N   UNL     1       2.215   5.293  19.274  0.00  0.00    +0.000 NA
ATOM     17  C   UNL     1       2.827   6.451  18.844  0.00  0.00    +0.000 A 
ATOM     18  N   UNL     1       4.056   6.216  18.346  0.00  0.00    +0.000 NA
BRANCH  17  19
ATOM     19  C   UNL     1       2.173   7.757  18.945  0.00  0.00    +0.000 A 
ATOM     20  C   UNL     1       1.611   8.158  20.171  0.00  0.00    +0.000 A 
ATOM     21  C   UNL     1       0.967   9.392  20.299  0.00  0.00    +0.000 A 
ATOM     22  C   UNL     1       0.870  10.243  19.201  0.00  0.00    +0.000 A 
ATOM     23  C   UNL     1       1.418   9.863  17.978  0.00  0.00    +0.000 A 
ATOM     24  C   UNL     1       2.065   8.628  17.850  0.00  0.00    +0.000 A 
ENDBRANCH  17  19
ENDBRANCH  13  14
ENDBRANCH  11  13
TORSDOF 3
ENDMDL
