MODEL 1
REMARK VINA RESULT:      -9.5      0.000      0.000
REMARK  Name = 
REMARK  6 active torsions:
REMARK  status: ('A' for Active; 'I' for Inactive)
REMARK    1  A    between atoms: C_1  and  O_2
REMARK    2  A    between atoms: O_2  and  C_3
REMARK    3  A    between atoms: C_7  and  N_8
REMARK    4  A    between atoms: C_9  and  C_11
REMARK    5  A    between atoms: C_14  and  S_15
REMARK    6  A    between atoms: S_15  and  N_18
REMARK                            x       y       z     vdW  Elec       q    Type
REMARK                         _______ _______ _______ _____ _____    ______ ____
ROOT
ATOM      1  C   UNL     1       7.842   8.094  18.073  0.00  0.00    +0.000 A 
ATOM      2  C   UNL     1       8.141   6.967  18.845  0.00  0.00    +0.000 A 
ATOM      3  C   UNL     1       7.363   5.797  18.707  0.00  0.00    +0.000 A 
ATOM      4  C   UNL     1       6.292   5.752  17.799  0.00  0.00    +0.000 A 
ATOM      5  C   UNL     1       6.017   6.857  16.994  0.00  0.00    +0.000 A 
ATOM      6  C   UNL     1       6.782   8.018  17.143  0.00  0.00    +0.000 A 
ENDROOT
BRANCH   1   8
ATOM      7  N   UNL     1       9.226   9.699  19.390  0.00  0.00    +0.000 N 
ATOM      8  C   UNL     1       8.502   9.437  18.240  0.00  0.00    +0.000 C 
ATOM      9  O   UNL     1       8.351  10.219  17.292  0.00  0.00    +0.000 OA
ATOM     10  H   UNL     1       9.305   8.972  20.087  0.00  0.00    +0.000 HD
BRANCH   7  15
ATOM     11  C   UNL     1      11.553  12.591  18.831  0.00  0.00    +0.000 A 
ATOM     12  C   UNL     1      11.430  13.293  20.028  0.00  0.00    +0.000 A 
ATOM     13  C   UNL     1      10.599  12.807  21.030  0.00  0.00    +0.000 A 
ATOM     14  C   UNL     1       9.882  11.622  20.841  0.00  0.00    +0.000 A 
ATOM     15  C   UNL     1       9.975  10.894  19.649  0.00  0.00    +0.000 A 
ATOM     16  C   UNL     1      10.830  11.393  18.652  0.00  0.00    +0.000 A 
BRANCH  11  18
ATOM     17  C   UNL     1      11.938  14.156  17.075  0.00  0.00    +0.000 C 
ATOM     18  O   UNL     1      12.332  12.975  17.772  0.00  0.00    +0.000 OA
ENDBRANCH  11  18
ENDBRANCH   7  15
ENDBRANCH   1   8
BRANCH   4  19
ATOM     19  S   UNL     1       5.223   4.302  17.726  0.00  0.00    +0.000 S 
ATOM     20  O   UNL     1       5.501   3.688  16.443  0.00  0.00    +0.000 OA
ATOM     21  O   UNL     1       5.420   3.581  18.964  0.00  0.00    +0.000 OA
BRANCH  19  22
ATOM     22  N   UNL     1       3.608   4.929  17.743  0.00  0.00    +0.000 N 
ATOM     23  C   UNL     1       3.477   6.393  17.964  0.00  0.00    +0.000 C 
ATOM     24  C   UNL     1       3.015   6.828  19.340  0.00  0.00    +0.000 C 
ATOM     25  C   UNL     1       2.016   5.936  20.043  0.00  0.00    +0.000 C 
ATOM     26  C   UNL     1       1.926   4.532  19.539  0.00  0.00    +0.000 A 
ATOM     27  C   UNL     1       1.041   3.667  20.216  0.00  0.00    +0.000 A 
ATOM     28  C   UNL     1       0.809   2.376  19.754  0.00  0.00    +0.000 A 
ATOM     29  C   UNL     1       1.451   1.947  18.599  0.00  0.00    +0.000 A 
ATOM     30  C   UNL     1       2.354   2.792  17.935  0.00  0.00    +0.000 A 
ATOM     31  C   UNL     1       2.623   4.085  18.409  0.00  0.00    +0.000 A 
ENDBRANCH  19  22
ENDBRANCH   4  19
TORSDOF 5
ENDMDL
MODEL 2
REMARK VINA RESULT:      -9.4      1.016      1.594
REMARK  Name = 
REMARK  6 active torsions:
REMARK  status: ('A' for Active; 'I' for Inactive)
REMARK    1  A    between atoms: C_1  and  O_2
REMARK    2  A    between atoms: O_2  and  C_3
REMARK    3  A    between atoms: C_7  and  N_8
REMARK    4  A    between atoms: C_9  and  C_11
REMARK    5  A    between atoms: C_14  and  S_15
REMARK    6  A    between atoms: S_15  and  N_18
REMARK                            x       y       z     vdW  Elec       q    Type
REMARK                         _______ _______ _______ _____ _____    ______ ____
ROOT
ATOM      1  C   UNL     1       7.871   8.191  18.092  0.00  0.00    +0.000 A 
ATOM      2  C   UNL     1       8.157   7.086  18.899  0.00  0.00    +0.000 A 
ATOM      3  C   UNL     1       7.392   5.907  18.770  0.00  0.00    +0.000 A 
ATOM      4  C   UNL     1       6.347   5.831  17.833  0.00  0.00    +0.000 A 
ATOM      5  C   UNL     1       6.087   6.913  16.993  0.00  0.00    +0.000 A 
ATOM      6  C   UNL     1       6.838   8.083  17.134  0.00  0.00    +0.000 A 
ENDROOT
BRANCH   1   8
ATOM      7  N   UNL     1       9.399   9.761  19.286  0.00  0.00    +0.000 N 
ATOM      8  C   UNL     1       8.515   9.543  18.243  0.00  0.00    +0.000 C 
ATOM      9  O   UNL     1       8.203  10.375  17.380  0.00  0.00    +0.000 OA
ATOM     10  H   UNL     1       9.600   8.997  19.915  0.00  0.00    +0.000 HD
BRANCH   7  15
ATOM     11  C   UNL     1      10.437  13.042  20.786  0.00  0.00    +0.000 A 
ATOM     12  C   UNL     1      11.604  13.323  20.079  0.00  0.00    +0.000 A 
ATOM     13  C   UNL     1      12.042  12.447  19.094  0.00  0.00    +0.000 A 
ATOM     14  C   UNL     1      11.321  11.283  18.812  0.00  0.00    +0.000 A 
ATOM     15  C   UNL     1      10.149  10.963  19.506  0.00  0.00    +0.000 A 
ATOM     16  C   UNL     1       9.713  11.868  20.490  0.00  0.00    +0.000 A 
BRANCH  11  18
ATOM     17  C   UNL     1       8.641  14.419  21.533  0.00  0.00    +0.000 C 
ATOM     18  O   UNL     1       9.914  13.823  21.781  0.00  0.00    +0.000 OA
ENDBRANCH  11  18
ENDBRANCH   7  15
ENDBRANCH   1   8
BRANCH   4  19
ATOM     19  S   UNL     1       5.292   4.370  17.766  0.00  0.00    +0.000 S 
ATOM     20  O   UNL     1       5.592   3.740  16.496  0.00  0.00    +0.000 OA
ATOM     21  O   UNL     1       5.479   3.669  19.018  0.00  0.00    +0.000 OA
BRANCH  19  22
ATOM     22  N   UNL     1       3.671   4.982  17.753  0.00  0.00    +0.000 N 
ATOM     23  C   UNL     1       3.524   6.445  17.974  0.00  0.00    +0.000 C 
ATOM     24  C   UNL     1       3.031   6.873  19.341  0.00  0.00    +0.000 C 
ATOM     25  C   UNL     1       2.025   5.972  20.022  0.00  0.00    +0.000 C 
ATOM     26  C   UNL     1       1.958   4.568  19.514  0.00  0.00    +0.000 A 
ATOM     27  C   UNL     1       1.068   3.694  20.173  0.00  0.00    +0.000 A 
ATOM     28  C   UNL     1       0.857   2.402  19.705  0.00  0.00    +0.000 A 
ATOM     29  C   UNL     1       1.525   1.981  18.562  0.00  0.00    +0.000 A 
ATOM     30  C   UNL     1       2.433   2.834  17.917  0.00  0.00    +0.000 A 
ATOM     31  C   UNL     1       2.681   4.129  18.398  0.00  0.00    +0.000 A 
ENDBRANCH  19  22
ENDBRANCH   4  19
TORSDOF 5
ENDMDL
MODEL 3
REMARK VINA RESULT:      -9.2      1.632      1.879
REMARK  Name = 
REMARK  6 active torsions:
REMARK  status: ('A' for Active; 'I' for Inactive)
REMARK    1  A    between atoms: C_1  and  O_2
REMARK    2  A    between atoms: O_2  and  C_3
REMARK    3  A    between atoms: C_7  and  N_8
REMARK    4  A    between atoms: C_9  and  C_11
REMARK    5  A    between atoms: C_14  and  S_15
REMARK    6  A    between atoms: S_15  and  N_18
REMARK                            x       y       z     vdW  Elec       q    Type
REMARK                         _______ _______ _______ _____ _____    ______ ____
ROOT
ATOM      1  C   UNL     1       8.263   8.279  18.403  0.00  0.00    +0.000 A 
ATOM      2  C   UNL     1       8.442   7.129  19.177  0.00  0.00    +0.000 A 
ATOM      3  C   UNL     1       7.676   5.975  18.907  0.00  0.00    +0.000 A 
ATOM      4  C   UNL     1       6.734   5.969  17.863  0.00  0.00    +0.000 A 
ATOM      5  C   UNL     1       6.583   7.097  17.058  0.00  0.00    +0.000 A 
ATOM      6  C   UNL     1       7.335   8.242  17.338  0.00  0.00    +0.000 A 
ENDROOT
BRANCH   1   8
ATOM      7  N   UNL     1       9.303  10.413  17.637  0.00  0.00    +0.000 N 
ATOM      8  C   UNL     1       8.910   9.607  18.691  0.00  0.00    +0.000 C 
ATOM      9  O   UNL     1       9.028   9.886  19.892  0.00  0.00    +0.000 OA
ATOM     10  H   UNL     1       9.131  10.093  16.694  0.00  0.00    +0.000 HD
BRANCH   7  15
ATOM     11  C   UNL     1       9.461  14.153  17.929  0.00  0.00    +0.000 A 
ATOM     12  C   UNL     1      10.829  14.371  18.073  0.00  0.00    +0.000 A 
ATOM     13  C   UNL     1      11.705  13.293  18.053  0.00  0.00    +0.000 A 
ATOM     14  C   UNL     1      11.221  11.991  17.895  0.00  0.00    +0.000 A 
ATOM     15  C   UNL     1       9.853  11.732  17.756  0.00  0.00    +0.000 A 
ATOM     16  C   UNL     1       8.982  12.836  17.765  0.00  0.00    +0.000 A 
BRANCH  11  18
ATOM     17  C   UNL     1       7.164  14.721  18.214  0.00  0.00    +0.000 C 
ATOM     18  O   UNL     1       8.503  15.131  17.941  0.00  0.00    +0.000 OA
ENDBRANCH  11  18
ENDBRANCH   7  15
ENDBRANCH   1   8
BRANCH   4  19
ATOM     19  S   UNL     1       5.667   4.537  17.611  0.00  0.00    +0.000 S 
ATOM     20  O   UNL     1       6.073   3.980  16.336  0.00  0.00    +0.000 OA
ATOM     21  O   UNL     1       5.728   3.758  18.827  0.00  0.00    +0.000 OA
BRANCH  19  22
ATOM     22  N   UNL     1       4.064   5.184  17.489  0.00  0.00    +0.000 N 
ATOM     23  C   UNL     1       3.924   6.639  17.759  0.00  0.00    +0.000 C 
ATOM     24  C   UNL     1       3.327   7.021  19.098  0.00  0.00    +0.000 C 
ATOM     25  C   UNL     1       2.252   6.114  19.655  0.00  0.00    +0.000 C 
ATOM     26  C   UNL     1       2.203   4.734  19.084  0.00  0.00    +0.000 A 
ATOM     27  C   UNL     1       1.246   3.852  19.629  0.00  0.00    +0.000 A 
ATOM     28  C   UNL     1       1.052   2.585  19.090  0.00  0.00    +0.000 A 
ATOM     29  C   UNL     1       1.806   2.197  17.990  0.00  0.00    +0.000 A 
ATOM     30  C   UNL     1       2.779   3.057  17.459  0.00  0.00    +0.000 A 
ATOM     31  C   UNL     1       3.009   4.326  18.013  0.00  0.00    +0.000 A 
ENDBRANCH  19  22
ENDBRANCH   4  19
TORSDOF 5
ENDMDL
MODEL 4
REMARK VINA RESULT:      -9.2      5.427      7.847
REMARK  Name = 
REMARK  6 active torsions:
REMARK  status: ('A' for Active; 'I' for Inactive)
REMARK    1  A    between atoms: C_1  and  O_2
REMARK    2  A    between atoms: O_2  and  C_3
REMARK    3  A    between atoms: C_7  and  N_8
REMARK    4  A    between atoms: C_9  and  C_11
REMARK    5  A    between atoms: C_14  and  S_15
REMARK    6  A    between atoms: S_15  and  N_18
REMARK                            x       y       z     vdW  Elec       q    Type
REMARK                         _______ _______ _______ _____ _____    ______ ____
ROOT
ATOM      1  C   UNL     1       2.447   8.160  18.404  0.00  0.00    +0.000 A 
ATOM      2  C   UNL     1       2.401   7.311  19.514  0.00  0.00    +0.000 A 
ATOM      3  C   UNL     1       3.290   6.219  19.599  0.00  0.00    +0.000 A 
ATOM      4  C   UNL     1       4.227   5.977  18.579  0.00  0.00    +0.000 A 
ATOM      5  C   UNL     1       4.309   6.846  17.492  0.00  0.00    +0.000 A 
ATOM      6  C   UNL     1       3.417   7.919  17.406  0.00  0.00    +0.000 A 
ENDROOT
BRANCH   1   8
ATOM      7  N   UNL     1       0.173   9.159  18.644  0.00  0.00    +0.000 N 
ATOM      8  C   UNL     1       1.456   9.260  18.133  0.00  0.00    +0.000 C 
ATOM      9  O   UNL     1       1.891  10.208  17.466  0.00  0.00    +0.000 OA
ATOM     10  H   UNL     1      -0.062   8.349  19.200  0.00  0.00    +0.000 HD
BRANCH   7  15
ATOM     11  C   UNL     1      -2.800  11.038  17.332  0.00  0.00    +0.000 A 
ATOM     12  C   UNL     1      -2.950  12.039  18.289  0.00  0.00    +0.000 A 
ATOM     13  C   UNL     1      -2.063  12.113  19.355  0.00  0.00    +0.000 A 
ATOM     14  C   UNL     1      -1.024  11.185  19.477  0.00  0.00    +0.000 A 
ATOM     15  C   UNL     1      -0.847  10.161  18.540  0.00  0.00    +0.000 A 
ATOM     16  C   UNL     1      -1.746  10.109  17.460  0.00  0.00    +0.000 A 
BRANCH  11  18
ATOM     17  C   UNL     1      -2.988  10.471  15.025  0.00  0.00    +0.000 C 
ATOM     18  O   UNL     1      -3.615  10.859  16.247  0.00  0.00    +0.000 OA
ENDBRANCH  11  18
ENDBRANCH   7  15
ENDBRANCH   1   8
BRANCH   4  19
ATOM     19  S   UNL     1       5.268   4.505  18.633  0.00  0.00    +0.000 S 
ATOM     20  O   UNL     1       6.154   4.624  17.493  0.00  0.00    +0.000 OA
ATOM     21  O   UNL     1       5.782   4.413  19.981  0.00  0.00    +0.000 OA
BRANCH  19  22
ATOM     22  N   UNL     1       4.182   3.175  18.400  0.00  0.00    +0.000 N 
ATOM     23  C   UNL     1       3.703   2.957  17.010  0.00  0.00    +0.000 C 
ATOM     24  C   UNL     1       2.281   3.386  16.713  0.00  0.00    +0.000 C 
ATOM     25  C   UNL     1       1.266   3.217  17.823  0.00  0.00    +0.000 C 
ATOM     26  C   UNL     1       1.825   3.080  19.202  0.00  0.00    +0.000 A 
ATOM     27  C   UNL     1       0.896   2.978  20.258  0.00  0.00    +0.000 A 
ATOM     28  C   UNL     1       1.318   2.739  21.562  0.00  0.00    +0.000 A 
ATOM     29  C   UNL     1       2.675   2.584  21.814  0.00  0.00    +0.000 A 
ATOM     30  C   UNL     1       3.608   2.711  20.773  0.00  0.00    +0.000 A 
ATOM     31  C   UNL     1       3.199   2.986  19.459  0.00  0.00    +0.000 A 
ENDBRANCH  19  22
ENDBRANCH   4  19
TORSDOF 5
ENDMDL
MODEL 5
REMARK VINA RESULT:      -9.0      6.362      9.217
REMARK  Name = 
REMARK  6 active torsions:
REMARK  status: ('A' for Active; 'I' for Inactive)
REMARK    1  A    between atoms: C_1  and  O_2
REMARK    2  A    between atoms: O_2  and  C_3
REMARK    3  A    between atoms: C_7  and  N_8
REMARK    4  A    between atoms: C_9  and  C_11
REMARK    5  A    between atoms: C_14  and  S_15
REMARK    6  A    between atoms: S_15  and  N_18
REMARK                            x       y       z     vdW  Elec       q    Type
REMARK                         _______ _______ _______ _____ _____    ______ ____
ROOT
ATOM      1  C   UNL     1       0.343  10.099  20.352  0.00  0.00    +0.000 A 
ATOM      2  C   UNL     1       0.885   9.032  21.074  0.00  0.00    +0.000 A 
ATOM      3  C   UNL     1       1.669   8.064  20.411  0.00  0.00    +0.000 A 
ATOM      4  C   UNL     1       1.914   8.164  19.031  0.00  0.00    +0.000 A 
ATOM      5  C   UNL     1       1.415   9.250  18.314  0.00  0.00    +0.000 A 
ATOM      6  C   UNL     1       0.628  10.200  18.972  0.00  0.00    +0.000 A 
ENDROOT
BRANCH   1   8
ATOM      7  N   UNL     1      -0.714  11.263  22.290  0.00  0.00    +0.000 N 
ATOM      8  C   UNL     1      -0.626  11.103  20.918  0.00  0.00    +0.000 C 
ATOM      9  O   UNL     1      -1.277  11.739  20.077  0.00  0.00    +0.000 OA
ATOM     10  H   UNL     1      -0.111  10.707  22.880  0.00  0.00    +0.000 HD
BRANCH   7  15
ATOM     11  C   UNL     1      -3.624  12.754  24.134  0.00  0.00    +0.000 A 
ATOM     12  C   UNL     1      -3.170  14.046  24.388  0.00  0.00    +0.000 A 
ATOM     13  C   UNL     1      -1.917  14.438  23.936  0.00  0.00    +0.000 A 
ATOM     14  C   UNL     1      -1.106  13.541  23.233  0.00  0.00    +0.000 A 
ATOM     15  C   UNL     1      -1.525  12.233  22.966  0.00  0.00    +0.000 A 
ATOM     16  C   UNL     1      -2.801  11.857  23.420  0.00  0.00    +0.000 A 
BRANCH  11  18
ATOM     17  C   UNL     1      -5.998  12.812  23.931  0.00  0.00    +0.000 C 
ATOM     18  O   UNL     1      -4.833  12.252  24.536  0.00  0.00    +0.000 OA
ENDBRANCH  11  18
ENDBRANCH   7  15
ENDBRANCH   1   8
BRANCH   4  19
ATOM     19  S   UNL     1       2.805   6.853  18.169  0.00  0.00    +0.000 S 
ATOM     20  O   UNL     1       1.780   6.056  17.526  0.00  0.00    +0.000 OA
ATOM     21  O   UNL     1       3.849   7.498  17.404  0.00  0.00    +0.000 OA
BRANCH  19  22
ATOM     22  N   UNL     1       3.573   5.931  19.419  0.00  0.00    +0.000 N 
ATOM     23  C   UNL     1       5.055   5.847  19.351  0.00  0.00    +0.000 C 
ATOM     24  C   UNL     1       5.634   4.535  18.862  0.00  0.00    +0.000 C 
ATOM     25  C   UNL     1       4.892   3.273  19.242  0.00  0.00    +0.000 C 
ATOM     26  C   UNL     1       3.467   3.453  19.655  0.00  0.00    +0.000 A 
ATOM     27  C   UNL     1       2.739   2.284  19.959  0.00  0.00    +0.000 A 
ATOM     28  C   UNL     1       1.442   2.357  20.456  0.00  0.00    +0.000 A 
ATOM     29  C   UNL     1       0.871   3.605  20.668  0.00  0.00    +0.000 A 
ATOM     30  C   UNL     1       1.578   4.773  20.342  0.00  0.00    +0.000 A 
ATOM     31  C   UNL     1       2.874   4.713  19.808  0.00  0.00    +0.000 A 
ENDBRANCH  19  22
ENDBRANCH   4  19
TORSDOF 5
ENDMDL
MODEL 6
REMARK VINA RESULT:      -8.8      5.497      7.602
REMARK  Name = 
REMARK  6 active torsions:
REMARK  status: ('A' for Active; 'I' for Inactive)
REMARK    1  A    between atoms: C_1  and  O_2
REMARK    2  A    between atoms: O_2  and  C_3
REMARK    3  A    between atoms: C_7  and  N_8
REMARK    4  A    between atoms: C_9  and  C_11
REMARK    5  A    between atoms: C_14  and  S_15
REMARK    6  A    between atoms: S_15  and  N_18
REMARK                            x       y       z     vdW  Elec       q    Type
REMARK                         _______ _______ _______ _____ _____    ______ ____
ROOT
ATOM      1  C   UNL     1       2.427   8.162  18.343  0.00  0.00    +0.000 A 
ATOM      2  C   UNL     1       3.334   7.870  17.321  0.00  0.00    +0.000 A 
ATOM      3  C   UNL     1       4.181   6.747  17.436  0.00  0.00    +0.000 A 
ATOM      4  C   UNL     1       4.120   5.917  18.568  0.00  0.00    +0.000 A 
ATOM      5  C   UNL     1       3.186   6.177  19.570  0.00  0.00    +0.000 A 
ATOM      6  C   UNL     1       2.358   7.297  19.458  0.00  0.00    +0.000 A 
ENDROOT
BRANCH   1   8
ATOM      7  N   UNL     1       0.548   9.485  19.315  0.00  0.00    +0.000 N 
ATOM      8  C   UNL     1       1.583   9.408  18.400  0.00  0.00    +0.000 C 
ATOM      9  O   UNL     1       1.909  10.301  17.606  0.00  0.00    +0.000 OA
ATOM     10  H   UNL     1       0.392   8.702  19.934  0.00  0.00    +0.000 HD
BRANCH   7  15
ATOM     11  C   UNL     1      -2.360  11.843  19.031  0.00  0.00    +0.000 A 
ATOM     12  C   UNL     1      -2.033  12.815  19.973  0.00  0.00    +0.000 A 
ATOM     13  C   UNL     1      -0.847  12.710  20.689  0.00  0.00    +0.000 A 
ATOM     14  C   UNL     1       0.017  11.633  20.473  0.00  0.00    +0.000 A 
ATOM     15  C   UNL     1      -0.282  10.633  19.541  0.00  0.00    +0.000 A 
ATOM     16  C   UNL     1      -1.480  10.762  18.816  0.00  0.00    +0.000 A 
BRANCH  11  18
ATOM     17  C   UNL     1      -3.432  11.175  17.010  0.00  0.00    +0.000 C 
ATOM     18  O   UNL     1      -3.500  11.834  18.274  0.00  0.00    +0.000 OA
ENDBRANCH  11  18
ENDBRANCH   7  15
ENDBRANCH   1   8
BRANCH   4  19
ATOM     19  S   UNL     1       5.297   4.564  18.767  0.00  0.00    +0.000 S 
ATOM     20  O   UNL     1       6.226   4.703  17.665  0.00  0.00    +0.000 OA
ATOM     21  O   UNL     1       5.746   4.607  20.142  0.00  0.00    +0.000 OA
BRANCH  19  22
ATOM     22  N   UNL     1       4.361   3.119  18.574  0.00  0.00    +0.000 N 
ATOM     23  C   UNL     1       4.047   2.726  17.175  0.00  0.00    +0.000 C 
ATOM     24  C   UNL     1       2.630   2.985  16.705  0.00  0.00    +0.000 C 
ATOM     25  C   UNL     1       1.527   2.823  17.727  0.00  0.00    +0.000 C 
ATOM     26  C   UNL     1       1.952   2.871  19.159  0.00  0.00    +0.000 A 
ATOM     27  C   UNL     1       0.933   2.778  20.130  0.00  0.00    +0.000 A 
ATOM     28  C   UNL     1       1.239   2.705  21.484  0.00  0.00    +0.000 A 
ATOM     29  C   UNL     1       2.572   2.707  21.875  0.00  0.00    +0.000 A 
ATOM     30  C   UNL     1       3.591   2.826  20.918  0.00  0.00    +0.000 A 
ATOM     31  C   UNL     1       3.296   2.935  19.551  0.00  0.00    +0.000 A 
ENDBRANCH  19  22
ENDBRANCH   4  19
TORSDOF 5
ENDMDL
MODEL 7
REMARK VINA RESULT:      -8.7      5.490      7.496
REMARK  Name = 
REMARK  6 active torsions:
REMARK  status: ('A' for Active; 'I' for Inactive)
REMARK    1  A    between atoms: C_1  and  O_2
REMARK    2  A    between atoms: O_2  and  C_3
REMARK    3  A    between atoms: C_7  and  N_8
REMARK    4  A    between atoms: C_9  and  C_11
REMARK    5  A    between atoms: C_14  and  S_15
REMARK    6  A    between atoms: S_15  and  N_18
REMARK                            x       y       z     vdW  Elec       q    Type
REMARK                         _______ _______ _______ _____ _____    ______ ____
ROOT
ATOM      1  C   UNL     1       2.460   8.127  18.567  0.00  0.00    +0.000 A 
ATOM      2  C   UNL     1       2.464   7.216  19.627  0.00  0.00    +0.000 A 
ATOM      3  C   UNL     1       3.327   6.100  19.589  0.00  0.00    +0.000 A 
ATOM      4  C   UNL     1       4.186   5.896  18.496  0.00  0.00    +0.000 A 
ATOM      5  C   UNL     1       4.220   6.825  17.457  0.00  0.00    +0.000 A 
ATOM      6  C   UNL     1       3.354   7.922  17.492  0.00  0.00    +0.000 A 
ENDROOT
BRANCH   1   8
ATOM      7  N   UNL     1       0.366   9.303  19.242  0.00  0.00    +0.000 N 
ATOM      8  C   UNL     1       1.484   9.264  18.427  0.00  0.00    +0.000 C 
ATOM      9  O   UNL     1       1.782  10.112  17.574  0.00  0.00    +0.000 OA
ATOM     10  H   UNL     1       0.240   8.568  19.923  0.00  0.00    +0.000 HD
BRANCH   7  15
ATOM     11  C   UNL     1      -1.461  12.367  20.411  0.00  0.00    +0.000 A 
ATOM     12  C   UNL     1      -2.411  12.535  19.406  0.00  0.00    +0.000 A 
ATOM     13  C   UNL     1      -2.467  11.631  18.353  0.00  0.00    +0.000 A 
ATOM     14  C   UNL     1      -1.574  10.557  18.293  0.00  0.00    +0.000 A 
ATOM     15  C   UNL     1      -0.601  10.361  19.280  0.00  0.00    +0.000 A 
ATOM     16  C   UNL     1      -0.567  11.278  20.346  0.00  0.00    +0.000 A 
BRANCH  11  18
ATOM     17  C   UNL     1      -1.093  12.573  22.757  0.00  0.00    +0.000 C 
ATOM     18  O   UNL     1      -1.303  13.195  21.489  0.00  0.00    +0.000 OA
ENDBRANCH  11  18
ENDBRANCH   7  15
ENDBRANCH   1   8
BRANCH   4  19
ATOM     19  S   UNL     1       5.188   4.399  18.395  0.00  0.00    +0.000 S 
ATOM     20  O   UNL     1       5.958   4.539  17.175  0.00  0.00    +0.000 OA
ATOM     21  O   UNL     1       5.832   4.246  19.680  0.00  0.00    +0.000 OA
BRANCH  19  22
ATOM     22  N   UNL     1       4.049   3.104  18.229  0.00  0.00    +0.000 N 
ATOM     23  C   UNL     1       3.422   2.952  16.890  0.00  0.00    +0.000 C 
ATOM     24  C   UNL     1       1.988   3.425  16.761  0.00  0.00    +0.000 C 
ATOM     25  C   UNL     1       1.091   3.235  17.964  0.00  0.00    +0.000 C 
ATOM     26  C   UNL     1       1.787   3.031  19.270  0.00  0.00    +0.000 A 
ATOM     27  C   UNL     1       0.971   2.908  20.415  0.00  0.00    +0.000 A 
ATOM     28  C   UNL     1       1.520   2.608  21.656  0.00  0.00    +0.000 A 
ATOM     29  C   UNL     1       2.892   2.413  21.758  0.00  0.00    +0.000 A 
ATOM     30  C   UNL     1       3.714   2.560  20.630  0.00  0.00    +0.000 A 
ATOM     31  C   UNL     1       3.177   2.896  19.378  0.00  0.00    +0.000 A 
ENDBRANCH  19  22
ENDBRANCH   4  19
TORSDOF 5
ENDMDL
MODEL 8
REMARK VINA RESULT:      -8.6      5.716      7.955
REMARK  Name = 
REMARK  6 active torsions:
REMARK  status: ('A' for Active; 'I' for Inactive)
REMARK    1  A    between atoms: C_1  and  O_2
REMARK    2  A    between atoms: O_2  and  C_3
REMARK    3  A    between atoms: C_7  and  N_8
REMARK    4  A    between atoms: C_9  and  C_11
REMARK    5  A    between atoms: C_14  and  S_15
REMARK    6  A    between atoms: S_15  and  N_18
REMARK                            x       y       z     vdW  Elec       q    Type
REMARK                         _______ _______ _______ _____ _____    ______ ____
ROOT
ATOM      1  C   UNL     1       1.541   8.742  19.292  0.00  0.00    +0.000 A 
ATOM      2  C   UNL     1       2.201   8.670  18.063  0.00  0.00    +0.000 A 
ATOM      3  C   UNL     1       3.095   7.608  17.808  0.00  0.00    +0.000 A 
ATOM      4  C   UNL     1       3.326   6.618  18.778  0.00  0.00    +0.000 A 
ATOM      5  C   UNL     1       2.636   6.658  19.989  0.00  0.00    +0.000 A 
ATOM      6  C   UNL     1       1.761   7.719  20.242  0.00  0.00    +0.000 A 
ENDROOT
BRANCH   1   8
ATOM      7  N   UNL     1       0.578  10.191  21.080  0.00  0.00    +0.000 N 
ATOM      8  C   UNL     1       0.686   9.900  19.732  0.00  0.00    +0.000 C 
ATOM      9  O   UNL     1       0.143  10.531  18.814  0.00  0.00    +0.000 OA
ATOM     10  H   UNL     1       1.090   9.622  21.739  0.00  0.00    +0.000 HD
BRANCH   7  15
ATOM     11  C   UNL     1      -1.999  12.126  23.007  0.00  0.00    +0.000 A 
ATOM     12  C   UNL     1      -1.546  13.434  22.856  0.00  0.00    +0.000 A 
ATOM     13  C   UNL     1      -0.406  13.687  22.104  0.00  0.00    +0.000 A 
ATOM     14  C   UNL     1       0.292  12.636  21.503  0.00  0.00    +0.000 A 
ATOM     15  C   UNL     1      -0.128  11.308  21.639  0.00  0.00    +0.000 A 
ATOM     16  C   UNL     1      -1.291  11.071  22.392  0.00  0.00    +0.000 A 
BRANCH  11  18
ATOM     17  C   UNL     1      -4.014  12.788  24.094  0.00  0.00    +0.000 C 
ATOM     18  O   UNL     1      -3.101  11.753  23.729  0.00  0.00    +0.000 OA
ENDBRANCH  11  18
ENDBRANCH   7  15
ENDBRANCH   1   8
BRANCH   4  19
ATOM     19  S   UNL     1       4.567   5.341  18.495  0.00  0.00    +0.000 S 
ATOM     20  O   UNL     1       5.241   5.728  17.273  0.00  0.00    +0.000 OA
ATOM     21  O   UNL     1       5.290   5.186  19.738  0.00  0.00    +0.000 OA
BRANCH  19  22
ATOM     22  N   UNL     1       3.666   3.883  18.237  0.00  0.00    +0.000 N 
ATOM     23  C   UNL     1       2.952   3.778  16.937  0.00  0.00    +0.000 C 
ATOM     24  C   UNL     1       1.452   3.984  16.975  0.00  0.00    +0.000 C 
ATOM     25  C   UNL     1       0.720   3.485  18.202  0.00  0.00    +0.000 C 
ATOM     26  C   UNL     1       1.562   3.260  19.416  0.00  0.00    +0.000 A 
ATOM     27  C   UNL     1       0.892   2.849  20.588  0.00  0.00    +0.000 A 
ATOM     28  C   UNL     1       1.601   2.512  21.736  0.00  0.00    +0.000 A 
ATOM     29  C   UNL     1       2.989   2.567  21.713  0.00  0.00    +0.000 A 
ATOM     30  C   UNL     1       3.661   3.001  20.560  0.00  0.00    +0.000 A 
ATOM     31  C   UNL     1       2.958   3.378  19.405  0.00  0.00    +0.000 A 
ENDBRANCH  19  22
ENDBRANCH   4  19
TORSDOF 5
ENDMDL
MODEL 9
REMARK VINA RESULT:      -8.6      6.459      9.384
REMARK  Name = 
REMARK  6 active torsions:
REMARK  status: ('A' for Active; 'I' for Inactive)
REMARK    1  A    between atoms: C_1  and  O_2
REMARK    2  A    between atoms: O_2  and  C_3
REMARK    3  A    between atoms: C_7  and  N_8
REMARK    4  A    between atoms: C_9  and  C_11
REMARK    5  A    between atoms: C_14  and  S_15
REMARK    6  A    between atoms: S_15  and  N_18
REMARK                            x       y       z     vdW  Elec       q    Type
REMARK                         _______ _______ _______ _____ _____    ______ ____
ROOT
ATOM      1  C   UNL     1       0.541   9.703  21.466  0.00  0.00    +0.000 A 
ATOM      2  C   UNL     1       1.191   8.536  21.877  0.00  0.00    +0.000 A 
ATOM      3  C   UNL     1       1.865   7.738  20.929  0.00  0.00    +0.000 A 
ATOM      4  C   UNL     1       1.893   8.106  19.573  0.00  0.00    +0.000 A 
ATOM      5  C   UNL     1       1.286   9.292  19.163  0.00  0.00    +0.000 A 
ATOM      6  C   UNL     1       0.608  10.073  20.104  0.00  0.00    +0.000 A 
ENDROOT
BRANCH   1   8
ATOM      7  N   UNL     1      -0.897  11.706  21.849  0.00  0.00    +0.000 N 
ATOM      8  C   UNL     1      -0.331  10.549  22.355  0.00  0.00    +0.000 C 
ATOM      9  O   UNL     1      -0.490  10.115  23.504  0.00  0.00    +0.000 OA
ATOM     10  H   UNL     1      -0.719  11.948  20.884  0.00  0.00    +0.000 HD
BRANCH   7  15
ATOM     11  C   UNL     1      -4.129  13.063  23.192  0.00  0.00    +0.000 A 
ATOM     12  C   UNL     1      -3.690  14.139  23.960  0.00  0.00    +0.000 A 
ATOM     13  C   UNL     1      -2.335  14.435  24.021  0.00  0.00    +0.000 A 
ATOM     14  C   UNL     1      -1.408  13.656  23.322  0.00  0.00    +0.000 A 
ATOM     15  C   UNL     1      -1.810  12.562  22.547  0.00  0.00    +0.000 A 
ATOM     16  C   UNL     1      -3.187  12.285  22.486  0.00  0.00    +0.000 A 
BRANCH  11  18
ATOM     17  C   UNL     1      -6.363  13.191  24.013  0.00  0.00    +0.000 C 
ATOM     18  O   UNL     1      -5.434  12.670  23.063  0.00  0.00    +0.000 OA
ENDBRANCH  11  18
ENDBRANCH   7  15
ENDBRANCH   1   8
BRANCH   4  19
ATOM     19  S   UNL     1       2.642   7.012  18.350  0.00  0.00    +0.000 S 
ATOM     20  O   UNL     1       1.529   6.430  17.628  0.00  0.00    +0.000 OA
ATOM     21  O   UNL     1       3.658   7.787  17.672  0.00  0.00    +0.000 OA
BRANCH  19  22
ATOM     22  N   UNL     1       3.452   5.790  19.272  0.00  0.00    +0.000 N 
ATOM     23  C   UNL     1       4.929   5.726  19.117  0.00  0.00    +0.000 C 
ATOM     24  C   UNL     1       5.469   4.591  18.269  0.00  0.00    +0.000 C 
ATOM     25  C   UNL     1       4.727   3.274  18.333  0.00  0.00    +0.000 C 
ATOM     26  C   UNL     1       3.325   3.339  18.844  0.00  0.00    +0.000 A 
ATOM     27  C   UNL     1       2.596   2.131  18.858  0.00  0.00    +0.000 A 
ATOM     28  C   UNL     1       1.323   2.070  19.416  0.00  0.00    +0.000 A 
ATOM     29  C   UNL     1       0.778   3.217  19.978  0.00  0.00    +0.000 A 
ATOM     30  C   UNL     1       1.485   4.429  19.944  0.00  0.00    +0.000 A 
ATOM     31  C   UNL     1       2.756   4.512  19.354  0.00  0.00    +0.000 A 
ENDBRANCH  19  22
ENDBRANCH   4  19
TORSDOF 5
ENDMDL
