MODEL 1
REMARK VINA RESULT:      -8.6      0.000      0.000
REMARK  Name = 
REMARK  5 active torsions:
REMARK  status: ('A' for Active; 'I' for Inactive)
REMARK    1  A    between atoms: C_2  and  C_3
REMARK    2  A    between atoms: C_3  and  N_4
REMARK    3  A    between atoms: N_16  and  C_17
REMARK    4  A    between atoms: C_21  and  S_22
REMARK    5  A    between atoms: S_22  and  N_25
REMARK                            x       y       z     vdW  Elec       q    Type
REMARK                         _______ _______ _______ _____ _____    ______ ____
ROOT
ATOM      1  O   UNL     1       7.182   7.360  16.779  0.00  0.00    +0.000 OA
ATOM      2  C   UNL     1       7.746   6.981  17.802  0.00  0.00    +0.000 C 
ATOM      3  N   UNL     1       8.466   7.793  18.677  0.00  0.00    +0.000 N 
ATOM      4  H   UNL     1       9.144   7.333  19.279  0.00  0.00    +0.000 HD
ENDROOT
BRANCH   3   5
ATOM      5  C   UNL     1       8.558   9.203  18.566  0.00  0.00    +0.000 A 
ATOM      6  C   UNL     1       7.761   9.932  17.675  0.00  0.00    +0.000 A 
ATOM      7  C   UNL     1       7.992  11.285  17.433  0.00  0.00    +0.000 A 
ATOM      8  C   UNL     1       8.969  11.955  18.151  0.00  0.00    +0.000 A 
ATOM      9  C   UNL     1       9.651  11.274  19.163  0.00  0.00    +0.000 A 
ATOM     10  C   UNL     1       9.478   9.896  19.363  0.00  0.00    +0.000 A 
BRANCH   9  11
ATOM     11  S   UNL     1      10.683  12.215  20.260  0.00  0.00    +0.000 S 
ATOM     12  O   UNL     1      10.069  12.175  21.574  0.00  0.00    +0.000 OA
ATOM     13  O   UNL     1      12.054  11.815  20.059  0.00  0.00    +0.000 OA
BRANCH  11  14
ATOM     14  N   UNL     1      10.536  13.808  19.663  0.00  0.00    +0.000 NA
ATOM     15  C   UNL     1      11.710  14.392  18.972  0.00  0.00    +0.000 C 
ATOM     16  C   UNL     1      12.320  15.370  19.950  0.00  0.00    +0.000 C 
ATOM     17  C   UNL     1      11.142  15.888  20.748  0.00  0.00    +0.000 C 
ATOM     18  C   UNL     1      10.084  14.791  20.688  0.00  0.00    +0.000 C 
ENDBRANCH  11  14
ENDBRANCH   9  11
ENDBRANCH   3   5
BRANCH   2  19
ATOM     19  C   UNL     1       7.778   5.497  18.149  0.00  0.00    +0.000 C 
BRANCH  19  20
ATOM     20  N   UNL     1       6.467   4.934  17.912  0.00  0.00    +0.000 N 
ATOM     21  C   UNL     1       6.067   4.363  16.744  0.00  0.00    +0.000 C 
ATOM     22  O   UNL     1       6.707   4.223  15.715  0.00  0.00    +0.000 OA
ATOM     23  N   UNL     1       4.760   3.958  16.887  0.00  0.00    +0.000 N 
ATOM     24  C   UNL     1       4.234   4.223  18.212  0.00  0.00    +0.000 C 
ATOM     25  C   UNL     1       3.858   2.927  18.930  0.00  0.00    +0.000 C 
ATOM     26  C   UNL     1       2.594   2.302  18.338  0.00  0.00    +0.000 C 
ATOM     27  C   UNL     1       1.432   3.292  18.307  0.00  0.00    +0.000 C 
ATOM     28  C   UNL     1       1.802   4.591  17.594  0.00  0.00    +0.000 C 
ATOM     29  C   UNL     1       3.072   5.218  18.171  0.00  0.00    +0.000 C 
ATOM     30  C   UNL     1       5.482   4.869  18.847  0.00  0.00    +0.000 C 
ATOM     31  O   UNL     1       5.587   5.259  20.003  0.00  0.00    +0.000 OA
ATOM     32  H   UNL     1       4.281   3.485  16.135  0.00  0.00    +0.000 HD
ENDBRANCH  19  20
ENDBRANCH   2  19
TORSDOF 5
ENDMDL
MODEL 2
REMARK VINA RESULT:      -8.6      1.793      2.266
REMARK  Name = 
REMARK  5 active torsions:
REMARK  status: ('A' for Active; 'I' for Inactive)
REMARK    1  A    between atoms: C_2  and  C_3
REMARK    2  A    between atoms: C_3  and  N_4
REMARK    3  A    between atoms: N_16  and  C_17
REMARK    4  A    between atoms: C_21  and  S_22
REMARK    5  A    between atoms: S_22  and  N_25
REMARK                            x       y       z     vdW  Elec       q    Type
REMARK                         _______ _______ _______ _____ _____    ______ ____
ROOT
ATOM      1  O   UNL     1       8.251   7.175  18.822  0.00  0.00    +0.000 OA
ATOM      2  C   UNL     1       7.991   7.753  17.769  0.00  0.00    +0.000 C 
ATOM      3  N   UNL     1       8.212   9.106  17.514  0.00  0.00    +0.000 N 
ATOM      4  H   UNL     1       7.670   9.527  16.764  0.00  0.00    +0.000 HD
ENDROOT
BRANCH   3   5
ATOM      5  C   UNL     1       8.875   9.989  18.402  0.00  0.00    +0.000 A 
ATOM      6  C   UNL     1       8.892   9.777  19.786  0.00  0.00    +0.000 A 
ATOM      7  C   UNL     1       9.375  10.746  20.665  0.00  0.00    +0.000 A 
ATOM      8  C   UNL     1       9.935  11.909  20.164  0.00  0.00    +0.000 A 
ATOM      9  C   UNL     1      10.076  12.052  18.781  0.00  0.00    +0.000 A 
ATOM     10  C   UNL     1       9.527  11.117  17.890  0.00  0.00    +0.000 A 
BRANCH   9  11
ATOM     11  S   UNL     1      11.051  13.404  18.171  0.00  0.00    +0.000 S 
ATOM     12  O   UNL     1      12.333  13.355  18.847  0.00  0.00    +0.000 OA
ATOM     13  O   UNL     1      10.961  13.425  16.731  0.00  0.00    +0.000 OA
BRANCH  11  14
ATOM     14  N   UNL     1      10.212  14.778  18.741  0.00  0.00    +0.000 NA
ATOM     15  C   UNL     1       9.437  15.567  17.754  0.00  0.00    +0.000 C 
ATOM     16  C   UNL     1      10.251  16.816  17.495  0.00  0.00    +0.000 C 
ATOM     17  C   UNL     1      10.958  17.082  18.807  0.00  0.00    +0.000 C 
ATOM     18  C   UNL     1      11.071  15.730  19.502  0.00  0.00    +0.000 C 
ENDBRANCH  11  14
ENDBRANCH   9  11
ENDBRANCH   3   5
BRANCH   2  19
ATOM     19  C   UNL     1       7.281   7.007  16.647  0.00  0.00    +0.000 C 
BRANCH  19  20
ATOM     20  N   UNL     1       6.528   5.912  17.218  0.00  0.00    +0.000 N 
ATOM     21  C   UNL     1       7.041   4.687  17.510  0.00  0.00    +0.000 C 
ATOM     22  O   UNL     1       8.183   4.290  17.352  0.00  0.00    +0.000 OA
ATOM     23  N   UNL     1       6.028   3.907  18.021  0.00  0.00    +0.000 N 
ATOM     24  C   UNL     1       4.770   4.619  18.123  0.00  0.00    +0.000 C 
ATOM     25  C   UNL     1       4.310   4.731  19.576  0.00  0.00    +0.000 C 
ATOM     26  C   UNL     1       3.820   3.387  20.117  0.00  0.00    +0.000 C 
ATOM     27  C   UNL     1       2.742   2.776  19.226  0.00  0.00    +0.000 C 
ATOM     28  C   UNL     1       3.192   2.664  17.771  0.00  0.00    +0.000 C 
ATOM     29  C   UNL     1       3.696   4.001  17.224  0.00  0.00    +0.000 C 
ATOM     30  C   UNL     1       5.217   5.989  17.573  0.00  0.00    +0.000 C 
ATOM     31  O   UNL     1       4.521   6.991  17.472  0.00  0.00    +0.000 OA
ATOM     32  H   UNL     1       6.210   2.962  18.326  0.00  0.00    +0.000 HD
ENDBRANCH  19  20
ENDBRANCH   2  19
TORSDOF 5
ENDMDL
MODEL 3
REMARK VINA RESULT:      -8.6      1.873      2.360
REMARK  Name = 
REMARK  5 active torsions:
REMARK  status: ('A' for Active; 'I' for Inactive)
REMARK    1  A    between atoms: C_2  and  C_3
REMARK    2  A    between atoms: C_3  and  N_4
REMARK    3  A    between atoms: N_16  and  C_17
REMARK    4  A    between atoms: C_21  and  S_22
REMARK    5  A    between atoms: S_22  and  N_25
REMARK                            x       y       z     vdW  Elec       q    Type
REMARK                         _______ _______ _______ _____ _____    ______ ____
ROOT
ATOM      1  O   UNL     1       8.193   7.190  18.851  0.00  0.00    +0.000 OA
ATOM      2  C   UNL     1       7.953   7.690  17.754  0.00  0.00    +0.000 C 
ATOM      3  N   UNL     1       8.108   9.036  17.427  0.00  0.00    +0.000 N 
ATOM      4  H   UNL     1       7.579   9.380  16.630  0.00  0.00    +0.000 HD
ENDROOT
BRANCH   3   5
ATOM      5  C   UNL     1       8.673  10.008  18.290  0.00  0.00    +0.000 A 
ATOM      6  C   UNL     1       9.067   9.701  19.598  0.00  0.00    +0.000 A 
ATOM      7  C   UNL     1       9.439  10.699  20.498  0.00  0.00    +0.000 A 
ATOM      8  C   UNL     1       9.511  12.016  20.074  0.00  0.00    +0.000 A 
ATOM      9  C   UNL     1       9.285  12.306  18.726  0.00  0.00    +0.000 A 
ATOM     10  C   UNL     1       8.839  11.321  17.831  0.00  0.00    +0.000 A 
BRANCH   9  11
ATOM     11  S   UNL     1       9.665  13.939  18.142  0.00  0.00    +0.000 S 
ATOM     12  O   UNL     1      10.711  13.812  17.147  0.00  0.00    +0.000 OA
ATOM     13  O   UNL     1       8.428  14.623  17.851  0.00  0.00    +0.000 OA
BRANCH  11  14
ATOM     14  N   UNL     1      10.339  14.696  19.516  0.00  0.00    +0.000 NA
ATOM     15  C   UNL     1       9.798  16.019  19.906  0.00  0.00    +0.000 C 
ATOM     16  C   UNL     1      10.838  17.032  19.481  0.00  0.00    +0.000 C 
ATOM     17  C   UNL     1      12.155  16.297  19.618  0.00  0.00    +0.000 C 
ATOM     18  C   UNL     1      11.825  14.817  19.463  0.00  0.00    +0.000 C 
ENDBRANCH  11  14
ENDBRANCH   9  11
ENDBRANCH   3   5
BRANCH   2  19
ATOM     19  C   UNL     1       7.343   6.839  16.647  0.00  0.00    +0.000 C 
BRANCH  19  20
ATOM     20  N   UNL     1       6.552   5.787  17.249  0.00  0.00    +0.000 N 
ATOM     21  C   UNL     1       7.045   4.596  17.682  0.00  0.00    +0.000 C 
ATOM     22  O   UNL     1       8.198   4.199  17.644  0.00  0.00    +0.000 OA
ATOM     23  N   UNL     1       6.000   3.851  18.177  0.00  0.00    +0.000 N 
ATOM     24  C   UNL     1       4.735   4.557  18.124  0.00  0.00    +0.000 C 
ATOM     25  C   UNL     1       4.165   4.786  19.523  0.00  0.00    +0.000 C 
ATOM     26  C   UNL     1       3.640   3.486  20.136  0.00  0.00    +0.000 C 
ATOM     27  C   UNL     1       2.635   2.793  19.220  0.00  0.00    +0.000 C 
ATOM     28  C   UNL     1       3.195   2.564  17.819  0.00  0.00    +0.000 C 
ATOM     29  C   UNL     1       3.734   3.856  17.201  0.00  0.00    +0.000 C 
ATOM     30  C   UNL     1       5.217   5.880  17.496  0.00  0.00    +0.000 C 
ATOM     31  O   UNL     1       4.528   6.864  17.259  0.00  0.00    +0.000 OA
ATOM     32  H   UNL     1       6.161   2.936  18.573  0.00  0.00    +0.000 HD
ENDBRANCH  19  20
ENDBRANCH   2  19
TORSDOF 5
ENDMDL
MODEL 4
REMARK VINA RESULT:      -8.5      2.096      2.973
REMARK  Name = 
REMARK  5 active torsions:
REMARK  status: ('A' for Active; 'I' for Inactive)
REMARK    1  A    between atoms: C_2  and  C_3
REMARK    2  A    between atoms: C_3  and  N_4
REMARK    3  A    between atoms: N_16  and  C_17
REMARK    4  A    between atoms: C_21  and  S_22
REMARK    5  A    between atoms: S_22  and  N_25
REMARK                            x       y       z     vdW  Elec       q    Type
REMARK                         _______ _______ _______ _____ _____    ______ ____
ROOT
ATOM      1  O   UNL     1       7.133   9.288  17.606  0.00  0.00    +0.000 OA
ATOM      2  C   UNL     1       8.019   8.535  18.003  0.00  0.00    +0.000 C 
ATOM      3  N   UNL     1       9.095   8.906  18.808  0.00  0.00    +0.000 N 
ATOM      4  H   UNL     1       9.912   8.300  18.793  0.00  0.00    +0.000 HD
ENDROOT
BRANCH   3   5
ATOM      5  C   UNL     1       9.261  10.193  19.378  0.00  0.00    +0.000 A 
ATOM      6  C   UNL     1       9.044  10.436  20.740  0.00  0.00    +0.000 A 
ATOM      7  C   UNL     1       9.020  11.733  21.252  0.00  0.00    +0.000 A 
ATOM      8  C   UNL     1       9.304  12.805  20.422  0.00  0.00    +0.000 A 
ATOM      9  C   UNL     1       9.688  12.556  19.102  0.00  0.00    +0.000 A 
ATOM     10  C   UNL     1       9.644  11.262  18.559  0.00  0.00    +0.000 A 
BRANCH   9  11
ATOM     11  S   UNL     1      10.327  13.907  18.144  0.00  0.00    +0.000 S 
ATOM     12  O   UNL     1      11.120  14.734  19.033  0.00  0.00    +0.000 OA
ATOM     13  O   UNL     1      10.875  13.383  16.917  0.00  0.00    +0.000 OA
BRANCH  11  14
ATOM     14  N   UNL     1       8.924  14.786  17.726  0.00  0.00    +0.000 NA
ATOM     15  C   UNL     1       8.717  16.101  18.377  0.00  0.00    +0.000 C 
ATOM     16  C   UNL     1       7.641  15.882  19.416  0.00  0.00    +0.000 C 
ATOM     17  C   UNL     1       6.766  14.796  18.828  0.00  0.00    +0.000 C 
ATOM     18  C   UNL     1       7.662  14.006  17.881  0.00  0.00    +0.000 C 
ENDBRANCH  11  14
ENDBRANCH   9  11
ENDBRANCH   3   5
BRANCH   2  19
ATOM     19  C   UNL     1       8.054   7.086  17.533  0.00  0.00    +0.000 C 
BRANCH  19  20
ATOM     20  N   UNL     1       6.803   6.451  17.888  0.00  0.00    +0.000 N 
ATOM     21  C   UNL     1       6.566   5.805  19.061  0.00  0.00    +0.000 C 
ATOM     22  O   UNL     1       7.329   5.640  19.999  0.00  0.00    +0.000 OA
ATOM     23  N   UNL     1       5.279   5.319  19.033  0.00  0.00    +0.000 N 
ATOM     24  C   UNL     1       4.576   5.666  17.814  0.00  0.00    +0.000 C 
ATOM     25  C   UNL     1       3.366   6.552  18.102  0.00  0.00    +0.000 C 
ATOM     26  C   UNL     1       2.234   5.764  18.764  0.00  0.00    +0.000 C 
ATOM     27  C   UNL     1       1.853   4.529  17.951  0.00  0.00    +0.000 C 
ATOM     28  C   UNL     1       3.059   3.639  17.656  0.00  0.00    +0.000 C 
ATOM     29  C   UNL     1       4.200   4.421  17.005  0.00  0.00    +0.000 C 
ATOM     30  C   UNL     1       5.692   6.459  17.103  0.00  0.00    +0.000 C 
ATOM     31  O   UNL     1       5.605   7.016  16.017  0.00  0.00    +0.000 OA
ATOM     32  H   UNL     1       4.897   4.826  19.827  0.00  0.00    +0.000 HD
ENDBRANCH  19  20
ENDBRANCH   2  19
TORSDOF 5
ENDMDL
MODEL 5
REMARK VINA RESULT:      -8.5      5.975      7.614
REMARK  Name = 
REMARK  5 active torsions:
REMARK  status: ('A' for Active; 'I' for Inactive)
REMARK    1  A    between atoms: C_2  and  C_3
REMARK    2  A    between atoms: C_3  and  N_4
REMARK    3  A    between atoms: N_16  and  C_17
REMARK    4  A    between atoms: C_21  and  S_22
REMARK    5  A    between atoms: S_22  and  N_25
REMARK                            x       y       z     vdW  Elec       q    Type
REMARK                         _______ _______ _______ _____ _____    ______ ____
ROOT
ATOM      1  O   UNL     1       0.583   4.913  20.441  0.00  0.00    +0.000 OA
ATOM      2  C   UNL     1       1.778   5.196  20.477  0.00  0.00    +0.000 C 
ATOM      3  N   UNL     1       2.301   6.485  20.573  0.00  0.00    +0.000 N 
ATOM      4  H   UNL     1       3.261   6.616  20.266  0.00  0.00    +0.000 HD
ENDROOT
BRANCH   3   5
ATOM      5  C   UNL     1       1.519   7.653  20.754  0.00  0.00    +0.000 A 
ATOM      6  C   UNL     1       0.735   7.853  21.897  0.00  0.00    +0.000 A 
ATOM      7  C   UNL     1      -0.175   8.905  21.980  0.00  0.00    +0.000 A 
ATOM      8  C   UNL     1      -0.250   9.832  20.953  0.00  0.00    +0.000 A 
ATOM      9  C   UNL     1       0.649   9.735  19.888  0.00  0.00    +0.000 A 
ATOM     10  C   UNL     1       1.517   8.639  19.760  0.00  0.00    +0.000 A 
BRANCH   9  11
ATOM     11  S   UNL     1       0.737  11.084  18.737  0.00  0.00    +0.000 S 
ATOM     12  O   UNL     1       2.014  10.993  18.057  0.00  0.00    +0.000 OA
ATOM     13  O   UNL     1      -0.504  11.145  18.003  0.00  0.00    +0.000 OA
BRANCH  11  14
ATOM     14  N   UNL     1       0.782  12.458  19.750  0.00  0.00    +0.000 NA
ATOM     15  C   UNL     1      -0.363  13.398  19.684  0.00  0.00    +0.000 C 
ATOM     16  C   UNL     1       0.134  14.598  18.909  0.00  0.00    +0.000 C 
ATOM     17  C   UNL     1       1.607  14.680  19.246  0.00  0.00    +0.000 C 
ATOM     18  C   UNL     1       2.030  13.262  19.613  0.00  0.00    +0.000 C 
ENDBRANCH  11  14
ENDBRANCH   9  11
ENDBRANCH   3   5
BRANCH   2  19
ATOM     19  C   UNL     1       2.826   4.102  20.312  0.00  0.00    +0.000 C 
BRANCH  19  20
ATOM     20  N   UNL     1       3.426   4.225  19.001  0.00  0.00    +0.000 N 
ATOM     21  C   UNL     1       2.885   3.738  17.851  0.00  0.00    +0.000 C 
ATOM     22  O   UNL     1       1.838   3.129  17.710  0.00  0.00    +0.000 OA
ATOM     23  N   UNL     1       3.742   4.029  16.815  0.00  0.00    +0.000 N 
ATOM     24  C   UNL     1       4.907   4.776  17.246  0.00  0.00    +0.000 C 
ATOM     25  C   UNL     1       4.955   6.157  16.594  0.00  0.00    +0.000 C 
ATOM     26  C   UNL     1       5.316   6.068  15.110  0.00  0.00    +0.000 C 
ATOM     27  C   UNL     1       6.610   5.289  14.887  0.00  0.00    +0.000 C 
ATOM     28  C   UNL     1       6.571   3.909  15.539  0.00  0.00    +0.000 C 
ATOM     29  C   UNL     1       6.199   3.987  17.020  0.00  0.00    +0.000 C 
ATOM     30  C   UNL     1       4.590   4.882  18.751  0.00  0.00    +0.000 C 
ATOM     31  O   UNL     1       5.261   5.463  19.594  0.00  0.00    +0.000 OA
ATOM     32  H   UNL     1       3.509   3.773  15.867  0.00  0.00    +0.000 HD
ENDBRANCH  19  20
ENDBRANCH   2  19
TORSDOF 5
ENDMDL
MODEL 6
REMARK VINA RESULT:      -8.4      1.879      2.707
REMARK  Name = 
REMARK  5 active torsions:
REMARK  status: ('A' for Active; 'I' for Inactive)
REMARK    1  A    between atoms: C_2  and  C_3
REMARK    2  A    between atoms: C_3  and  N_4
REMARK    3  A    between atoms: N_16  and  C_17
REMARK    4  A    between atoms: C_21  and  S_22
REMARK    5  A    between atoms: S_22  and  N_25
REMARK                            x       y       z     vdW  Elec       q    Type
REMARK                         _______ _______ _______ _____ _____    ______ ____
ROOT
ATOM      1  O   UNL     1       7.238   9.280  17.585  0.00  0.00    +0.000 OA
ATOM      2  C   UNL     1       8.080   8.502  18.029  0.00  0.00    +0.000 C 
ATOM      3  N   UNL     1       9.130   8.847  18.879  0.00  0.00    +0.000 N 
ATOM      4  H   UNL     1       9.926   8.215  18.906  0.00  0.00    +0.000 HD
ENDROOT
BRANCH   3   5
ATOM      5  C   UNL     1       9.311  10.133  19.445  0.00  0.00    +0.000 A 
ATOM      6  C   UNL     1       8.907  10.434  20.751  0.00  0.00    +0.000 A 
ATOM      7  C   UNL     1       8.910  11.744  21.230  0.00  0.00    +0.000 A 
ATOM      8  C   UNL     1       9.408  12.764  20.437  0.00  0.00    +0.000 A 
ATOM      9  C   UNL     1       9.972  12.446  19.198  0.00  0.00    +0.000 A 
ATOM     10  C   UNL     1       9.905  11.143  18.678  0.00  0.00    +0.000 A 
BRANCH   9  11
ATOM     11  S   UNL     1      10.862  13.712  18.329  0.00  0.00    +0.000 S 
ATOM     12  O   UNL     1      12.183  13.799  18.920  0.00  0.00    +0.000 OA
ATOM     13  O   UNL     1      10.684  13.509  16.912  0.00  0.00    +0.000 OA
BRANCH  11  14
ATOM     14  N   UNL     1      10.012  15.135  18.738  0.00  0.00    +0.000 NA
ATOM     15  C   UNL     1       9.417  15.922  17.631  0.00  0.00    +0.000 C 
ATOM     16  C   UNL     1      10.312  17.128  17.455  0.00  0.00    +0.000 C 
ATOM     17  C   UNL     1      10.840  17.410  18.845  0.00  0.00    +0.000 C 
ATOM     18  C   UNL     1      10.797  16.078  19.586  0.00  0.00    +0.000 C 
ENDBRANCH  11  14
ENDBRANCH   9  11
ENDBRANCH   3   5
BRANCH   2  19
ATOM     19  C   UNL     1       8.089   7.048  17.573  0.00  0.00    +0.000 C 
BRANCH  19  20
ATOM     20  N   UNL     1       6.819   6.445  17.914  0.00  0.00    +0.000 N 
ATOM     21  C   UNL     1       6.551   5.809  19.086  0.00  0.00    +0.000 C 
ATOM     22  O   UNL     1       7.298   5.628  20.033  0.00  0.00    +0.000 OA
ATOM     23  N   UNL     1       5.253   5.355  19.043  0.00  0.00    +0.000 N 
ATOM     24  C   UNL     1       4.574   5.715  17.814  0.00  0.00    +0.000 C 
ATOM     25  C   UNL     1       3.382   6.633  18.085  0.00  0.00    +0.000 C 
ATOM     26  C   UNL     1       2.224   5.874  18.734  0.00  0.00    +0.000 C 
ATOM     27  C   UNL     1       1.822   4.647  17.920  0.00  0.00    +0.000 C 
ATOM     28  C   UNL     1       3.009   3.726  17.642  0.00  0.00    +0.000 C 
ATOM     29  C   UNL     1       4.178   4.478  17.004  0.00  0.00    +0.000 C 
ATOM     30  C   UNL     1       5.718   6.479  17.116  0.00  0.00    +0.000 C 
ATOM     31  O   UNL     1       5.658   7.035  16.027  0.00  0.00    +0.000 OA
ATOM     32  H   UNL     1       4.849   4.873  19.833  0.00  0.00    +0.000 HD
ENDBRANCH  19  20
ENDBRANCH   2  19
TORSDOF 5
ENDMDL
MODEL 7
REMARK VINA RESULT:      -8.4      5.452      8.758
REMARK  Name = 
REMARK  5 active torsions:
REMARK  status: ('A' for Active; 'I' for Inactive)
REMARK    1  A    between atoms: C_2  and  C_3
REMARK    2  A    between atoms: C_3  and  N_4
REMARK    3  A    between atoms: N_16  and  C_17
REMARK    4  A    between atoms: C_21  and  S_22
REMARK    5  A    between atoms: S_22  and  N_25
REMARK                            x       y       z     vdW  Elec       q    Type
REMARK                         _______ _______ _______ _____ _____    ______ ____
ROOT
ATOM      1  O   UNL     1       0.767   5.808  20.328  0.00  0.00    +0.000 OA
ATOM      2  C   UNL     1       1.700   6.581  20.528  0.00  0.00    +0.000 C 
ATOM      3  N   UNL     1       2.956   6.505  19.928  0.00  0.00    +0.000 N 
ATOM      4  H   UNL     1       3.723   6.973  20.403  0.00  0.00    +0.000 HD
ENDROOT
BRANCH   3   5
ATOM      5  C   UNL     1       3.301   5.582  18.910  0.00  0.00    +0.000 A 
ATOM      6  C   UNL     1       2.788   4.279  18.883  0.00  0.00    +0.000 A 
ATOM      7  C   UNL     1       3.279   3.322  17.996  0.00  0.00    +0.000 A 
ATOM      8  C   UNL     1       4.229   3.681  17.054  0.00  0.00    +0.000 A 
ATOM      9  C   UNL     1       4.620   5.020  16.963  0.00  0.00    +0.000 A 
ATOM     10  C   UNL     1       4.188   5.973  17.899  0.00  0.00    +0.000 A 
BRANCH   9  11
ATOM     11  S   UNL     1       5.609   5.514  15.575  0.00  0.00    +0.000 S 
ATOM     12  O   UNL     1       5.643   4.400  14.647  0.00  0.00    +0.000 OA
ATOM     13  O   UNL     1       5.191   6.829  15.156  0.00  0.00    +0.000 OA
BRANCH  11  14
ATOM     14  N   UNL     1       7.169   5.680  16.248  0.00  0.00    +0.000 NA
ATOM     15  C   UNL     1       7.637   4.617  17.169  0.00  0.00    +0.000 C 
ATOM     16  C   UNL     1       7.541   5.204  18.559  0.00  0.00    +0.000 C 
ATOM     17  C   UNL     1       7.802   6.682  18.361  0.00  0.00    +0.000 C 
ATOM     18  C   UNL     1       7.391   6.990  16.926  0.00  0.00    +0.000 C 
ENDBRANCH  11  14
ENDBRANCH   9  11
ENDBRANCH   3   5
BRANCH   2  19
ATOM     19  C   UNL     1       1.570   7.677  21.579  0.00  0.00    +0.000 C 
BRANCH  19  20
ATOM     20  N   UNL     1       0.813   8.774  21.017  0.00  0.00    +0.000 N 
ATOM     21  C   UNL     1      -0.195   9.428  21.655  0.00  0.00    +0.000 C 
ATOM     22  O   UNL     1      -0.638   9.224  22.773  0.00  0.00    +0.000 OA
ATOM     23  N   UNL     1      -0.685  10.395  20.808  0.00  0.00    +0.000 N 
ATOM     24  C   UNL     1       0.026  10.446  19.545  0.00  0.00    +0.000 C 
ATOM     25  C   UNL     1       0.727  11.791  19.354  0.00  0.00    +0.000 C 
ATOM     26  C   UNL     1      -0.274  12.910  19.062  0.00  0.00    +0.000 C 
ATOM     27  C   UNL     1      -1.178  12.568  17.881  0.00  0.00    +0.000 C 
ATOM     28  C   UNL     1      -1.879  11.224  18.063  0.00  0.00    +0.000 C 
ATOM     29  C   UNL     1      -0.889  10.099  18.367  0.00  0.00    +0.000 C 
ATOM     30  C   UNL     1       1.046   9.316  19.792  0.00  0.00    +0.000 C 
ATOM     31  O   UNL     1       1.931   8.959  19.025  0.00  0.00    +0.000 OA
ATOM     32  H   UNL     1      -1.427  11.013  21.104  0.00  0.00    +0.000 HD
ENDBRANCH  19  20
ENDBRANCH   2  19
TORSDOF 5
ENDMDL
MODEL 8
REMARK VINA RESULT:      -8.3      6.340      9.658
REMARK  Name = 
REMARK  5 active torsions:
REMARK  status: ('A' for Active; 'I' for Inactive)
REMARK    1  A    between atoms: C_2  and  C_3
REMARK    2  A    between atoms: C_3  and  N_4
REMARK    3  A    between atoms: N_16  and  C_17
REMARK    4  A    between atoms: C_21  and  S_22
REMARK    5  A    between atoms: S_22  and  N_25
REMARK                            x       y       z     vdW  Elec       q    Type
REMARK                         _______ _______ _______ _____ _____    ______ ____
ROOT
ATOM      1  O   UNL     1       1.889   8.596  17.218  0.00  0.00    +0.000 OA
ATOM      2  C   UNL     1       1.964   9.178  18.298  0.00  0.00    +0.000 C 
ATOM      3  N   UNL     1       2.072   8.562  19.543  0.00  0.00    +0.000 N 
ATOM      4  H   UNL     1       1.797   9.111  20.354  0.00  0.00    +0.000 HD
ENDROOT
BRANCH   3   5
ATOM      5  C   UNL     1       2.221   7.166  19.734  0.00  0.00    +0.000 A 
ATOM      6  C   UNL     1       1.301   6.414  20.474  0.00  0.00    +0.000 A 
ATOM      7  C   UNL     1       1.555   5.087  20.819  0.00  0.00    +0.000 A 
ATOM      8  C   UNL     1       2.697   4.461  20.348  0.00  0.00    +0.000 A 
ATOM      9  C   UNL     1       3.534   5.153  19.468  0.00  0.00    +0.000 A 
ATOM     10  C   UNL     1       3.326   6.511  19.175  0.00  0.00    +0.000 A 
BRANCH   9  11
ATOM     11  S   UNL     1       4.824   4.249  18.649  0.00  0.00    +0.000 S 
ATOM     12  O   UNL     1       6.048   4.468  19.395  0.00  0.00    +0.000 OA
ATOM     13  O   UNL     1       4.345   2.919  18.365  0.00  0.00    +0.000 OA
BRANCH  11  14
ATOM     14  N   UNL     1       4.973   5.055  17.151  0.00  0.00    +0.000 NA
ATOM     15  C   UNL     1       4.698   4.274  15.922  0.00  0.00    +0.000 C 
ATOM     16  C   UNL     1       6.049   3.981  15.308  0.00  0.00    +0.000 C 
ATOM     17  C   UNL     1       6.900   5.175  15.687  0.00  0.00    +0.000 C 
ATOM     18  C   UNL     1       6.287   5.734  16.966  0.00  0.00    +0.000 C 
ENDBRANCH  11  14
ENDBRANCH   9  11
ENDBRANCH   3   5
BRANCH   2  19
ATOM     19  C   UNL     1       1.840  10.696  18.354  0.00  0.00    +0.000 C 
BRANCH  19  20
ATOM     20  N   UNL     1       0.750  11.042  19.241  0.00  0.00    +0.000 N 
ATOM     21  C   UNL     1      -0.549  10.690  19.048  0.00  0.00    +0.000 C 
ATOM     22  O   UNL     1      -1.027  10.046  18.129  0.00  0.00    +0.000 OA
ATOM     23  N   UNL     1      -1.294  11.208  20.082  0.00  0.00    +0.000 N 
ATOM     24  C   UNL     1      -0.485  11.917  21.054  0.00  0.00    +0.000 C 
ATOM     25  C   UNL     1      -0.548  11.247  22.426  0.00  0.00    +0.000 C 
ATOM     26  C   UNL     1      -1.903  11.468  23.099  0.00  0.00    +0.000 C 
ATOM     27  C   UNL     1      -2.265  12.949  23.174  0.00  0.00    +0.000 C 
ATOM     28  C   UNL     1      -2.201  13.627  21.807  0.00  0.00    +0.000 C 
ATOM     29  C   UNL     1      -0.854  13.402  21.120  0.00  0.00    +0.000 C 
ATOM     30  C   UNL     1       0.901  11.730  20.405  0.00  0.00    +0.000 C 
ATOM     31  O   UNL     1       1.970  12.122  20.853  0.00  0.00    +0.000 OA
ATOM     32  H   UNL     1      -2.287  11.036  20.138  0.00  0.00    +0.000 HD
ENDBRANCH  19  20
ENDBRANCH   2  19
TORSDOF 5
ENDMDL
MODEL 9
REMARK VINA RESULT:      -8.2      5.651      9.547
REMARK  Name = 
REMARK  5 active torsions:
REMARK  status: ('A' for Active; 'I' for Inactive)
REMARK    1  A    between atoms: C_2  and  C_3
REMARK    2  A    between atoms: C_3  and  N_4
REMARK    3  A    between atoms: N_16  and  C_17
REMARK    4  A    between atoms: C_21  and  S_22
REMARK    5  A    between atoms: S_22  and  N_25
REMARK                            x       y       z     vdW  Elec       q    Type
REMARK                         _______ _______ _______ _____ _____    ______ ____
ROOT
ATOM      1  O   UNL     1       1.731   8.325  21.642  0.00  0.00    +0.000 OA
ATOM      2  C   UNL     1       1.064   8.485  20.622  0.00  0.00    +0.000 C 
ATOM      3  N   UNL     1       1.358   7.945  19.371  0.00  0.00    +0.000 N 
ATOM      4  H   UNL     1       0.943   8.401  18.563  0.00  0.00    +0.000 HD
ENDROOT
BRANCH   3   5
ATOM      5  C   UNL     1       2.418   7.038  19.121  0.00  0.00    +0.000 A 
ATOM      6  C   UNL     1       2.586   5.866  19.869  0.00  0.00    +0.000 A 
ATOM      7  C   UNL     1       3.734   5.084  19.748  0.00  0.00    +0.000 A 
ATOM      8  C   UNL     1       4.694   5.413  18.806  0.00  0.00    +0.000 A 
ATOM      9  C   UNL     1       4.453   6.482  17.939  0.00  0.00    +0.000 A 
ATOM     10  C   UNL     1       3.337   7.319  18.103  0.00  0.00    +0.000 A 
BRANCH   9  11
ATOM     11  S   UNL     1       5.546   6.709  16.560  0.00  0.00    +0.000 S 
ATOM     12  O   UNL     1       4.754   7.211  15.454  0.00  0.00    +0.000 OA
ATOM     13  O   UNL     1       6.726   7.404  17.016  0.00  0.00    +0.000 OA
BRANCH  11  14
ATOM     14  N   UNL     1       6.026   5.115  16.178  0.00  0.00    +0.000 NA
ATOM     15  C   UNL     1       7.363   4.929  15.564  0.00  0.00    +0.000 C 
ATOM     16  C   UNL     1       7.109   4.648  14.100  0.00  0.00    +0.000 C 
ATOM     17  C   UNL     1       5.779   3.926  14.081  0.00  0.00    +0.000 C 
ATOM     18  C   UNL     1       5.040   4.380  15.335  0.00  0.00    +0.000 C 
ENDBRANCH  11  14
ENDBRANCH   9  11
ENDBRANCH   3   5
BRANCH   2  19
ATOM     19  C   UNL     1      -0.143   9.415  20.639  0.00  0.00    +0.000 C 
BRANCH  19  20
ATOM     20  N   UNL     1       0.197  10.632  19.934  0.00  0.00    +0.000 N 
ATOM     21  C   UNL     1      -0.020  10.847  18.608  0.00  0.00    +0.000 C 
ATOM     22  O   UNL     1      -0.516  10.089  17.793  0.00  0.00    +0.000 OA
ATOM     23  N   UNL     1       0.444  12.104  18.295  0.00  0.00    +0.000 N 
ATOM     24  C   UNL     1       0.972  12.809  19.446  0.00  0.00    +0.000 C 
ATOM     25  C   UNL     1       0.165  14.072  19.743  0.00  0.00    +0.000 C 
ATOM     26  C   UNL     1       0.426  15.165  18.706  0.00  0.00    +0.000 C 
ATOM     27  C   UNL     1       1.916  15.465  18.561  0.00  0.00    +0.000 C 
ATOM     28  C   UNL     1       2.730  14.207  18.267  0.00  0.00    +0.000 C 
ATOM     29  C   UNL     1       2.467  13.103  19.292  0.00  0.00    +0.000 C 
ATOM     30  C   UNL     1       0.738  11.732  20.524  0.00  0.00    +0.000 C 
ATOM     31  O   UNL     1       0.987  11.835  21.718  0.00  0.00    +0.000 OA
ATOM     32  H   UNL     1       0.354  12.468  17.357  0.00  0.00    +0.000 HD
ENDBRANCH  19  20
ENDBRANCH   2  19
TORSDOF 5
ENDMDL
