MODEL 1
REMARK VINA RESULT:      -8.6      0.000      0.000
REMARK  Name = 
REMARK  2 active torsions:
REMARK  status: ('A' for Active; 'I' for Inactive)
REMARK    1  A    between atoms: C_2  and  C_3
REMARK    2  A    between atoms: C_16  and  C_17
REMARK                            x       y       z     vdW  Elec       q    Type
REMARK                         _______ _______ _______ _____ _____    ______ ____
ROOT
ATOM      1  O   UNL     1       4.853   2.044  19.654  0.00  0.00    +0.000 OA
ATOM      2  C   UNL     1       4.670   3.251  19.532  0.00  0.00    +0.000 C 
ATOM      3  N   UNL     1       3.583   3.898  20.143  0.00  0.00    +0.000 N 
ATOM      4  C   UNL     1       2.593   3.137  20.895  0.00  0.00    +0.000 C 
ATOM      5  C   UNL     1       1.177   3.434  20.387  0.00  0.00    +0.000 C 
ATOM      6  C   UNL     1       0.895   4.938  20.275  0.00  0.00    +0.000 C 
ATOM      7  C   UNL     1       2.015   5.663  19.511  0.00  0.00    +0.000 C 
ATOM      8  C   UNL     1       3.353   5.346  20.180  0.00  0.00    +0.000 C 
ENDROOT
BRANCH   2   9
ATOM      9  C   UNL     1       5.633   4.085  18.779  0.00  0.00    +0.000 A 
ATOM     10  N   UNL     1       6.654   4.750  19.368  0.00  0.00    +0.000 NA
ATOM     11  N   UNL     1       7.421   5.134  18.337  0.00  0.00    +0.000 N 
ATOM     12  C   UNL     1       6.851   4.945  17.112  0.00  0.00    +0.000 A 
ATOM     13  C   UNL     1       7.300   5.259  15.827  0.00  0.00    +0.000 A 
ATOM     14  C   UNL     1       6.453   4.939  14.765  0.00  0.00    +0.000 A 
ATOM     15  C   UNL     1       5.227   4.308  14.982  0.00  0.00    +0.000 A 
ATOM     16  C   UNL     1       4.818   3.962  16.278  0.00  0.00    +0.000 A 
ATOM     17  C   UNL     1       5.647   4.299  17.365  0.00  0.00    +0.000 A 
ATOM     18  H   UNL     1       8.336   5.521  18.538  0.00  0.00    +0.000 HD
ENDBRANCH   2   9
BRANCH   7  19
ATOM     19  C   UNL     1       1.797   7.139  19.487  0.00  0.00    +0.000 A 
ATOM     20  N   UNL     1       1.982   7.941  18.460  0.00  0.00    +0.000 NA
ATOM     21  C   UNL     1       1.647   9.193  18.906  0.00  0.00    +0.000 A 
ATOM     22  C   UNL     1       1.681  10.420  18.230  0.00  0.00    +0.000 A 
ATOM     23  C   UNL     1       1.308  11.577  18.923  0.00  0.00    +0.000 A 
ATOM     24  C   UNL     1       0.895  11.510  20.257  0.00  0.00    +0.000 A 
ATOM     25  C   UNL     1       0.840  10.290  20.943  0.00  0.00    +0.000 A 
ATOM     26  C   UNL     1       1.229   9.155  20.230  0.00  0.00    +0.000 A 
ATOM     27  N   UNL     1       1.317   7.830  20.573  0.00  0.00    +0.000 N 
ATOM     28  H   UNL     1       1.080   7.431  21.470  0.00  0.00    +0.000 HD
ENDBRANCH   7  19
TORSDOF 2
ENDMDL
MODEL 2
REMARK VINA RESULT:      -8.5      0.152      1.150
REMARK  Name = 
REMARK  2 active torsions:
REMARK  status: ('A' for Active; 'I' for Inactive)
REMARK    1  A    between atoms: C_2  and  C_3
REMARK    2  A    between atoms: C_16  and  C_17
REMARK                            x       y       z     vdW  Elec       q    Type
REMARK                         _______ _______ _______ _____ _____    ______ ____
ROOT
ATOM      1  O   UNL     1       4.842   1.978  19.686  0.00  0.00    +0.000 OA
ATOM      2  C   UNL     1       4.642   3.186  19.605  0.00  0.00    +0.000 C 
ATOM      3  N   UNL     1       3.541   3.795  20.229  0.00  0.00    +0.000 N 
ATOM      4  C   UNL     1       2.555   2.994  20.944  0.00  0.00    +0.000 C 
ATOM      5  C   UNL     1       1.140   3.288  20.432  0.00  0.00    +0.000 C 
ATOM      6  C   UNL     1       0.836   4.792  20.371  0.00  0.00    +0.000 C 
ATOM      7  C   UNL     1       1.953   5.559  19.644  0.00  0.00    +0.000 C 
ATOM      8  C   UNL     1       3.290   5.238  20.315  0.00  0.00    +0.000 C 
ENDROOT
BRANCH   2   9
ATOM      9  C   UNL     1       5.600   4.060  18.892  0.00  0.00    +0.000 A 
ATOM     10  N   UNL     1       6.564   4.770  19.522  0.00  0.00    +0.000 NA
ATOM     11  N   UNL     1       7.358   5.185  18.523  0.00  0.00    +0.000 N 
ATOM     12  C   UNL     1       6.852   4.968  17.275  0.00  0.00    +0.000 A 
ATOM     13  C   UNL     1       7.342   5.298  16.010  0.00  0.00    +0.000 A 
ATOM     14  C   UNL     1       6.557   4.939  14.913  0.00  0.00    +0.000 A 
ATOM     15  C   UNL     1       5.352   4.255  15.079  0.00  0.00    +0.000 A 
ATOM     16  C   UNL     1       4.902   3.895  16.357  0.00  0.00    +0.000 A 
ATOM     17  C   UNL     1       5.667   4.270  17.479  0.00  0.00    +0.000 A 
ATOM     18  H   UNL     1       8.246   5.613  18.762  0.00  0.00    +0.000 HD
ENDBRANCH   2   9
BRANCH   7  19
ATOM     19  C   UNL     1       1.713   7.032  19.671  0.00  0.00    +0.000 A 
ATOM     20  N   UNL     1       1.300   7.739  20.702  0.00  0.00    +0.000 NA
ATOM     21  C   UNL     1       1.238   9.034  20.258  0.00  0.00    +0.000 A 
ATOM     22  C   UNL     1       0.837  10.192  20.938  0.00  0.00    +0.000 A 
ATOM     23  C   UNL     1       0.838  11.408  20.246  0.00  0.00    +0.000 A 
ATOM     24  C   UNL     1       1.241  11.471  18.909  0.00  0.00    +0.000 A 
ATOM     25  C   UNL     1       1.659  10.327  18.219  0.00  0.00    +0.000 A 
ATOM     26  C   UNL     1       1.638   9.126  18.931  0.00  0.00    +0.000 A 
ATOM     27  N   UNL     1       1.953   7.837  18.584  0.00  0.00    +0.000 N 
ATOM     28  H   UNL     1       2.294   7.530  17.684  0.00  0.00    +0.000 HD
ENDBRANCH   7  19
TORSDOF 2
ENDMDL
MODEL 3
REMARK VINA RESULT:      -7.9      1.363      2.199
REMARK  Name = 
REMARK  2 active torsions:
REMARK  status: ('A' for Active; 'I' for Inactive)
REMARK    1  A    between atoms: C_2  and  C_3
REMARK    2  A    between atoms: C_16  and  C_17
REMARK                            x       y       z     vdW  Elec       q    Type
REMARK                         _______ _______ _______ _____ _____    ______ ____
ROOT
ATOM      1  O   UNL     1       4.672   1.990  18.760  0.00  0.00    +0.000 OA
ATOM      2  C   UNL     1       4.440   3.195  18.759  0.00  0.00    +0.000 C 
ATOM      3  N   UNL     1       3.600   3.786  19.717  0.00  0.00    +0.000 N 
ATOM      4  C   UNL     1       2.917   2.969  20.712  0.00  0.00    +0.000 C 
ATOM      5  C   UNL     1       1.409   3.243  20.701  0.00  0.00    +0.000 C 
ATOM      6  C   UNL     1       1.082   4.741  20.754  0.00  0.00    +0.000 C 
ATOM      7  C   UNL     1       1.884   5.527  19.704  0.00  0.00    +0.000 C 
ATOM      8  C   UNL     1       3.372   5.225  19.891  0.00  0.00    +0.000 C 
ENDROOT
BRANCH   2   9
ATOM      9  C   UNL     1       5.096   4.085  17.775  0.00  0.00    +0.000 A 
ATOM     10  N   UNL     1       4.744   4.131  16.470  0.00  0.00    +0.000 NA
ATOM     11  N   UNL     1       5.366   5.228  16.010  0.00  0.00    +0.000 N 
ATOM     12  C   UNL     1       6.266   5.769  16.881  0.00  0.00    +0.000 A 
ATOM     13  C   UNL     1       7.133   6.857  16.755  0.00  0.00    +0.000 A 
ATOM     14  C   UNL     1       7.950   7.145  17.849  0.00  0.00    +0.000 A 
ATOM     15  C   UNL     1       7.878   6.395  19.024  0.00  0.00    +0.000 A 
ATOM     16  C   UNL     1       6.968   5.335  19.143  0.00  0.00    +0.000 A 
ATOM     17  C   UNL     1       6.152   5.012  18.041  0.00  0.00    +0.000 A 
ATOM     18  H   UNL     1       5.129   5.561  15.083  0.00  0.00    +0.000 HD
ENDBRANCH   2   9
BRANCH   7  19
ATOM     19  C   UNL     1       1.647   6.996  19.819  0.00  0.00    +0.000 A 
ATOM     20  N   UNL     1       1.245   7.642  20.894  0.00  0.00    +0.000 NA
ATOM     21  C   UNL     1       1.180   8.961  20.527  0.00  0.00    +0.000 A 
ATOM     22  C   UNL     1       0.787  10.078  21.278  0.00  0.00    +0.000 A 
ATOM     23  C   UNL     1       0.783  11.332  20.658  0.00  0.00    +0.000 A 
ATOM     24  C   UNL     1       1.174  11.473  19.323  0.00  0.00    +0.000 A 
ATOM     25  C   UNL     1       1.584  10.370  18.563  0.00  0.00    +0.000 A 
ATOM     26  C   UNL     1       1.567   9.130  19.203  0.00  0.00    +0.000 A 
ATOM     27  N   UNL     1       1.877   7.863  18.779  0.00  0.00    +0.000 N 
ATOM     28  H   UNL     1       2.209   7.609  17.860  0.00  0.00    +0.000 HD
ENDBRANCH   7  19
TORSDOF 2
ENDMDL
MODEL 4
REMARK VINA RESULT:      -7.9      1.370      1.876
REMARK  Name = 
REMARK  2 active torsions:
REMARK  status: ('A' for Active; 'I' for Inactive)
REMARK    1  A    between atoms: C_2  and  C_3
REMARK    2  A    between atoms: C_16  and  C_17
REMARK                            x       y       z     vdW  Elec       q    Type
REMARK                         _______ _______ _______ _____ _____    ______ ____
ROOT
ATOM      1  O   UNL     1       4.614   1.935  18.777  0.00  0.00    +0.000 OA
ATOM      2  C   UNL     1       4.401   3.144  18.760  0.00  0.00    +0.000 C 
ATOM      3  N   UNL     1       3.576   3.760  19.715  0.00  0.00    +0.000 N 
ATOM      4  C   UNL     1       2.887   2.967  20.725  0.00  0.00    +0.000 C 
ATOM      5  C   UNL     1       1.383   3.264  20.719  0.00  0.00    +0.000 C 
ATOM      6  C   UNL     1       1.080   4.768  20.754  0.00  0.00    +0.000 C 
ATOM      7  C   UNL     1       1.887   5.527  19.688  0.00  0.00    +0.000 C 
ATOM      8  C   UNL     1       3.371   5.204  19.872  0.00  0.00    +0.000 C 
ENDROOT
BRANCH   2   9
ATOM      9  C   UNL     1       5.065   4.010  17.761  0.00  0.00    +0.000 A 
ATOM     10  N   UNL     1       4.735   4.011  16.449  0.00  0.00    +0.000 NA
ATOM     11  N   UNL     1       5.354   5.100  15.966  0.00  0.00    +0.000 N 
ATOM     12  C   UNL     1       6.232   5.678  16.835  0.00  0.00    +0.000 A 
ATOM     13  C   UNL     1       7.089   6.771  16.690  0.00  0.00    +0.000 A 
ATOM     14  C   UNL     1       7.883   7.103  17.789  0.00  0.00    +0.000 A 
ATOM     15  C   UNL     1       7.799   6.389  18.985  0.00  0.00    +0.000 A 
ATOM     16  C   UNL     1       6.898   5.323  19.121  0.00  0.00    +0.000 A 
ATOM     17  C   UNL     1       6.106   4.956  18.016  0.00  0.00    +0.000 A 
ATOM     18  H   UNL     1       5.129   5.401  15.025  0.00  0.00    +0.000 HD
ENDBRANCH   2   9
BRANCH   7  19
ATOM     19  C   UNL     1       1.674   7.001  19.785  0.00  0.00    +0.000 A 
ATOM     20  N   UNL     1       1.750   7.869  18.798  0.00  0.00    +0.000 NA
ATOM     21  C   UNL     1       1.470   9.088  19.359  0.00  0.00    +0.000 A 
ATOM     22  C   UNL     1       1.436  10.357  18.764  0.00  0.00    +0.000 A 
ATOM     23  C   UNL     1       1.144  11.465  19.568  0.00  0.00    +0.000 A 
ATOM     24  C   UNL     1       0.879  11.310  20.932  0.00  0.00    +0.000 A 
ATOM     25  C   UNL     1       0.893  10.048  21.539  0.00  0.00    +0.000 A 
ATOM     26  C   UNL     1       1.198   8.962  20.715  0.00  0.00    +0.000 A 
ATOM     27  N   UNL     1       1.317   7.618  20.959  0.00  0.00    +0.000 N 
ATOM     28  H   UNL     1       1.177   7.161  21.848  0.00  0.00    +0.000 HD
ENDBRANCH   7  19
TORSDOF 2
ENDMDL
MODEL 5
REMARK VINA RESULT:      -7.7      1.775      2.382
REMARK  Name = 
REMARK  2 active torsions:
REMARK  status: ('A' for Active; 'I' for Inactive)
REMARK    1  A    between atoms: C_2  and  C_3
REMARK    2  A    between atoms: C_16  and  C_17
REMARK                            x       y       z     vdW  Elec       q    Type
REMARK                         _______ _______ _______ _____ _____    ______ ____
ROOT
ATOM      1  O   UNL     1       4.961   2.678  17.858  0.00  0.00    +0.000 OA
ATOM      2  C   UNL     1       4.638   3.822  18.164  0.00  0.00    +0.000 C 
ATOM      3  N   UNL     1       3.731   4.079  19.205  0.00  0.00    +0.000 N 
ATOM      4  C   UNL     1       3.090   2.982  19.919  0.00  0.00    +0.000 C 
ATOM      5  C   UNL     1       1.566   3.147  19.914  0.00  0.00    +0.000 C 
ATOM      6  C   UNL     1       1.123   4.551  20.346  0.00  0.00    +0.000 C 
ATOM      7  C   UNL     1       1.888   5.641  19.576  0.00  0.00    +0.000 C 
ATOM      8  C   UNL     1       3.390   5.400  19.743  0.00  0.00    +0.000 C 
ENDROOT
BRANCH   2   9
ATOM      9  C   UNL     1       5.247   4.984  17.479  0.00  0.00    +0.000 A 
ATOM     10  N   UNL     1       4.778   5.484  16.313  0.00  0.00    +0.000 NA
ATOM     11  N   UNL     1       5.415   6.659  16.192  0.00  0.00    +0.000 N 
ATOM     12  C   UNL     1       6.420   6.849  17.094  0.00  0.00    +0.000 A 
ATOM     13  C   UNL     1       7.330   7.896  17.255  0.00  0.00    +0.000 A 
ATOM     14  C   UNL     1       8.260   7.773  18.288  0.00  0.00    +0.000 A 
ATOM     15  C   UNL     1       8.257   6.666  19.137  0.00  0.00    +0.000 A 
ATOM     16  C   UNL     1       7.304   5.648  18.983  0.00  0.00    +0.000 A 
ATOM     17  C   UNL     1       6.373   5.741  17.931  0.00  0.00    +0.000 A 
ATOM     18  H   UNL     1       5.111   7.297  15.465  0.00  0.00    +0.000 HD
ENDBRANCH   2   9
BRANCH   7  19
ATOM     19  C   UNL     1       1.536   7.007  20.064  0.00  0.00    +0.000 A 
ATOM     20  N   UNL     1       1.522   8.113  19.349  0.00  0.00    +0.000 NA
ATOM     21  C   UNL     1       1.132   9.103  20.213  0.00  0.00    +0.000 A 
ATOM     22  C   UNL     1       0.973  10.476  19.983  0.00  0.00    +0.000 A 
ATOM     23  C   UNL     1       0.584  11.293  21.051  0.00  0.00    +0.000 A 
ATOM     24  C   UNL     1       0.345  10.750  22.318  0.00  0.00    +0.000 A 
ATOM     25  C   UNL     1       0.484   9.378  22.561  0.00  0.00    +0.000 A 
ATOM     26  C   UNL     1       0.884   8.589  21.480  0.00  0.00    +0.000 A 
ATOM     27  N   UNL     1       1.133   7.247  21.354  0.00  0.00    +0.000 N 
ATOM     28  H   UNL     1       1.043   6.555  22.084  0.00  0.00    +0.000 HD
ENDBRANCH   7  19
TORSDOF 2
ENDMDL
MODEL 6
REMARK VINA RESULT:      -7.4      3.751      8.092
REMARK  Name = 
REMARK  2 active torsions:
REMARK  status: ('A' for Active; 'I' for Inactive)
REMARK    1  A    between atoms: C_2  and  C_3
REMARK    2  A    between atoms: C_16  and  C_17
REMARK                            x       y       z     vdW  Elec       q    Type
REMARK                         _______ _______ _______ _____ _____    ______ ____
ROOT
ATOM      1  O   UNL     1      -0.047  13.722  21.302  0.00  0.00    +0.000 OA
ATOM      2  C   UNL     1       0.445  12.758  20.724  0.00  0.00    +0.000 C 
ATOM      3  N   UNL     1       0.035  11.444  21.003  0.00  0.00    +0.000 N 
ATOM      4  C   UNL     1      -0.951  11.177  22.042  0.00  0.00    +0.000 C 
ATOM      5  C   UNL     1      -0.421  10.143  23.043  0.00  0.00    +0.000 C 
ATOM      6  C   UNL     1       0.152   8.897  22.355  0.00  0.00    +0.000 C 
ATOM      7  C   UNL     1       1.143   9.278  21.243  0.00  0.00    +0.000 C 
ATOM      8  C   UNL     1       0.451  10.240  20.275  0.00  0.00    +0.000 C 
ENDROOT
BRANCH   2   9
ATOM      9  C   UNL     1       1.454  12.954  19.660  0.00  0.00    +0.000 A 
ATOM     10  N   UNL     1       1.294  12.498  18.396  0.00  0.00    +0.000 NA
ATOM     11  N   UNL     1       2.270  13.112  17.710  0.00  0.00    +0.000 N 
ATOM     12  C   UNL     1       3.178  13.767  18.489  0.00  0.00    +0.000 A 
ATOM     13  C   UNL     1       4.342  14.465  18.161  0.00  0.00    +0.000 A 
ATOM     14  C   UNL     1       5.068  15.017  19.218  0.00  0.00    +0.000 A 
ATOM     15  C   UNL     1       4.630  14.896  20.538  0.00  0.00    +0.000 A 
ATOM     16  C   UNL     1       3.435  14.228  20.838  0.00  0.00    +0.000 A 
ATOM     17  C   UNL     1       2.700  13.643  19.789  0.00  0.00    +0.000 A 
ATOM     18  H   UNL     1       2.259  13.047  16.698  0.00  0.00    +0.000 HD
ENDBRANCH   2   9
BRANCH   7  19
ATOM     19  C   UNL     1       1.626   8.075  20.503  0.00  0.00    +0.000 A 
ATOM     20  N   UNL     1       2.124   8.054  19.285  0.00  0.00    +0.000 NA
ATOM     21  C   UNL     1       2.435   6.742  19.038  0.00  0.00    +0.000 A 
ATOM     22  C   UNL     1       2.973   6.153  17.885  0.00  0.00    +0.000 A 
ATOM     23  C   UNL     1       3.177   4.769  17.873  0.00  0.00    +0.000 A 
ATOM     24  C   UNL     1       2.864   3.990  18.991  0.00  0.00    +0.000 A 
ATOM     25  C   UNL     1       2.341   4.563  20.156  0.00  0.00    +0.000 A 
ATOM     26  C   UNL     1       2.137   5.944  20.136  0.00  0.00    +0.000 A 
ATOM     27  N   UNL     1       1.639   6.822  21.064  0.00  0.00    +0.000 N 
ATOM     28  H   UNL     1       1.326   6.587  21.995  0.00  0.00    +0.000 HD
ENDBRANCH   7  19
TORSDOF 2
ENDMDL
MODEL 7
REMARK VINA RESULT:      -7.3      3.373      6.151
REMARK  Name = 
REMARK  2 active torsions:
REMARK  status: ('A' for Active; 'I' for Inactive)
REMARK    1  A    between atoms: C_2  and  C_3
REMARK    2  A    between atoms: C_16  and  C_17
REMARK                            x       y       z     vdW  Elec       q    Type
REMARK                         _______ _______ _______ _____ _____    ______ ____
ROOT
ATOM      1  O   UNL     1       2.981   3.539  17.081  0.00  0.00    +0.000 OA
ATOM      2  C   UNL     1       3.524   4.582  17.434  0.00  0.00    +0.000 C 
ATOM      3  N   UNL     1       4.635   5.103  16.751  0.00  0.00    +0.000 N 
ATOM      4  C   UNL     1       5.224   4.382  15.630  0.00  0.00    +0.000 C 
ATOM      5  C   UNL     1       6.729   4.178  15.843  0.00  0.00    +0.000 C 
ATOM      6  C   UNL     1       7.450   5.475  16.233  0.00  0.00    +0.000 C 
ATOM      7  C   UNL     1       6.730   6.190  17.389  0.00  0.00    +0.000 C 
ATOM      8  C   UNL     1       5.266   6.404  17.000  0.00  0.00    +0.000 C 
ENDROOT
BRANCH   2   9
ATOM      9  C   UNL     1       2.982   5.365  18.567  0.00  0.00    +0.000 A 
ATOM     10  N   UNL     1       2.994   4.922  19.845  0.00  0.00    +0.000 NA
ATOM     11  N   UNL     1       2.681   6.012  20.562  0.00  0.00    +0.000 N 
ATOM     12  C   UNL     1       2.259   7.073  19.817  0.00  0.00    +0.000 A 
ATOM     13  C   UNL     1       1.803   8.340  20.189  0.00  0.00    +0.000 A 
ATOM     14  C   UNL     1       1.427   9.205  19.160  0.00  0.00    +0.000 A 
ATOM     15  C   UNL     1       1.533   8.826  17.821  0.00  0.00    +0.000 A 
ATOM     16  C   UNL     1       2.036   7.565  17.471  0.00  0.00    +0.000 A 
ATOM     17  C   UNL     1       2.397   6.668  18.494  0.00  0.00    +0.000 A 
ATOM     18  H   UNL     1       2.779   5.967  21.570  0.00  0.00    +0.000 HD
ENDBRANCH   2   9
BRANCH   7  19
ATOM     19  C   UNL     1       7.368   7.502  17.704  0.00  0.00    +0.000 A 
ATOM     20  N   UNL     1       7.132   8.650  17.105  0.00  0.00    +0.000 NA
ATOM     21  C   UNL     1       7.935   9.565  17.735  0.00  0.00    +0.000 A 
ATOM     22  C   UNL     1       8.097  10.934  17.482  0.00  0.00    +0.000 A 
ATOM     23  C   UNL     1       9.010  11.655  18.261  0.00  0.00    +0.000 A 
ATOM     24  C   UNL     1       9.736  11.027  19.278  0.00  0.00    +0.000 A 
ATOM     25  C   UNL     1       9.575   9.664  19.554  0.00  0.00    +0.000 A 
ATOM     26  C   UNL     1       8.666   8.968  18.755  0.00  0.00    +0.000 A 
ATOM     27  N   UNL     1       8.272   7.655  18.726  0.00  0.00    +0.000 N 
ATOM     28  H   UNL     1       8.598   6.923  19.342  0.00  0.00    +0.000 HD
ENDBRANCH   7  19
TORSDOF 2
ENDMDL
MODEL 8
REMARK VINA RESULT:      -7.3      2.058      2.930
REMARK  Name = 
REMARK  2 active torsions:
REMARK  status: ('A' for Active; 'I' for Inactive)
REMARK    1  A    between atoms: C_2  and  C_3
REMARK    2  A    between atoms: C_16  and  C_17
REMARK                            x       y       z     vdW  Elec       q    Type
REMARK                         _______ _______ _______ _____ _____    ______ ____
ROOT
ATOM      1  O   UNL     1       5.413   2.728  16.248  0.00  0.00    +0.000 OA
ATOM      2  C   UNL     1       5.089   3.765  16.818  0.00  0.00    +0.000 C 
ATOM      3  N   UNL     1       4.091   3.782  17.807  0.00  0.00    +0.000 N 
ATOM      4  C   UNL     1       3.356   2.569  18.143  0.00  0.00    +0.000 C 
ATOM      5  C   UNL     1       1.844   2.805  18.048  0.00  0.00    +0.000 C 
ATOM      6  C   UNL     1       1.396   4.066  18.799  0.00  0.00    +0.000 C 
ATOM      7  C   UNL     1       2.258   5.280  18.418  0.00  0.00    +0.000 C 
ATOM      8  C   UNL     1       3.730   4.931  18.646  0.00  0.00    +0.000 C 
ENDROOT
BRANCH   2   9
ATOM      9  C   UNL     1       5.790   5.035  16.525  0.00  0.00    +0.000 A 
ATOM     10  N   UNL     1       5.610   5.732  15.380  0.00  0.00    +0.000 NA
ATOM     11  N   UNL     1       6.192   6.914  15.632  0.00  0.00    +0.000 N 
ATOM     12  C   UNL     1       6.921   6.948  16.785  0.00  0.00    +0.000 A 
ATOM     13  C   UNL     1       7.701   7.956  17.355  0.00  0.00    +0.000 A 
ATOM     14  C   UNL     1       8.339   7.658  18.560  0.00  0.00    +0.000 A 
ATOM     15  C   UNL     1       8.177   6.416  19.177  0.00  0.00    +0.000 A 
ATOM     16  C   UNL     1       7.353   5.435  18.607  0.00  0.00    +0.000 A 
ATOM     17  C   UNL     1       6.720   5.707  17.379  0.00  0.00    +0.000 A 
ATOM     18  H   UNL     1       6.052   7.669  14.970  0.00  0.00    +0.000 HD
ENDBRANCH   2   9
BRANCH   7  19
ATOM     19  C   UNL     1       1.894   6.485  19.221  0.00  0.00    +0.000 A 
ATOM     20  N   UNL     1       1.629   6.515  20.510  0.00  0.00    +0.000 NA
ATOM     21  C   UNL     1       1.360   7.828  20.799  0.00  0.00    +0.000 A 
ATOM     22  C   UNL     1       0.996   8.417  22.017  0.00  0.00    +0.000 A 
ATOM     23  C   UNL     1       0.748   9.794  22.047  0.00  0.00    +0.000 A 
ATOM     24  C   UNL     1       0.873  10.569  20.890  0.00  0.00    +0.000 A 
ATOM     25  C   UNL     1       1.250   9.999  19.668  0.00  0.00    +0.000 A 
ATOM     26  C   UNL     1       1.481   8.622  19.665  0.00  0.00    +0.000 A 
ATOM     27  N   UNL     1       1.839   7.744  18.675  0.00  0.00    +0.000 N 
ATOM     28  H   UNL     1       2.023   7.979  17.710  0.00  0.00    +0.000 HD
ENDBRANCH   7  19
TORSDOF 2
ENDMDL
MODEL 9
REMARK VINA RESULT:      -7.3      3.359      6.203
REMARK  Name = 
REMARK  2 active torsions:
REMARK  status: ('A' for Active; 'I' for Inactive)
REMARK    1  A    between atoms: C_2  and  C_3
REMARK    2  A    between atoms: C_16  and  C_17
REMARK                            x       y       z     vdW  Elec       q    Type
REMARK                         _______ _______ _______ _____ _____    ______ ____
ROOT
ATOM      1  O   UNL     1       2.938   3.581  17.052  0.00  0.00    +0.000 OA
ATOM      2  C   UNL     1       3.501   4.603  17.431  0.00  0.00    +0.000 C 
ATOM      3  N   UNL     1       4.630   5.113  16.769  0.00  0.00    +0.000 N 
ATOM      4  C   UNL     1       5.213   4.401  15.639  0.00  0.00    +0.000 C 
ATOM      5  C   UNL     1       6.710   4.158  15.862  0.00  0.00    +0.000 C 
ATOM      6  C   UNL     1       7.457   5.431  16.285  0.00  0.00    +0.000 C 
ATOM      7  C   UNL     1       6.742   6.139  17.448  0.00  0.00    +0.000 C 
ATOM      8  C   UNL     1       5.287   6.394  17.050  0.00  0.00    +0.000 C 
ENDROOT
BRANCH   2   9
ATOM      9  C   UNL     1       2.965   5.376  18.574  0.00  0.00    +0.000 A 
ATOM     10  N   UNL     1       2.977   4.917  19.847  0.00  0.00    +0.000 NA
ATOM     11  N   UNL     1       2.672   6.000  20.578  0.00  0.00    +0.000 N 
ATOM     12  C   UNL     1       2.255   7.073  19.846  0.00  0.00    +0.000 A 
ATOM     13  C   UNL     1       1.808   8.338  20.235  0.00  0.00    +0.000 A 
ATOM     14  C   UNL     1       1.436   9.218  19.217  0.00  0.00    +0.000 A 
ATOM     15  C   UNL     1       1.537   8.855  17.874  0.00  0.00    +0.000 A 
ATOM     16  C   UNL     1       2.031   7.595  17.507  0.00  0.00    +0.000 A 
ATOM     17  C   UNL     1       2.388   6.683  18.519  0.00  0.00    +0.000 A 
ATOM     18  H   UNL     1       2.771   5.943  21.585  0.00  0.00    +0.000 HD
ENDBRANCH   2   9
BRANCH   7  19
ATOM     19  C   UNL     1       7.406   7.429  17.795  0.00  0.00    +0.000 A 
ATOM     20  N   UNL     1       8.322   7.613  18.723  0.00  0.00    +0.000 NA
ATOM     21  C   UNL     1       8.637   8.946  18.669  0.00  0.00    +0.000 A 
ATOM     22  C   UNL     1       9.537   9.682  19.452  0.00  0.00    +0.000 A 
ATOM     23  C   UNL     1       9.662  11.056  19.214  0.00  0.00    +0.000 A 
ATOM     24  C   UNL     1       8.915  11.679  18.210  0.00  0.00    +0.000 A 
ATOM     25  C   UNL     1       8.023  10.956  17.409  0.00  0.00    +0.000 A 
ATOM     26  C   UNL     1       7.911   9.590  17.675  0.00  0.00    +0.000 A 
ATOM     27  N   UNL     1       7.146   8.597  17.120  0.00  0.00    +0.000 N 
ATOM     28  H   UNL     1       6.496   8.705  16.355  0.00  0.00    +0.000 HD
ENDBRANCH   7  19
TORSDOF 2
ENDMDL
