MODEL 1
REMARK VINA RESULT:      -8.6      0.000      0.000
REMARK  Name = 
REMARK  4 active torsions:
REMARK  status: ('A' for Active; 'I' for Inactive)
REMARK    1  A    between atoms: C_1  and  N_2
REMARK    2  A    between atoms: C_5  and  C_6
REMARK    3  A    between atoms: C_13  and  N_14
REMARK    4  A    between atoms: C_15  and  C_17
REMARK                            x       y       z     vdW  Elec       q    Type
REMARK                         _______ _______ _______ _____ _____    ______ ____
ROOT
ATOM      1  N   UNL     1       2.085   5.427  18.287  0.00  0.00    +0.000 N 
ATOM      2  C   UNL     1       2.348   6.318  19.377  0.00  0.00    +0.000 C 
ATOM      3  O   UNL     1       3.021   5.953  20.329  0.00  0.00    +0.000 OA
ATOM      4  H   UNL     1       1.789   5.805  17.392  0.00  0.00    +0.000 HD
ENDROOT
BRANCH   2   5
ATOM      5  C   UNL     1       1.908   7.723  19.239  0.00  0.00    +0.000 A 
ATOM      6  C   UNL     1       1.743   8.369  18.001  0.00  0.00    +0.000 A 
ATOM      7  C   UNL     1       1.286   9.692  17.935  0.00  0.00    +0.000 A 
ATOM      8  C   UNL     1       0.991  10.416  19.098  0.00  0.00    +0.000 A 
ATOM      9  C   UNL     1       1.167   9.789  20.338  0.00  0.00    +0.000 A 
ATOM     10  N   UNL     1       0.972  10.251  21.609  0.00  0.00    +0.000 NA
ATOM     11  N   UNL     1       1.277   9.275  22.454  0.00  0.00    +0.000 NA
ATOM     12  N   UNL     1       1.644   8.209  21.728  0.00  0.00    +0.000 N 
ATOM     13  C   UNL     1       1.608   8.475  20.383  0.00  0.00    +0.000 A 
ATOM     14  H   UNL     1       1.901   7.353  22.210  0.00  0.00    +0.000 HD
ENDBRANCH   2   5
BRANCH   1  20
ATOM     15  C   UNL     1       0.628   2.673  18.802  0.00  0.00    +0.000 C 
ATOM     16  N   UNL     1       2.016   2.931  18.520  0.00  0.00    +0.000 N 
ATOM     17  C   UNL     1       2.938   1.950  18.277  0.00  0.00    +0.000 A 
ATOM     18  N   UNL     1       4.094   2.449  17.909  0.00  0.00    +0.000 NA
ATOM     19  C   UNL     1       3.926   3.815  17.921  0.00  0.00    +0.000 A 
ATOM     20  C   UNL     1       2.624   4.143  18.266  0.00  0.00    +0.000 A 
BRANCH  19  21
ATOM     21  C   UNL     1       5.034   4.715  17.649  0.00  0.00    +0.000 A 
ATOM     22  C   UNL     1       5.974   4.960  18.663  0.00  0.00    +0.000 A 
ATOM     23  C   UNL     1       7.025   5.855  18.459  0.00  0.00    +0.000 A 
ATOM     24  C   UNL     1       7.137   6.513  17.241  0.00  0.00    +0.000 A 
ATOM     25  F   UNL     1       8.140   7.375  17.044  0.00  0.00    +0.000 F 
ATOM     26  C   UNL     1       6.209   6.301  16.229  0.00  0.00    +0.000 A 
ATOM     27  C   UNL     1       5.152   5.411  16.435  0.00  0.00    +0.000 A 
ENDBRANCH  19  21
ENDBRANCH   1  20
TORSDOF 3
ENDMDL
MODEL 2
REMARK VINA RESULT:      -8.5      1.885      2.432
REMARK  Name = 
REMARK  4 active torsions:
REMARK  status: ('A' for Active; 'I' for Inactive)
REMARK    1  A    between atoms: C_1  and  N_2
REMARK    2  A    between atoms: C_5  and  C_6
REMARK    3  A    between atoms: C_13  and  N_14
REMARK    4  A    between atoms: C_15  and  C_17
REMARK                            x       y       z     vdW  Elec       q    Type
REMARK                         _______ _______ _______ _____ _____    ______ ____
ROOT
ATOM      1  N   UNL     1       3.117   5.769  20.412  0.00  0.00    +0.000 N 
ATOM      2  C   UNL     1       2.332   6.528  19.485  0.00  0.00    +0.000 C 
ATOM      3  O   UNL     1       2.135   6.114  18.353  0.00  0.00    +0.000 OA
ATOM      4  H   UNL     1       3.039   5.959  21.406  0.00  0.00    +0.000 HD
ENDROOT
BRANCH   2   5
ATOM      5  C   UNL     1       1.654   7.741  19.990  0.00  0.00    +0.000 A 
ATOM      6  C   UNL     1       1.027   7.818  21.245  0.00  0.00    +0.000 A 
ATOM      7  C   UNL     1       0.434   9.010  21.682  0.00  0.00    +0.000 A 
ATOM      8  C   UNL     1       0.437  10.158  20.879  0.00  0.00    +0.000 A 
ATOM      9  C   UNL     1       1.045  10.091  19.619  0.00  0.00    +0.000 A 
ATOM     10  N   UNL     1       1.183  11.034  18.641  0.00  0.00    +0.000 NA
ATOM     11  N   UNL     1       1.839  10.485  17.627  0.00  0.00    +0.000 NA
ATOM     12  N   UNL     1       2.125   9.220  17.966  0.00  0.00    +0.000 N 
ATOM     13  C   UNL     1       1.638   8.905  19.208  0.00  0.00    +0.000 A 
ATOM     14  H   UNL     1       2.643   8.643  17.311  0.00  0.00    +0.000 HD
ENDBRANCH   2   5
BRANCH   1  20
ATOM     15  C   UNL     1       1.956   2.902  21.046  0.00  0.00    +0.000 C 
ATOM     16  N   UNL     1       3.165   3.262  20.353  0.00  0.00    +0.000 N 
ATOM     17  C   UNL     1       3.966   2.364  19.702  0.00  0.00    +0.000 A 
ATOM     18  N   UNL     1       4.924   2.961  19.035  0.00  0.00    +0.000 NA
ATOM     19  C   UNL     1       4.751   4.306  19.266  0.00  0.00    +0.000 A 
ATOM     20  C   UNL     1       3.636   4.525  20.060  0.00  0.00    +0.000 A 
BRANCH  19  21
ATOM     21  C   UNL     1       5.692   5.289  18.752  0.00  0.00    +0.000 A 
ATOM     22  C   UNL     1       5.357   6.006  17.592  0.00  0.00    +0.000 A 
ATOM     23  C   UNL     1       6.253   6.923  17.040  0.00  0.00    +0.000 A 
ATOM     24  C   UNL     1       7.488   7.122  17.642  0.00  0.00    +0.000 A 
ATOM     25  F   UNL     1       8.350   7.997  17.112  0.00  0.00    +0.000 F 
ATOM     26  C   UNL     1       7.848   6.411  18.780  0.00  0.00    +0.000 A 
ATOM     27  C   UNL     1       6.957   5.487  19.330  0.00  0.00    +0.000 A 
ENDBRANCH  19  21
ENDBRANCH   1  20
TORSDOF 3
ENDMDL
MODEL 3
REMARK VINA RESULT:      -8.3      1.613      1.894
REMARK  Name = 
REMARK  4 active torsions:
REMARK  status: ('A' for Active; 'I' for Inactive)
REMARK    1  A    between atoms: C_1  and  N_2
REMARK    2  A    between atoms: C_5  and  C_6
REMARK    3  A    between atoms: C_13  and  N_14
REMARK    4  A    between atoms: C_15  and  C_17
REMARK                            x       y       z     vdW  Elec       q    Type
REMARK                         _______ _______ _______ _____ _____    ______ ____
ROOT
ATOM      1  N   UNL     1       3.418   5.806  19.609  0.00  0.00    +0.000 N 
ATOM      2  C   UNL     1       2.439   6.314  18.696  0.00  0.00    +0.000 C 
ATOM      3  O   UNL     1       1.816   5.557  17.968  0.00  0.00    +0.000 OA
ATOM      4  H   UNL     1       3.713   6.376  20.395  0.00  0.00    +0.000 HD
ENDROOT
BRANCH   2   5
ATOM      5  C   UNL     1       2.107   7.753  18.775  0.00  0.00    +0.000 A 
ATOM      6  C   UNL     1       2.215   8.638  17.688  0.00  0.00    +0.000 A 
ATOM      7  C   UNL     1       1.848   9.984  17.817  0.00  0.00    +0.000 A 
ATOM      8  C   UNL     1       1.376  10.494  19.034  0.00  0.00    +0.000 A 
ATOM      9  C   UNL     1       1.279   9.626  20.129  0.00  0.00    +0.000 A 
ATOM     10  N   UNL     1       0.871   9.849  21.413  0.00  0.00    +0.000 NA
ATOM     11  N   UNL     1       0.958   8.706  22.079  0.00  0.00    +0.000 NA
ATOM     12  N   UNL     1       1.400   7.772  21.225  0.00  0.00    +0.000 N 
ATOM     13  C   UNL     1       1.634   8.293  19.979  0.00  0.00    +0.000 A 
ATOM     14  H   UNL     1       1.516   6.819  21.558  0.00  0.00    +0.000 HD
ENDBRANCH   2   5
BRANCH   1  20
ATOM     15  C   UNL     1       2.208   3.762  21.690  0.00  0.00    +0.000 C 
ATOM     16  N   UNL     1       3.162   3.531  20.637  0.00  0.00    +0.000 N 
ATOM     17  C   UNL     1       3.604   2.291  20.267  0.00  0.00    +0.000 A 
ATOM     18  N   UNL     1       4.356   2.342  19.194  0.00  0.00    +0.000 NA
ATOM     19  C   UNL     1       4.419   3.673  18.851  0.00  0.00    +0.000 A 
ATOM     20  C   UNL     1       3.652   4.437  19.718  0.00  0.00    +0.000 A 
BRANCH  19  21
ATOM     21  C   UNL     1       5.248   4.131  17.749  0.00  0.00    +0.000 A 
ATOM     22  C   UNL     1       4.736   4.065  16.443  0.00  0.00    +0.000 A 
ATOM     23  C   UNL     1       5.517   4.450  15.352  0.00  0.00    +0.000 A 
ATOM     24  C   UNL     1       6.814   4.897  15.563  0.00  0.00    +0.000 A 
ATOM     25  F   UNL     1       7.567   5.263  14.519  0.00  0.00    +0.000 F 
ATOM     26  C   UNL     1       7.349   4.954  16.844  0.00  0.00    +0.000 A 
ATOM     27  C   UNL     1       6.572   4.562  17.936  0.00  0.00    +0.000 A 
ENDBRANCH  19  21
ENDBRANCH   1  20
TORSDOF 3
ENDMDL
MODEL 4
REMARK VINA RESULT:      -8.2      0.677      1.160
REMARK  Name = 
REMARK  4 active torsions:
REMARK  status: ('A' for Active; 'I' for Inactive)
REMARK    1  A    between atoms: C_1  and  N_2
REMARK    2  A    between atoms: C_5  and  C_6
REMARK    3  A    between atoms: C_13  and  N_14
REMARK    4  A    between atoms: C_15  and  C_17
REMARK                            x       y       z     vdW  Elec       q    Type
REMARK                         _______ _______ _______ _____ _____    ______ ____
ROOT
ATOM      1  N   UNL     1       2.404   5.810  18.344  0.00  0.00    +0.000 N 
ATOM      2  C   UNL     1       2.265   6.588  19.538  0.00  0.00    +0.000 C 
ATOM      3  O   UNL     1       2.633   6.147  20.615  0.00  0.00    +0.000 OA
ATOM      4  H   UNL     1       2.376   6.270  17.440  0.00  0.00    +0.000 HD
ENDROOT
BRANCH   2   5
ATOM      5  C   UNL     1       1.804   7.987  19.396  0.00  0.00    +0.000 A 
ATOM      6  C   UNL     1       1.658   8.637  18.159  0.00  0.00    +0.000 A 
ATOM      7  C   UNL     1       1.179   9.953  18.089  0.00  0.00    +0.000 A 
ATOM      8  C   UNL     1       0.843  10.665  19.249  0.00  0.00    +0.000 A 
ATOM      9  C   UNL     1       0.999  10.033  20.489  0.00  0.00    +0.000 A 
ATOM     10  N   UNL     1       0.766  10.483  21.757  0.00  0.00    +0.000 NA
ATOM     11  N   UNL     1       1.067   9.508  22.604  0.00  0.00    +0.000 NA
ATOM     12  N   UNL     1       1.470   8.453  21.881  0.00  0.00    +0.000 N 
ATOM     13  C   UNL     1       1.462   8.726  20.538  0.00  0.00    +0.000 A 
ATOM     14  H   UNL     1       1.730   7.599  22.364  0.00  0.00    +0.000 HD
ENDBRANCH   2   5
BRANCH   1  20
ATOM     15  C   UNL     1       1.016   2.977  18.491  0.00  0.00    +0.000 C 
ATOM     16  N   UNL     1       2.418   3.305  18.474  0.00  0.00    +0.000 N 
ATOM     17  C   UNL     1       3.416   2.375  18.368  0.00  0.00    +0.000 A 
ATOM     18  N   UNL     1       4.593   2.938  18.232  0.00  0.00    +0.000 NA
ATOM     19  C   UNL     1       4.359   4.293  18.261  0.00  0.00    +0.000 A 
ATOM     20  C   UNL     1       3.001   4.551  18.377  0.00  0.00    +0.000 A 
BRANCH  19  21
ATOM     21  C   UNL     1       5.452   5.251  18.225  0.00  0.00    +0.000 A 
ATOM     22  C   UNL     1       5.430   6.269  17.259  0.00  0.00    +0.000 A 
ATOM     23  C   UNL     1       6.484   7.179  17.159  0.00  0.00    +0.000 A 
ATOM     24  C   UNL     1       7.566   7.070  18.022  0.00  0.00    +0.000 A 
ATOM     25  F   UNL     1       8.579   7.938  17.927  0.00  0.00    +0.000 F 
ATOM     26  C   UNL     1       7.619   6.059  18.974  0.00  0.00    +0.000 A 
ATOM     27  C   UNL     1       6.569   5.143  19.070  0.00  0.00    +0.000 A 
ENDBRANCH  19  21
ENDBRANCH   1  20
TORSDOF 3
ENDMDL
MODEL 5
REMARK VINA RESULT:      -8.0      0.946      1.389
REMARK  Name = 
REMARK  4 active torsions:
REMARK  status: ('A' for Active; 'I' for Inactive)
REMARK    1  A    between atoms: C_1  and  N_2
REMARK    2  A    between atoms: C_5  and  C_6
REMARK    3  A    between atoms: C_13  and  N_14
REMARK    4  A    between atoms: C_15  and  C_17
REMARK                            x       y       z     vdW  Elec       q    Type
REMARK                         _______ _______ _______ _____ _____    ______ ____
ROOT
ATOM      1  N   UNL     1       2.224   5.259  18.431  0.00  0.00    +0.000 N 
ATOM      2  C   UNL     1       2.273   6.162  19.541  0.00  0.00    +0.000 C 
ATOM      3  O   UNL     1       2.634   5.775  20.641  0.00  0.00    +0.000 OA
ATOM      4  H   UNL     1       2.210   5.628  17.485  0.00  0.00    +0.000 HD
ENDROOT
BRANCH   2   5
ATOM      5  C   UNL     1       2.016   7.594  19.274  0.00  0.00    +0.000 A 
ATOM      6  C   UNL     1       2.088   8.173  17.996  0.00  0.00    +0.000 A 
ATOM      7  C   UNL     1       1.796   9.530  17.802  0.00  0.00    +0.000 A 
ATOM      8  C   UNL     1       1.436  10.355  18.877  0.00  0.00    +0.000 A 
ATOM      9  C   UNL     1       1.377   9.793  20.159  0.00  0.00    +0.000 A 
ATOM     10  N   UNL     1       1.072  10.353  21.367  0.00  0.00    +0.000 NA
ATOM     11  N   UNL     1       1.151   9.407  22.293  0.00  0.00    +0.000 NA
ATOM     12  N   UNL     1       1.486   8.264  21.677  0.00  0.00    +0.000 N 
ATOM     13  C   UNL     1       1.656   8.445  20.329  0.00  0.00    +0.000 A 
ATOM     14  H   UNL     1       1.580   7.418  22.231  0.00  0.00    +0.000 HD
ENDBRANCH   2   5
BRANCH   1  20
ATOM     15  C   UNL     1       0.758   2.901  19.935  0.00  0.00    +0.000 C 
ATOM     16  N   UNL     1       2.023   2.896  19.247  0.00  0.00    +0.000 N 
ATOM     17  C   UNL     1       2.754   1.765  19.006  0.00  0.00    +0.000 A 
ATOM     18  N   UNL     1       3.791   2.010  18.242  0.00  0.00    +0.000 NA
ATOM     19  C   UNL     1       3.746   3.359  17.979  0.00  0.00    +0.000 A 
ATOM     20  C   UNL     1       2.629   3.933  18.569  0.00  0.00    +0.000 A 
BRANCH  19  21
ATOM     21  C   UNL     1       4.798   4.019  17.225  0.00  0.00    +0.000 A 
ATOM     22  C   UNL     1       4.658   4.145  15.833  0.00  0.00    +0.000 A 
ATOM     23  C   UNL     1       5.668   4.728  15.066  0.00  0.00    +0.000 A 
ATOM     24  C   UNL     1       6.823   5.184  15.688  0.00  0.00    +0.000 A 
ATOM     25  F   UNL     1       7.794   5.740  14.955  0.00  0.00    +0.000 F 
ATOM     26  C   UNL     1       6.992   5.054  17.061  0.00  0.00    +0.000 A 
ATOM     27  C   UNL     1       5.986   4.463  17.829  0.00  0.00    +0.000 A 
ENDBRANCH  19  21
ENDBRANCH   1  20
TORSDOF 3
ENDMDL
MODEL 6
REMARK VINA RESULT:      -7.9      1.492      2.125
REMARK  Name = 
REMARK  4 active torsions:
REMARK  status: ('A' for Active; 'I' for Inactive)
REMARK    1  A    between atoms: C_1  and  N_2
REMARK    2  A    between atoms: C_5  and  C_6
REMARK    3  A    between atoms: C_13  and  N_14
REMARK    4  A    between atoms: C_15  and  C_17
REMARK                            x       y       z     vdW  Elec       q    Type
REMARK                         _______ _______ _______ _____ _____    ______ ____
ROOT
ATOM      1  N   UNL     1       2.015   5.286  18.749  0.00  0.00    +0.000 N 
ATOM      2  C   UNL     1       2.092   5.842  20.066  0.00  0.00    +0.000 C 
ATOM      3  O   UNL     1       2.651   5.235  20.966  0.00  0.00    +0.000 OA
ATOM      4  H   UNL     1       1.821   5.893  17.959  0.00  0.00    +0.000 HD
ENDROOT
BRANCH   2   5
ATOM      5  C   UNL     1       1.610   7.228  20.256  0.00  0.00    +0.000 A 
ATOM      6  C   UNL     1       0.983   7.680  21.430  0.00  0.00    +0.000 A 
ATOM      7  C   UNL     1       0.582   9.016  21.563  0.00  0.00    +0.000 A 
ATOM      8  C   UNL     1       0.781   9.940  20.528  0.00  0.00    +0.000 A 
ATOM      9  C   UNL     1       1.390   9.498  19.346  0.00  0.00    +0.000 A 
ATOM     10  N   UNL     1       1.692  10.164  18.193  0.00  0.00    +0.000 NA
ATOM     11  N   UNL     1       2.267   9.307  17.360  0.00  0.00    +0.000 NA
ATOM     12  N   UNL     1       2.342   8.123  17.983  0.00  0.00    +0.000 N 
ATOM     13  C   UNL     1       1.792   8.174  19.238  0.00  0.00    +0.000 A 
ATOM     14  H   UNL     1       2.772   7.340  17.499  0.00  0.00    +0.000 HD
ENDBRANCH   2   5
BRANCH   1  20
ATOM     15  C   UNL     1       0.720   2.406  18.790  0.00  0.00    +0.000 C 
ATOM     16  N   UNL     1       2.076   2.791  18.497  0.00  0.00    +0.000 N 
ATOM     17  C   UNL     1       3.027   1.928  18.024  0.00  0.00    +0.000 A 
ATOM     18  N   UNL     1       4.134   2.553  17.704  0.00  0.00    +0.000 NA
ATOM     19  C   UNL     1       3.905   3.880  17.988  0.00  0.00    +0.000 A 
ATOM     20  C   UNL     1       2.611   4.062  18.454  0.00  0.00    +0.000 A 
BRANCH  19  21
ATOM     21  C   UNL     1       4.952   4.877  17.843  0.00  0.00    +0.000 A 
ATOM     22  C   UNL     1       4.916   5.742  16.737  0.00  0.00    +0.000 A 
ATOM     23  C   UNL     1       5.929   6.680  16.535  0.00  0.00    +0.000 A 
ATOM     24  C   UNL     1       6.984   6.754  17.435  0.00  0.00    +0.000 A 
ATOM     25  F   UNL     1       7.958   7.650  17.241  0.00  0.00    +0.000 F 
ATOM     26  C   UNL     1       7.050   5.897  18.526  0.00  0.00    +0.000 A 
ATOM     27  C   UNL     1       6.042   4.951  18.726  0.00  0.00    +0.000 A 
ENDBRANCH  19  21
ENDBRANCH   1  20
TORSDOF 3
ENDMDL
MODEL 7
REMARK VINA RESULT:      -7.9      1.417      1.455
REMARK  Name = 
REMARK  4 active torsions:
REMARK  status: ('A' for Active; 'I' for Inactive)
REMARK    1  A    between atoms: C_1  and  N_2
REMARK    2  A    between atoms: C_5  and  C_6
REMARK    3  A    between atoms: C_13  and  N_14
REMARK    4  A    between atoms: C_15  and  C_17
REMARK                            x       y       z     vdW  Elec       q    Type
REMARK                         _______ _______ _______ _____ _____    ______ ____
ROOT
ATOM      1  N   UNL     1       2.917   6.444  20.026  0.00  0.00    +0.000 N 
ATOM      2  C   UNL     1       2.226   7.070  18.939  0.00  0.00    +0.000 C 
ATOM      3  O   UNL     1       2.044   6.472  17.890  0.00  0.00    +0.000 OA
ATOM      4  H   UNL     1       2.814   6.814  20.965  0.00  0.00    +0.000 HD
ENDROOT
BRANCH   2   5
ATOM      5  C   UNL     1       1.619   8.396  19.184  0.00  0.00    +0.000 A 
ATOM      6  C   UNL     1       1.188   9.257  18.161  0.00  0.00    +0.000 A 
ATOM      7  C   UNL     1       0.584  10.486  18.459  0.00  0.00    +0.000 A 
ATOM      8  C   UNL     1       0.403  10.901  19.785  0.00  0.00    +0.000 A 
ATOM      9  C   UNL     1       0.843  10.060  20.815  0.00  0.00    +0.000 A 
ATOM     10  N   UNL     1       0.806  10.212  22.172  0.00  0.00    +0.000 NA
ATOM     11  N   UNL     1       1.347   9.135  22.724  0.00  0.00    +0.000 NA
ATOM     12  N   UNL     1       1.707   8.308  21.732  0.00  0.00    +0.000 N 
ATOM     13  C   UNL     1       1.426   8.841  20.500  0.00  0.00    +0.000 A 
ATOM     14  H   UNL     1       2.130   7.415  21.967  0.00  0.00    +0.000 HD
ENDBRANCH   2   5
BRANCH   1  20
ATOM     15  C   UNL     1       1.504   3.815  21.058  0.00  0.00    +0.000 C 
ATOM     16  N   UNL     1       2.775   3.967  20.399  0.00  0.00    +0.000 N 
ATOM     17  C   UNL     1       3.540   2.918  19.968  0.00  0.00    +0.000 A 
ATOM     18  N   UNL     1       4.577   3.324  19.276  0.00  0.00    +0.000 NA
ATOM     19  C   UNL     1       4.496   4.698  19.261  0.00  0.00    +0.000 A 
ATOM     20  C   UNL     1       3.357   5.126  19.928  0.00  0.00    +0.000 A 
BRANCH  19  21
ATOM     21  C   UNL     1       5.536   5.511  18.653  0.00  0.00    +0.000 A 
ATOM     22  C   UNL     1       6.788   5.593  19.284  0.00  0.00    +0.000 A 
ATOM     23  C   UNL     1       7.797   6.402  18.759  0.00  0.00    +0.000 A 
ATOM     24  C   UNL     1       7.556   7.134  17.604  0.00  0.00    +0.000 A 
ATOM     25  F   UNL     1       8.521   7.913  17.101  0.00  0.00    +0.000 F 
ATOM     26  C   UNL     1       6.320   7.083  16.973  0.00  0.00    +0.000 A 
ATOM     27  C   UNL     1       5.306   6.281  17.501  0.00  0.00    +0.000 A 
ENDBRANCH  19  21
ENDBRANCH   1  20
TORSDOF 3
ENDMDL
MODEL 8
REMARK VINA RESULT:      -7.5      2.963      5.825
REMARK  Name = 
REMARK  4 active torsions:
REMARK  status: ('A' for Active; 'I' for Inactive)
REMARK    1  A    between atoms: C_1  and  N_2
REMARK    2  A    between atoms: C_5  and  C_6
REMARK    3  A    between atoms: C_13  and  N_14
REMARK    4  A    between atoms: C_15  and  C_17
REMARK                            x       y       z     vdW  Elec       q    Type
REMARK                         _______ _______ _______ _____ _____    ______ ____
ROOT
ATOM      1  N   UNL     1       4.367   4.379  18.919  0.00  0.00    +0.000 N 
ATOM      2  C   UNL     1       4.187   3.878  17.589  0.00  0.00    +0.000 C 
ATOM      3  O   UNL     1       3.162   3.292  17.280  0.00  0.00    +0.000 OA
ATOM      4  H   UNL     1       5.062   5.099  19.093  0.00  0.00    +0.000 HD
ENDROOT
BRANCH   2   5
ATOM      5  C   UNL     1       5.210   4.226  16.579  0.00  0.00    +0.000 A 
ATOM      6  C   UNL     1       5.345   3.564  15.347  0.00  0.00    +0.000 A 
ATOM      7  C   UNL     1       6.311   3.966  14.415  0.00  0.00    +0.000 A 
ATOM      8  C   UNL     1       7.181   5.031  14.686  0.00  0.00    +0.000 A 
ATOM      9  C   UNL     1       7.067   5.689  15.917  0.00  0.00    +0.000 A 
ATOM     10  N   UNL     1       7.776   6.732  16.443  0.00  0.00    +0.000 NA
ATOM     11  N   UNL     1       7.289   6.998  17.647  0.00  0.00    +0.000 NA
ATOM     12  N   UNL     1       6.278   6.147  17.873  0.00  0.00    +0.000 N 
ATOM     13  C   UNL     1       6.096   5.285  16.822  0.00  0.00    +0.000 A 
ATOM     14  H   UNL     1       5.769   6.212  18.749  0.00  0.00    +0.000 HD
ENDBRANCH   2   5
BRANCH   1  20
ATOM     15  C   UNL     1       3.769   1.929  20.819  0.00  0.00    +0.000 C 
ATOM     16  N   UNL     1       3.062   3.176  20.692  0.00  0.00    +0.000 N 
ATOM     17  C   UNL     1       2.052   3.568  21.527  0.00  0.00    +0.000 A 
ATOM     18  N   UNL     1       1.672   4.800  21.288  0.00  0.00    +0.000 NA
ATOM     19  C   UNL     1       2.460   5.232  20.245  0.00  0.00    +0.000 A 
ATOM     20  C   UNL     1       3.363   4.247  19.875  0.00  0.00    +0.000 A 
BRANCH  19  21
ATOM     21  C   UNL     1       2.263   6.539  19.641  0.00  0.00    +0.000 A 
ATOM     22  C   UNL     1       1.689   7.564  20.410  0.00  0.00    +0.000 A 
ATOM     23  C   UNL     1       1.439   8.818  19.852  0.00  0.00    +0.000 A 
ATOM     24  C   UNL     1       1.758   9.051  18.521  0.00  0.00    +0.000 A 
ATOM     25  F   UNL     1       1.515  10.252  17.983  0.00  0.00    +0.000 F 
ATOM     26  C   UNL     1       2.310   8.048  17.735  0.00  0.00    +0.000 A 
ATOM     27  C   UNL     1       2.553   6.789  18.289  0.00  0.00    +0.000 A 
ENDBRANCH  19  21
ENDBRANCH   1  20
TORSDOF 3
ENDMDL
MODEL 9
REMARK VINA RESULT:      -7.4      2.958      4.563
REMARK  Name = 
REMARK  4 active torsions:
REMARK  status: ('A' for Active; 'I' for Inactive)
REMARK    1  A    between atoms: C_1  and  N_2
REMARK    2  A    between atoms: C_5  and  C_6
REMARK    3  A    between atoms: C_13  and  N_14
REMARK    4  A    between atoms: C_15  and  C_17
REMARK                            x       y       z     vdW  Elec       q    Type
REMARK                         _______ _______ _______ _____ _____    ______ ____
ROOT
ATOM      1  N   UNL     1       3.361   6.787  18.895  0.00  0.00    +0.000 N 
ATOM      2  C   UNL     1       2.213   7.568  18.541  0.00  0.00    +0.000 C 
ATOM      3  O   UNL     1       1.625   7.368  17.490  0.00  0.00    +0.000 OA
ATOM      4  H   UNL     1       3.662   6.750  19.863  0.00  0.00    +0.000 HD
ENDROOT
BRANCH   2   5
ATOM      5  C   UNL     1       1.684   8.508  19.553  0.00  0.00    +0.000 A 
ATOM      6  C   UNL     1       1.419   8.151  20.886  0.00  0.00    +0.000 A 
ATOM      7  C   UNL     1       0.954   9.099  21.807  0.00  0.00    +0.000 A 
ATOM      8  C   UNL     1       0.727  10.428  21.427  0.00  0.00    +0.000 A 
ATOM      9  C   UNL     1       0.972  10.794  20.097  0.00  0.00    +0.000 A 
ATOM     10  N   UNL     1       0.829  11.993  19.459  0.00  0.00    +0.000 NA
ATOM     11  N   UNL     1       1.192  11.833  18.194  0.00  0.00    +0.000 NA
ATOM     12  N   UNL     1       1.573  10.557  18.039  0.00  0.00    +0.000 N 
ATOM     13  C   UNL     1       1.444   9.845  19.203  0.00  0.00    +0.000 A 
ATOM     14  H   UNL     1       1.901  10.251  17.128  0.00  0.00    +0.000 HD
ENDBRANCH   2   5
BRANCH   1  20
ATOM     15  C   UNL     1       5.039   6.989  16.227  0.00  0.00    +0.000 C 
ATOM     16  N   UNL     1       4.511   5.822  16.885  0.00  0.00    +0.000 N 
ATOM     17  C   UNL     1       4.797   4.539  16.506  0.00  0.00    +0.000 A 
ATOM     18  N   UNL     1       4.309   3.662  17.350  0.00  0.00    +0.000 NA
ATOM     19  C   UNL     1       3.666   4.400  18.318  0.00  0.00    +0.000 A 
ATOM     20  C   UNL     1       3.807   5.757  18.069  0.00  0.00    +0.000 A 
BRANCH  19  21
ATOM     21  C   UNL     1       2.920   3.758  19.387  0.00  0.00    +0.000 A 
ATOM     22  C   UNL     1       1.526   3.927  19.438  0.00  0.00    +0.000 A 
ATOM     23  C   UNL     1       0.779   3.368  20.476  0.00  0.00    +0.000 A 
ATOM     24  C   UNL     1       1.423   2.643  21.469  0.00  0.00    +0.000 A 
ATOM     25  F   UNL     1       0.710   2.109  22.467  0.00  0.00    +0.000 F 
ATOM     26  C   UNL     1       2.803   2.477  21.450  0.00  0.00    +0.000 A 
ATOM     27  C   UNL     1       3.553   3.043  20.417  0.00  0.00    +0.000 A 
ENDBRANCH  19  21
ENDBRANCH   1  20
TORSDOF 3
ENDMDL
