MODEL 1
REMARK VINA RESULT:      -8.9      0.000      0.000
REMARK  Name = 
REMARK  6 active torsions:
REMARK  status: ('A' for Active; 'I' for Inactive)
REMARK    1  A    between atoms: C_1  and  C_2
REMARK    2  A    between atoms: N_4  and  C_5
REMARK    3  A    between atoms: C_9  and  N_10
REMARK    4  A    between atoms: C_11  and  C_13
REMARK    5  A    between atoms: C_16  and  C_17
REMARK    6  A    between atoms: C_21  and  C_22
REMARK                            x       y       z     vdW  Elec       q    Type
REMARK                         _______ _______ _______ _____ _____    ______ ____
ROOT
ATOM      1  N   UNL     1       4.306   7.115  17.723  0.00  0.00    +0.000 N 
ATOM      2  C   UNL     1       3.093   6.833  18.341  0.00  0.00    +0.000 C 
ATOM      3  O   UNL     1       2.737   5.722  18.725  0.00  0.00    +0.000 OA
ATOM      4  H   UNL     1       4.491   8.097  17.558  0.00  0.00    +0.000 HD
ENDROOT
BRANCH   1   9
ATOM      5  C   UNL     1       6.287   4.590  15.821  0.00  0.00    +0.000 A 
ATOM      6  C   UNL     1       7.351   4.383  16.702  0.00  0.00    +0.000 A 
ATOM      7  C   UNL     1       7.389   5.025  17.934  0.00  0.00    +0.000 A 
ATOM      8  C   UNL     1       6.375   5.907  18.293  0.00  0.00    +0.000 A 
ATOM      9  C   UNL     1       5.327   6.185  17.412  0.00  0.00    +0.000 A 
ATOM     10  C   UNL     1       5.281   5.508  16.176  0.00  0.00    +0.000 A 
BRANCH   5  14
ATOM     11  C   UNL     1       6.452   3.473  12.211  0.00  0.00    +0.000 C 
ATOM     12  C   UNL     1       6.806   4.340  13.391  0.00  0.00    +0.000 C 
ATOM     13  O   UNL     1       7.558   5.299  13.242  0.00  0.00    +0.000 OA
ATOM     14  N   UNL     1       6.206   3.926  14.573  0.00  0.00    +0.000 N 
ATOM     15  H   UNL     1       5.732   3.032  14.561  0.00  0.00    +0.000 HD
ENDBRANCH   5  14
ENDBRANCH   1   9
BRANCH   2  16
ATOM     16  C   UNL     1       2.246   7.991  18.551  0.00  0.00    +0.000 A 
ATOM     17  C   UNL     1       1.860   8.972  17.659  0.00  0.00    +0.000 A 
ATOM     18  C   UNL     1       1.029   9.864  18.371  0.00  0.00    +0.000 A 
ATOM     19  C   UNL     1       0.949   9.387  19.665  0.00  0.00    +0.000 A 
ATOM     20  O   UNL     1       1.692   8.239  19.778  0.00  0.00    +0.000 OA
BRANCH  19  21
ATOM     21  C   UNL     1       0.262   9.845  20.871  0.00  0.00    +0.000 A 
ATOM     22  C   UNL     1       0.395   9.134  22.073  0.00  0.00    +0.000 A 
ATOM     23  C   UNL     1      -0.262   9.552  23.232  0.00  0.00    +0.000 A 
ATOM     24  C   UNL     1      -1.059  10.697  23.209  0.00  0.00    +0.000 A 
ATOM     25  C   UNL     1      -1.203  11.431  22.026  0.00  0.00    +0.000 A 
ATOM     26  C   UNL     1      -0.543  10.994  20.865  0.00  0.00    +0.000 A 
BRANCH  25  27
ATOM     27  C   UNL     1      -2.046  12.680  21.981  0.00  0.00    +0.000 C 
ATOM     28  F   UNL     1      -2.145  13.318  23.181  0.00  0.00    +0.000 F 
ATOM     29  F   UNL     1      -1.558  13.604  21.107  0.00  0.00    +0.000 F 
ATOM     30  F   UNL     1      -3.325  12.433  21.583  0.00  0.00    +0.000 F 
ENDBRANCH  25  27
ENDBRANCH  19  21
ENDBRANCH   2  16
TORSDOF 5
ENDMDL
MODEL 2
REMARK VINA RESULT:      -8.6      5.396      9.767
REMARK  Name = 
REMARK  6 active torsions:
REMARK  status: ('A' for Active; 'I' for Inactive)
REMARK    1  A    between atoms: C_1  and  C_2
REMARK    2  A    between atoms: N_4  and  C_5
REMARK    3  A    between atoms: C_9  and  N_10
REMARK    4  A    between atoms: C_11  and  C_13
REMARK    5  A    between atoms: C_16  and  C_17
REMARK    6  A    between atoms: C_21  and  C_22
REMARK                            x       y       z     vdW  Elec       q    Type
REMARK                         _______ _______ _______ _____ _____    ______ ____
ROOT
ATOM      1  N   UNL     1       1.423   9.014  18.837  0.00  0.00    +0.000 N 
ATOM      2  C   UNL     1       1.545   8.282  20.014  0.00  0.00    +0.000 C 
ATOM      3  O   UNL     1       1.083   8.614  21.102  0.00  0.00    +0.000 OA
ATOM      4  H   UNL     1       1.773   8.556  18.004  0.00  0.00    +0.000 HD
ENDROOT
BRANCH   1   9
ATOM      5  C   UNL     1      -1.303  11.503  18.297  0.00  0.00    +0.000 A 
ATOM      6  C   UNL     1      -0.593  12.696  18.448  0.00  0.00    +0.000 A 
ATOM      7  C   UNL     1       0.780  12.684  18.670  0.00  0.00    +0.000 A 
ATOM      8  C   UNL     1       1.459  11.475  18.772  0.00  0.00    +0.000 A 
ATOM      9  C   UNL     1       0.772  10.262  18.687  0.00  0.00    +0.000 A 
ATOM     10  C   UNL     1      -0.615  10.282  18.433  0.00  0.00    +0.000 A 
BRANCH   5  14
ATOM     11  C   UNL     1      -4.790  11.429  16.835  0.00  0.00    +0.000 C 
ATOM     12  C   UNL     1      -3.290  11.297  16.799  0.00  0.00    +0.000 C 
ATOM     13  O   UNL     1      -2.723  11.046  15.740  0.00  0.00    +0.000 OA
ATOM     14  N   UNL     1      -2.695  11.485  18.040  0.00  0.00    +0.000 N 
ATOM     15  H   UNL     1      -3.309  11.538  18.842  0.00  0.00    +0.000 HD
ENDBRANCH   5  14
ENDBRANCH   1   9
BRANCH   2  16
ATOM     16  C   UNL     1       2.250   7.025  19.865  0.00  0.00    +0.000 A 
ATOM     17  C   UNL     1       1.937   5.776  20.365  0.00  0.00    +0.000 A 
ATOM     18  C   UNL     1       2.949   4.896  19.922  0.00  0.00    +0.000 A 
ATOM     19  C   UNL     1       3.834   5.651  19.176  0.00  0.00    +0.000 A 
ATOM     20  O   UNL     1       3.408   6.954  19.138  0.00  0.00    +0.000 OA
BRANCH  19  21
ATOM     21  C   UNL     1       5.068   5.343  18.457  0.00  0.00    +0.000 A 
ATOM     22  C   UNL     1       6.289   5.277  19.146  0.00  0.00    +0.000 A 
ATOM     23  C   UNL     1       7.480   4.993  18.474  0.00  0.00    +0.000 A 
ATOM     24  C   UNL     1       7.467   4.761  17.098  0.00  0.00    +0.000 A 
ATOM     25  C   UNL     1       6.263   4.811  16.386  0.00  0.00    +0.000 A 
ATOM     26  C   UNL     1       5.073   5.106  17.074  0.00  0.00    +0.000 A 
BRANCH  25  27
ATOM     27  C   UNL     1       6.223   4.548  14.902  0.00  0.00    +0.000 C 
ATOM     28  F   UNL     1       6.215   3.225  14.580  0.00  0.00    +0.000 F 
ATOM     29  F   UNL     1       5.118   5.083  14.310  0.00  0.00    +0.000 F 
ATOM     30  F   UNL     1       7.290   5.085  14.248  0.00  0.00    +0.000 F 
ENDBRANCH  25  27
ENDBRANCH  19  21
ENDBRANCH   2  16
TORSDOF 5
ENDMDL
MODEL 3
REMARK VINA RESULT:      -8.5      5.554     10.366
REMARK  Name = 
REMARK  6 active torsions:
REMARK  status: ('A' for Active; 'I' for Inactive)
REMARK    1  A    between atoms: C_1  and  C_2
REMARK    2  A    between atoms: N_4  and  C_5
REMARK    3  A    between atoms: C_9  and  N_10
REMARK    4  A    between atoms: C_11  and  C_13
REMARK    5  A    between atoms: C_16  and  C_17
REMARK    6  A    between atoms: C_21  and  C_22
REMARK                            x       y       z     vdW  Elec       q    Type
REMARK                         _______ _______ _______ _____ _____    ______ ____
ROOT
ATOM      1  N   UNL     1       3.007   7.546  18.392  0.00  0.00    +0.000 N 
ATOM      2  C   UNL     1       3.050   6.157  18.355  0.00  0.00    +0.000 C 
ATOM      3  O   UNL     1       2.142   5.413  18.713  0.00  0.00    +0.000 OA
ATOM      4  H   UNL     1       3.798   8.017  17.968  0.00  0.00    +0.000 HD
ENDROOT
BRANCH   1   9
ATOM      5  C   UNL     1       0.023   9.785  18.342  0.00  0.00    +0.000 A 
ATOM      6  C   UNL     1      -0.253   9.875  19.708  0.00  0.00    +0.000 A 
ATOM      7  C   UNL     1       0.567   9.250  20.641  0.00  0.00    +0.000 A 
ATOM      8  C   UNL     1       1.661   8.503  20.219  0.00  0.00    +0.000 A 
ATOM      9  C   UNL     1       1.933   8.341  18.858  0.00  0.00    +0.000 A 
ATOM     10  C   UNL     1       1.113   9.001  17.919  0.00  0.00    +0.000 A 
BRANCH   5  14
ATOM     11  C   UNL     1      -2.667  10.981  15.966  0.00  0.00    +0.000 C 
ATOM     12  C   UNL     1      -2.122  10.197  17.133  0.00  0.00    +0.000 C 
ATOM     13  O   UNL     1      -2.860   9.444  17.761  0.00  0.00    +0.000 OA
ATOM     14  N   UNL     1      -0.776  10.436  17.371  0.00  0.00    +0.000 N 
ATOM     15  H   UNL     1      -0.344  11.195  16.859  0.00  0.00    +0.000 HD
ENDBRANCH   5  14
ENDBRANCH   1   9
BRANCH   2  16
ATOM     16  C   UNL     1       4.277   5.612  17.806  0.00  0.00    +0.000 A 
ATOM     17  C   UNL     1       5.413   5.173  18.457  0.00  0.00    +0.000 A 
ATOM     18  C   UNL     1       6.308   4.733  17.459  0.00  0.00    +0.000 A 
ATOM     19  C   UNL     1       5.678   4.928  16.244  0.00  0.00    +0.000 A 
ATOM     20  O   UNL     1       4.433   5.464  16.454  0.00  0.00    +0.000 OA
BRANCH  19  21
ATOM     21  C   UNL     1       6.062   4.684  14.856  0.00  0.00    +0.000 A 
ATOM     22  C   UNL     1       7.334   5.058  14.398  0.00  0.00    +0.000 A 
ATOM     23  C   UNL     1       7.714   4.841  13.073  0.00  0.00    +0.000 A 
ATOM     24  C   UNL     1       6.827   4.236  12.181  0.00  0.00    +0.000 A 
ATOM     25  C   UNL     1       5.554   3.844  12.611  0.00  0.00    +0.000 A 
ATOM     26  C   UNL     1       5.181   4.076  13.947  0.00  0.00    +0.000 A 
BRANCH  25  27
ATOM     27  C   UNL     1       4.584   3.175  11.671  0.00  0.00    +0.000 C 
ATOM     28  F   UNL     1       3.381   2.884  12.240  0.00  0.00    +0.000 F 
ATOM     29  F   UNL     1       4.306   3.942  10.580  0.00  0.00    +0.000 F 
ATOM     30  F   UNL     1       5.061   1.995  11.183  0.00  0.00    +0.000 F 
ENDBRANCH  25  27
ENDBRANCH  19  21
ENDBRANCH   2  16
TORSDOF 5
ENDMDL
MODEL 4
REMARK VINA RESULT:      -8.4      5.567     10.354
REMARK  Name = 
REMARK  6 active torsions:
REMARK  status: ('A' for Active; 'I' for Inactive)
REMARK    1  A    between atoms: C_1  and  C_2
REMARK    2  A    between atoms: N_4  and  C_5
REMARK    3  A    between atoms: C_9  and  N_10
REMARK    4  A    between atoms: C_11  and  C_13
REMARK    5  A    between atoms: C_16  and  C_17
REMARK    6  A    between atoms: C_21  and  C_22
REMARK                            x       y       z     vdW  Elec       q    Type
REMARK                         _______ _______ _______ _____ _____    ______ ____
ROOT
ATOM      1  N   UNL     1       0.856   9.451  19.276  0.00  0.00    +0.000 N 
ATOM      2  C   UNL     1       1.800   9.082  18.324  0.00  0.00    +0.000 C 
ATOM      3  O   UNL     1       2.118   9.755  17.348  0.00  0.00    +0.000 OA
ATOM      4  H   UNL     1       0.779   8.832  20.074  0.00  0.00    +0.000 HD
ENDROOT
BRANCH   1   9
ATOM      5  C   UNL     1      -1.882  11.862  18.493  0.00  0.00    +0.000 A 
ATOM      6  C   UNL     1      -1.513  12.939  19.301  0.00  0.00    +0.000 A 
ATOM      7  C   UNL     1      -0.346  12.895  20.055  0.00  0.00    +0.000 A 
ATOM      8  C   UNL     1       0.458  11.761  20.032  0.00  0.00    +0.000 A 
ATOM      9  C   UNL     1       0.089  10.641  19.282  0.00  0.00    +0.000 A 
ATOM     10  C   UNL     1      -1.081  10.704  18.498  0.00  0.00    +0.000 A 
BRANCH   5  14
ATOM     11  C   UNL     1      -5.375  11.773  17.045  0.00  0.00    +0.000 C 
ATOM     12  C   UNL     1      -4.355  11.817  18.153  0.00  0.00    +0.000 C 
ATOM     13  O   UNL     1      -4.722  11.788  19.324  0.00  0.00    +0.000 OA
ATOM     14  N   UNL     1      -3.048  11.890  17.690  0.00  0.00    +0.000 N 
ATOM     15  H   UNL     1      -2.918  12.055  16.701  0.00  0.00    +0.000 HD
ENDBRANCH   5  14
ENDBRANCH   1   9
BRANCH   2  16
ATOM     16  C   UNL     1       2.446   7.811  18.585  0.00  0.00    +0.000 A 
ATOM     17  C   UNL     1       2.125   6.834  19.507  0.00  0.00    +0.000 A 
ATOM     18  C   UNL     1       3.068   5.796  19.343  0.00  0.00    +0.000 A 
ATOM     19  C   UNL     1       3.922   6.190  18.330  0.00  0.00    +0.000 A 
ATOM     20  O   UNL     1       3.543   7.423  17.863  0.00  0.00    +0.000 OA
BRANCH  19  21
ATOM     21  C   UNL     1       5.088   5.579  17.696  0.00  0.00    +0.000 A 
ATOM     22  C   UNL     1       6.226   5.270  18.456  0.00  0.00    +0.000 A 
ATOM     23  C   UNL     1       7.352   4.694  17.865  0.00  0.00    +0.000 A 
ATOM     24  C   UNL     1       7.354   4.408  16.499  0.00  0.00    +0.000 A 
ATOM     25  C   UNL     1       6.231   4.698  15.716  0.00  0.00    +0.000 A 
ATOM     26  C   UNL     1       5.107   5.285  16.324  0.00  0.00    +0.000 A 
BRANCH  25  27
ATOM     27  C   UNL     1       6.205   4.384  14.242  0.00  0.00    +0.000 C 
ATOM     28  F   UNL     1       7.148   5.052  13.523  0.00  0.00    +0.000 F 
ATOM     29  F   UNL     1       6.411   3.061  13.990  0.00  0.00    +0.000 F 
ATOM     30  F   UNL     1       5.009   4.689  13.665  0.00  0.00    +0.000 F 
ENDBRANCH  25  27
ENDBRANCH  19  21
ENDBRANCH   2  16
TORSDOF 5
ENDMDL
MODEL 5
REMARK VINA RESULT:      -8.3      5.091      9.216
REMARK  Name = 
REMARK  6 active torsions:
REMARK  status: ('A' for Active; 'I' for Inactive)
REMARK    1  A    between atoms: C_1  and  C_2
REMARK    2  A    between atoms: N_4  and  C_5
REMARK    3  A    between atoms: C_9  and  N_10
REMARK    4  A    between atoms: C_11  and  C_13
REMARK    5  A    between atoms: C_16  and  C_17
REMARK    6  A    between atoms: C_21  and  C_22
REMARK                            x       y       z     vdW  Elec       q    Type
REMARK                         _______ _______ _______ _____ _____    ______ ____
ROOT
ATOM      1  N   UNL     1       0.944   9.350  19.057  0.00  0.00    +0.000 N 
ATOM      2  C   UNL     1       1.940   9.441  18.091  0.00  0.00    +0.000 C 
ATOM      3  O   UNL     1       2.237  10.463  17.478  0.00  0.00    +0.000 OA
ATOM      4  H   UNL     1       0.889   8.462  19.542  0.00  0.00    +0.000 HD
ENDROOT
BRANCH   1   9
ATOM      5  C   UNL     1      -1.912  11.750  19.105  0.00  0.00    +0.000 A 
ATOM      6  C   UNL     1      -1.674  12.407  20.314  0.00  0.00    +0.000 A 
ATOM      7  C   UNL     1      -0.555  12.102  21.080  0.00  0.00    +0.000 A 
ATOM      8  C   UNL     1       0.330  11.115  20.661  0.00  0.00    +0.000 A 
ATOM      9  C   UNL     1       0.092  10.395  19.487  0.00  0.00    +0.000 A 
ATOM     10  C   UNL     1      -1.030  10.729  18.701  0.00  0.00    +0.000 A 
BRANCH   5  14
ATOM     11  C   UNL     1      -4.914  11.781  16.803  0.00  0.00    +0.000 C 
ATOM     12  C   UNL     1      -3.880  11.141  17.693  0.00  0.00    +0.000 C 
ATOM     13  O   UNL     1      -3.860   9.921  17.828  0.00  0.00    +0.000 OA
ATOM     14  N   UNL     1      -3.027  12.060  18.288  0.00  0.00    +0.000 N 
ATOM     15  H   UNL     1      -3.265  13.039  18.194  0.00  0.00    +0.000 HD
ENDBRANCH   5  14
ENDBRANCH   1   9
BRANCH   2  16
ATOM     16  C   UNL     1       2.670   8.209  17.867  0.00  0.00    +0.000 A 
ATOM     17  C   UNL     1       3.863   8.001  17.202  0.00  0.00    +0.000 A 
ATOM     18  C   UNL     1       4.134   6.618  17.280  0.00  0.00    +0.000 A 
ATOM     19  C   UNL     1       3.093   6.046  17.986  0.00  0.00    +0.000 A 
ATOM     20  O   UNL     1       2.196   7.018  18.348  0.00  0.00    +0.000 OA
BRANCH  19  21
ATOM     21  C   UNL     1       2.782   4.679  18.398  0.00  0.00    +0.000 A 
ATOM     22  C   UNL     1       2.671   3.660  17.441  0.00  0.00    +0.000 A 
ATOM     23  C   UNL     1       2.365   2.350  17.816  0.00  0.00    +0.000 A 
ATOM     24  C   UNL     1       2.173   2.036  19.162  0.00  0.00    +0.000 A 
ATOM     25  C   UNL     1       2.285   3.030  20.141  0.00  0.00    +0.000 A 
ATOM     26  C   UNL     1       2.586   4.347  19.747  0.00  0.00    +0.000 A 
BRANCH  25  27
ATOM     27  C   UNL     1       2.098   2.712  21.602  0.00  0.00    +0.000 C 
ATOM     28  F   UNL     1       2.910   1.717  22.055  0.00  0.00    +0.000 F 
ATOM     29  F   UNL     1       2.342   3.786  22.403  0.00  0.00    +0.000 F 
ATOM     30  F   UNL     1       0.826   2.316  21.891  0.00  0.00    +0.000 F 
ENDBRANCH  25  27
ENDBRANCH  19  21
ENDBRANCH   2  16
TORSDOF 5
ENDMDL
MODEL 6
REMARK VINA RESULT:      -8.3      5.306      9.732
REMARK  Name = 
REMARK  6 active torsions:
REMARK  status: ('A' for Active; 'I' for Inactive)
REMARK    1  A    between atoms: C_1  and  C_2
REMARK    2  A    between atoms: N_4  and  C_5
REMARK    3  A    between atoms: C_9  and  N_10
REMARK    4  A    between atoms: C_11  and  C_13
REMARK    5  A    between atoms: C_16  and  C_17
REMARK    6  A    between atoms: C_21  and  C_22
REMARK                            x       y       z     vdW  Elec       q    Type
REMARK                         _______ _______ _______ _____ _____    ______ ____
ROOT
ATOM      1  N   UNL     1       1.342   8.921  19.304  0.00  0.00    +0.000 N 
ATOM      2  C   UNL     1       1.419   8.067  20.398  0.00  0.00    +0.000 C 
ATOM      3  O   UNL     1       0.902   8.273  21.492  0.00  0.00    +0.000 OA
ATOM      4  H   UNL     1       1.737   8.562  18.443  0.00  0.00    +0.000 HD
ENDROOT
BRANCH   1   9
ATOM      5  C   UNL     1      -1.033  11.595  18.240  0.00  0.00    +0.000 A 
ATOM      6  C   UNL     1      -0.720  12.597  19.161  0.00  0.00    +0.000 A 
ATOM      7  C   UNL     1       0.300  12.416  20.088  0.00  0.00    +0.000 A 
ATOM      8  C   UNL     1       1.005  11.219  20.126  0.00  0.00    +0.000 A 
ATOM      9  C   UNL     1       0.680  10.172  19.259  0.00  0.00    +0.000 A 
ATOM     10  C   UNL     1      -0.337  10.373  18.303  0.00  0.00    +0.000 A 
BRANCH   5  14
ATOM     11  C   UNL     1      -4.092  11.429  16.021  0.00  0.00    +0.000 C 
ATOM     12  C   UNL     1      -3.271  11.111  17.244  0.00  0.00    +0.000 C 
ATOM     13  O   UNL     1      -3.712  10.344  18.095  0.00  0.00    +0.000 OA
ATOM     14  N   UNL     1      -2.045  11.762  17.264  0.00  0.00    +0.000 N 
ATOM     15  H   UNL     1      -1.890  12.475  16.562  0.00  0.00    +0.000 HD
ENDBRANCH   5  14
ENDBRANCH   1   9
BRANCH   2  16
ATOM     16  C   UNL     1       2.150   6.840  20.147  0.00  0.00    +0.000 A 
ATOM     17  C   UNL     1       1.864   5.549  20.545  0.00  0.00    +0.000 A 
ATOM     18  C   UNL     1       2.892   4.729  20.031  0.00  0.00    +0.000 A 
ATOM     19  C   UNL     1       3.759   5.559  19.346  0.00  0.00    +0.000 A 
ATOM     20  O   UNL     1       3.306   6.852  19.415  0.00  0.00    +0.000 OA
BRANCH  19  21
ATOM     21  C   UNL     1       4.998   5.336  18.604  0.00  0.00    +0.000 A 
ATOM     22  C   UNL     1       6.234   5.370  19.266  0.00  0.00    +0.000 A 
ATOM     23  C   UNL     1       7.428   5.168  18.571  0.00  0.00    +0.000 A 
ATOM     24  C   UNL     1       7.403   4.920  17.197  0.00  0.00    +0.000 A 
ATOM     25  C   UNL     1       6.184   4.872  16.512  0.00  0.00    +0.000 A 
ATOM     26  C   UNL     1       4.990   5.085  17.223  0.00  0.00    +0.000 A 
BRANCH  25  27
ATOM     27  C   UNL     1       6.132   4.589  15.032  0.00  0.00    +0.000 C 
ATOM     28  F   UNL     1       7.151   5.157  14.329  0.00  0.00    +0.000 F 
ATOM     29  F   UNL     1       6.186   3.256  14.756  0.00  0.00    +0.000 F 
ATOM     30  F   UNL     1       4.983   5.040  14.455  0.00  0.00    +0.000 F 
ENDBRANCH  25  27
ENDBRANCH  19  21
ENDBRANCH   2  16
TORSDOF 5
ENDMDL
MODEL 7
REMARK VINA RESULT:      -8.2      2.374      3.105
REMARK  Name = 
REMARK  6 active torsions:
REMARK  status: ('A' for Active; 'I' for Inactive)
REMARK    1  A    between atoms: C_1  and  C_2
REMARK    2  A    between atoms: N_4  and  C_5
REMARK    3  A    between atoms: C_9  and  N_10
REMARK    4  A    between atoms: C_11  and  C_13
REMARK    5  A    between atoms: C_16  and  C_17
REMARK    6  A    between atoms: C_21  and  C_22
REMARK                            x       y       z     vdW  Elec       q    Type
REMARK                         _______ _______ _______ _____ _____    ______ ____
ROOT
ATOM      1  N   UNL     1       4.398   6.666  18.733  0.00  0.00    +0.000 N 
ATOM      2  C   UNL     1       3.047   6.338  18.770  0.00  0.00    +0.000 C 
ATOM      3  O   UNL     1       2.560   5.302  18.327  0.00  0.00    +0.000 OA
ATOM      4  H   UNL     1       4.653   7.511  19.229  0.00  0.00    +0.000 HD
ENDROOT
BRANCH   1   9
ATOM      5  C   UNL     1       6.247   4.515  16.309  0.00  0.00    +0.000 A 
ATOM      6  C   UNL     1       7.473   4.388  16.963  0.00  0.00    +0.000 A 
ATOM      7  C   UNL     1       7.673   4.958  18.216  0.00  0.00    +0.000 A 
ATOM      8  C   UNL     1       6.656   5.687  18.821  0.00  0.00    +0.000 A 
ATOM      9  C   UNL     1       5.436   5.886  18.169  0.00  0.00    +0.000 A 
ATOM     10  C   UNL     1       5.231   5.282  16.912  0.00  0.00    +0.000 A 
BRANCH   5  14
ATOM     11  C   UNL     1       6.011   3.559  12.656  0.00  0.00    +0.000 C 
ATOM     12  C   UNL     1       6.537   4.337  13.835  0.00  0.00    +0.000 C 
ATOM     13  O   UNL     1       7.356   5.235  13.659  0.00  0.00    +0.000 OA
ATOM     14  N   UNL     1       6.004   3.920  15.047  0.00  0.00    +0.000 N 
ATOM     15  H   UNL     1       5.454   3.071  15.041  0.00  0.00    +0.000 HD
ENDBRANCH   5  14
ENDBRANCH   1   9
BRANCH   2  16
ATOM     16  C   UNL     1       2.211   7.322  19.430  0.00  0.00    +0.000 A 
ATOM     17  C   UNL     1       1.861   7.428  20.762  0.00  0.00    +0.000 A 
ATOM     18  C   UNL     1       1.036   8.568  20.874  0.00  0.00    +0.000 A 
ATOM     19  C   UNL     1       0.919   9.103  19.605  0.00  0.00    +0.000 A 
ATOM     20  O   UNL     1       1.639   8.343  18.719  0.00  0.00    +0.000 OA
BRANCH  19  21
ATOM     21  C   UNL     1       0.215  10.260  19.057  0.00  0.00    +0.000 A 
ATOM     22  C   UNL     1       0.657  11.559  19.348  0.00  0.00    +0.000 A 
ATOM     23  C   UNL     1      -0.008  12.676  18.840  0.00  0.00    +0.000 A 
ATOM     24  C   UNL     1      -1.127  12.511  18.022  0.00  0.00    +0.000 A 
ATOM     25  C   UNL     1      -1.586  11.226  17.707  0.00  0.00    +0.000 A 
ATOM     26  C   UNL     1      -0.910  10.111  18.232  0.00  0.00    +0.000 A 
BRANCH  25  27
ATOM     27  C   UNL     1      -2.782  11.023  16.812  0.00  0.00    +0.000 C 
ATOM     28  F   UNL     1      -3.799  11.897  17.050  0.00  0.00    +0.000 F 
ATOM     29  F   UNL     1      -2.472  11.159  15.493  0.00  0.00    +0.000 F 
ATOM     30  F   UNL     1      -3.322   9.778  16.939  0.00  0.00    +0.000 F 
ENDBRANCH  25  27
ENDBRANCH  19  21
ENDBRANCH   2  16
TORSDOF 5
ENDMDL
MODEL 8
REMARK VINA RESULT:      -8.1      5.396     11.078
REMARK  Name = 
REMARK  6 active torsions:
REMARK  status: ('A' for Active; 'I' for Inactive)
REMARK    1  A    between atoms: C_1  and  C_2
REMARK    2  A    between atoms: N_4  and  C_5
REMARK    3  A    between atoms: C_9  and  N_10
REMARK    4  A    between atoms: C_11  and  C_13
REMARK    5  A    between atoms: C_16  and  C_17
REMARK    6  A    between atoms: C_21  and  C_22
REMARK                            x       y       z     vdW  Elec       q    Type
REMARK                         _______ _______ _______ _____ _____    ______ ____
ROOT
ATOM      1  N   UNL     1      -0.686  11.755  21.007  0.00  0.00    +0.000 N 
ATOM      2  C   UNL     1       0.203  10.707  21.225  0.00  0.00    +0.000 C 
ATOM      3  O   UNL     1       0.543  10.288  22.327  0.00  0.00    +0.000 OA
ATOM      4  H   UNL     1      -0.940  11.915  20.039  0.00  0.00    +0.000 HD
ENDROOT
BRANCH   1   9
ATOM      5  C   UNL     1      -3.323  12.918  23.376  0.00  0.00    +0.000 A 
ATOM      6  C   UNL     1      -2.653  13.967  24.009  0.00  0.00    +0.000 A 
ATOM      7  C   UNL     1      -1.366  14.325  23.623  0.00  0.00    +0.000 A 
ATOM      8  C   UNL     1      -0.719  13.620  22.615  0.00  0.00    +0.000 A 
ATOM      9  C   UNL     1      -1.334  12.526  22.000  0.00  0.00    +0.000 A 
ATOM     10  C   UNL     1      -2.650  12.187  22.377  0.00  0.00    +0.000 A 
BRANCH   5  14
ATOM     11  C   UNL     1      -7.046  12.656  23.994  0.00  0.00    +0.000 C 
ATOM     12  C   UNL     1      -5.798  13.249  23.391  0.00  0.00    +0.000 C 
ATOM     13  O   UNL     1      -5.876  14.249  22.685  0.00  0.00    +0.000 OA
ATOM     14  N   UNL     1      -4.645  12.551  23.726  0.00  0.00    +0.000 N 
ATOM     15  H   UNL     1      -4.763  11.662  24.195  0.00  0.00    +0.000 HD
ENDBRANCH   5  14
ENDBRANCH   1   9
BRANCH   2  16
ATOM     16  C   UNL     1       0.700  10.084  20.014  0.00  0.00    +0.000 A 
ATOM     17  C   UNL     1       0.520  10.455  18.695  0.00  0.00    +0.000 A 
ATOM     18  C   UNL     1       1.219   9.514  17.910  0.00  0.00    +0.000 A 
ATOM     19  C   UNL     1       1.792   8.611  18.786  0.00  0.00    +0.000 A 
ATOM     20  O   UNL     1       1.476   8.958  20.074  0.00  0.00    +0.000 OA
BRANCH  19  21
ATOM     21  C   UNL     1       2.623   7.422  18.611  0.00  0.00    +0.000 A 
ATOM     22  C   UNL     1       2.578   6.384  19.554  0.00  0.00    +0.000 A 
ATOM     23  C   UNL     1       3.372   5.245  19.409  0.00  0.00    +0.000 A 
ATOM     24  C   UNL     1       4.222   5.122  18.308  0.00  0.00    +0.000 A 
ATOM     25  C   UNL     1       4.282   6.137  17.347  0.00  0.00    +0.000 A 
ATOM     26  C   UNL     1       3.482   7.282  17.511  0.00  0.00    +0.000 A 
BRANCH  25  27
ATOM     27  C   UNL     1       5.180   6.019  16.142  0.00  0.00    +0.000 C 
ATOM     28  F   UNL     1       5.065   4.830  15.487  0.00  0.00    +0.000 F 
ATOM     29  F   UNL     1       4.930   6.983  15.213  0.00  0.00    +0.000 F 
ATOM     30  F   UNL     1       6.499   6.144  16.460  0.00  0.00    +0.000 F 
ENDBRANCH  25  27
ENDBRANCH  19  21
ENDBRANCH   2  16
TORSDOF 5
ENDMDL
MODEL 9
REMARK VINA RESULT:      -8.1      5.373     10.892
REMARK  Name = 
REMARK  6 active torsions:
REMARK  status: ('A' for Active; 'I' for Inactive)
REMARK    1  A    between atoms: C_1  and  C_2
REMARK    2  A    between atoms: N_4  and  C_5
REMARK    3  A    between atoms: C_9  and  N_10
REMARK    4  A    between atoms: C_11  and  C_13
REMARK    5  A    between atoms: C_16  and  C_17
REMARK    6  A    between atoms: C_21  and  C_22
REMARK                            x       y       z     vdW  Elec       q    Type
REMARK                         _______ _______ _______ _____ _____    ______ ____
ROOT
ATOM      1  N   UNL     1      -0.547  11.736  21.446  0.00  0.00    +0.000 N 
ATOM      2  C   UNL     1       0.121  10.550  21.729  0.00  0.00    +0.000 C 
ATOM      3  O   UNL     1       0.182  10.021  22.836  0.00  0.00    +0.000 OA
ATOM      4  H   UNL     1      -0.588  11.988  20.466  0.00  0.00    +0.000 HD
ENDROOT
BRANCH   1   9
ATOM      5  C   UNL     1      -3.295  12.960  23.652  0.00  0.00    +0.000 A 
ATOM      6  C   UNL     1      -2.676  14.062  24.245  0.00  0.00    +0.000 A 
ATOM      7  C   UNL     1      -1.386  14.433  23.883  0.00  0.00    +0.000 A 
ATOM      8  C   UNL     1      -0.685  13.689  22.940  0.00  0.00    +0.000 A 
ATOM      9  C   UNL     1      -1.250  12.546  22.370  0.00  0.00    +0.000 A 
ATOM     10  C   UNL     1      -2.569  12.192  22.722  0.00  0.00    +0.000 A 
BRANCH   5  14
ATOM     11  C   UNL     1      -7.036  12.558  24.048  0.00  0.00    +0.000 C 
ATOM     12  C   UNL     1      -5.778  13.103  23.422  0.00  0.00    +0.000 C 
ATOM     13  O   UNL     1      -5.853  13.925  22.515  0.00  0.00    +0.000 OA
ATOM     14  N   UNL     1      -4.619  12.577  23.978  0.00  0.00    +0.000 N 
ATOM     15  H   UNL     1      -4.725  11.800  24.617  0.00  0.00    +0.000 HD
ENDBRANCH   5  14
ENDBRANCH   1   9
BRANCH   2  16
ATOM     16  C   UNL     1       0.740   9.923  20.578  0.00  0.00    +0.000 A 
ATOM     17  C   UNL     1       0.945  10.425  19.307  0.00  0.00    +0.000 A 
ATOM     18  C   UNL     1       1.594   9.410  18.571  0.00  0.00    +0.000 A 
ATOM     19  C   UNL     1       1.751   8.336  19.425  0.00  0.00    +0.000 A 
ATOM     20  O   UNL     1       1.230   8.647  20.655  0.00  0.00    +0.000 OA
BRANCH  19  21
ATOM     21  C   UNL     1       2.334   7.004  19.278  0.00  0.00    +0.000 A 
ATOM     22  C   UNL     1       3.243   6.741  18.241  0.00  0.00    +0.000 A 
ATOM     23  C   UNL     1       3.803   5.473  18.080  0.00  0.00    +0.000 A 
ATOM     24  C   UNL     1       3.468   4.444  18.962  0.00  0.00    +0.000 A 
ATOM     25  C   UNL     1       2.571   4.678  20.010  0.00  0.00    +0.000 A 
ATOM     26  C   UNL     1       2.008   5.959  20.156  0.00  0.00    +0.000 A 
BRANCH  25  27
ATOM     27  C   UNL     1       2.207   3.587  20.984  0.00  0.00    +0.000 C 
ATOM     28  F   UNL     1       2.325   3.956  22.290  0.00  0.00    +0.000 F 
ATOM     29  F   UNL     1       0.921   3.163  20.831  0.00  0.00    +0.000 F 
ATOM     30  F   UNL     1       2.983   2.477  20.838  0.00  0.00    +0.000 F 
ENDBRANCH  25  27
ENDBRANCH  19  21
ENDBRANCH   2  16
TORSDOF 5
ENDMDL
