MODEL 1
REMARK VINA RESULT:      -9.3      0.000      0.000
REMARK  Name = 
REMARK  4 active torsions:
REMARK  status: ('A' for Active; 'I' for Inactive)
REMARK    1  A    between atoms: C_1  and  C_2
REMARK    2  A    between atoms: C_6  and  N_7
REMARK    3  A    between atoms: N_10  and  C_11
REMARK    4  A    between atoms: N_14  and  C_15
REMARK                            x       y       z     vdW  Elec       q    Type
REMARK                         _______ _______ _______ _____ _____    ______ ____
ROOT
ATOM      1  N   UNL     1       8.216   9.660  17.615  0.00  0.00    +0.000 N 
ATOM      2  C   UNL     1       8.102   8.327  17.955  0.00  0.00    +0.000 C 
ATOM      3  O   UNL     1       8.655   7.761  18.888  0.00  0.00    +0.000 OA
ATOM      4  N   UNL     1       7.267   7.651  17.086  0.00  0.00    +0.000 N 
ATOM      5  H   UNL     1       7.817   9.938  16.733  0.00  0.00    +0.000 HD
ATOM      6  H   UNL     1       7.282   8.006  16.142  0.00  0.00    +0.000 HD
ENDROOT
BRANCH   1  12
ATOM      7  C   UNL     1      11.583  15.765  19.740  0.00  0.00    +0.000 C 
ATOM      8  C   UNL     1      10.938  14.475  19.434  0.00  0.00    +0.000 A 
ATOM      9  N   UNL     1      10.343  14.102  18.317  0.00  0.00    +0.000 NA
ATOM     10  C   UNL     1       9.922  12.826  18.588  0.00  0.00    +0.000 A 
ATOM     11  C   UNL     1       9.222  11.905  17.800  0.00  0.00    +0.000 A 
ATOM     12  C   UNL     1       8.920  10.646  18.341  0.00  0.00    +0.000 A 
ATOM     13  C   UNL     1       9.337  10.320  19.645  0.00  0.00    +0.000 A 
ATOM     14  C   UNL     1      10.029  11.236  20.454  0.00  0.00    +0.000 A 
ATOM     15  C   UNL     1      10.295  12.468  19.871  0.00  0.00    +0.000 A 
ATOM     16  O   UNL     1      10.949  13.531  20.428  0.00  0.00    +0.000 OA
ENDBRANCH   1  12
BRANCH   4  17
ATOM     17  C   UNL     1       7.134   6.201  17.213  0.00  0.00    +0.000 C 
ATOM     18  C   UNL     1       6.789   5.572  15.869  0.00  0.00    +0.000 C 
ATOM     19  C   UNL     1       5.267   5.674  15.811  0.00  0.00    +0.000 C 
ATOM     20  N   UNL     1       4.854   5.443  17.192  0.00  0.00    +0.000 N 
ATOM     21  C   UNL     1       5.971   5.706  18.116  0.00  0.00    +0.000 C 
BRANCH  20  22
ATOM     22  C   UNL     1       3.730   4.699  17.520  0.00  0.00    +0.000 A 
ATOM     23  C   UNL     1       2.520   5.274  17.960  0.00  0.00    +0.000 A 
ATOM     24  F   UNL     1       2.390   6.606  18.078  0.00  0.00    +0.000 F 
ATOM     25  C   UNL     1       1.401   4.514  18.327  0.00  0.00    +0.000 A 
ATOM     26  C   UNL     1       1.437   3.129  18.242  0.00  0.00    +0.000 A 
ATOM     27  C   UNL     1       2.596   2.517  17.781  0.00  0.00    +0.000 A 
ATOM     28  C   UNL     1       3.709   3.291  17.429  0.00  0.00    +0.000 A 
ATOM     29  F   UNL     1       4.782   2.623  16.969  0.00  0.00    +0.000 F 
ENDBRANCH  20  22
ENDBRANCH   4  17
TORSDOF 3
ENDMDL
MODEL 2
REMARK VINA RESULT:      -9.2      0.082      1.591
REMARK  Name = 
REMARK  4 active torsions:
REMARK  status: ('A' for Active; 'I' for Inactive)
REMARK    1  A    between atoms: C_1  and  C_2
REMARK    2  A    between atoms: C_6  and  N_7
REMARK    3  A    between atoms: N_10  and  C_11
REMARK    4  A    between atoms: N_14  and  C_15
REMARK                            x       y       z     vdW  Elec       q    Type
REMARK                         _______ _______ _______ _____ _____    ______ ____
ROOT
ATOM      1  N   UNL     1       8.228   9.664  17.603  0.00  0.00    +0.000 N 
ATOM      2  C   UNL     1       8.108   8.333  17.947  0.00  0.00    +0.000 C 
ATOM      3  O   UNL     1       8.643   7.772  18.894  0.00  0.00    +0.000 OA
ATOM      4  N   UNL     1       7.288   7.654  17.067  0.00  0.00    +0.000 N 
ATOM      5  H   UNL     1       7.846   9.938  16.712  0.00  0.00    +0.000 HD
ATOM      6  H   UNL     1       7.321   8.003  16.121  0.00  0.00    +0.000 HD
ENDROOT
BRANCH   1  12
ATOM      7  C   UNL     1      11.469  15.813  19.796  0.00  0.00    +0.000 C 
ATOM      8  C   UNL     1      10.853  14.513  19.474  0.00  0.00    +0.000 A 
ATOM      9  N   UNL     1      10.249  14.148  18.360  0.00  0.00    +0.000 NA
ATOM     10  C   UNL     1       9.866  12.855  18.612  0.00  0.00    +0.000 A 
ATOM     11  C   UNL     1       9.176  11.932  17.818  0.00  0.00    +0.000 A 
ATOM     12  C   UNL     1       8.918  10.654  18.337  0.00  0.00    +0.000 A 
ATOM     13  C   UNL     1       9.368  10.313  19.626  0.00  0.00    +0.000 A 
ATOM     14  C   UNL     1      10.050  11.231  20.442  0.00  0.00    +0.000 A 
ATOM     15  C   UNL     1      10.272  12.481  19.881  0.00  0.00    +0.000 A 
ATOM     16  O   UNL     1      10.908  13.549  20.447  0.00  0.00    +0.000 OA
ENDBRANCH   1  12
BRANCH   4  17
ATOM     17  C   UNL     1       7.152   6.204  17.199  0.00  0.00    +0.000 C 
ATOM     18  C   UNL     1       6.785   5.574  15.862  0.00  0.00    +0.000 C 
ATOM     19  C   UNL     1       5.262   5.680  15.827  0.00  0.00    +0.000 C 
ATOM     20  N   UNL     1       4.870   5.454  17.215  0.00  0.00    +0.000 N 
ATOM     21  C   UNL     1       6.002   5.714  18.120  0.00  0.00    +0.000 C 
BRANCH  20  22
ATOM     22  C   UNL     1       3.749   4.714  17.562  0.00  0.00    +0.000 A 
ATOM     23  C   UNL     1       3.680   3.310  17.449  0.00  0.00    +0.000 A 
ATOM     24  F   UNL     1       4.725   2.601  16.994  0.00  0.00    +0.000 F 
ATOM     25  C   UNL     1       2.530   2.574  17.766  0.00  0.00    +0.000 A 
ATOM     26  C   UNL     1       1.396   3.216  18.242  0.00  0.00    +0.000 A 
ATOM     27  C   UNL     1       1.427   4.595  18.404  0.00  0.00    +0.000 A 
ATOM     28  C   UNL     1       2.579   5.318  18.072  0.00  0.00    +0.000 A 
ATOM     29  F   UNL     1       2.536   6.646  18.282  0.00  0.00    +0.000 F 
ENDBRANCH  20  22
ENDBRANCH   4  17
TORSDOF 3
ENDMDL
MODEL 3
REMARK VINA RESULT:      -9.2      1.142      1.956
REMARK  Name = 
REMARK  4 active torsions:
REMARK  status: ('A' for Active; 'I' for Inactive)
REMARK    1  A    between atoms: C_1  and  C_2
REMARK    2  A    between atoms: C_6  and  N_7
REMARK    3  A    between atoms: N_10  and  C_11
REMARK    4  A    between atoms: N_14  and  C_15
REMARK                            x       y       z     vdW  Elec       q    Type
REMARK                         _______ _______ _______ _____ _____    ______ ____
ROOT
ATOM      1  N   UNL     1       8.161   9.626  17.662  0.00  0.00    +0.000 N 
ATOM      2  C   UNL     1       7.988   8.300  18.003  0.00  0.00    +0.000 C 
ATOM      3  O   UNL     1       8.569   7.693  18.892  0.00  0.00    +0.000 OA
ATOM      4  N   UNL     1       7.053   7.686  17.192  0.00  0.00    +0.000 N 
ATOM      5  H   UNL     1       7.719   9.937  16.812  0.00  0.00    +0.000 HD
ATOM      6  H   UNL     1       7.024   8.047  16.251  0.00  0.00    +0.000 HD
ENDROOT
BRANCH   1  12
ATOM      7  C   UNL     1      12.332  15.330  19.449  0.00  0.00    +0.000 C 
ATOM      8  C   UNL     1      11.509  14.129  19.218  0.00  0.00    +0.000 A 
ATOM      9  N   UNL     1      10.919  13.744  18.103  0.00  0.00    +0.000 NA
ATOM     10  C   UNL     1      10.290  12.578  18.458  0.00  0.00    +0.000 A 
ATOM     11  C   UNL     1       9.494  11.702  17.712  0.00  0.00    +0.000 A 
ATOM     12  C   UNL     1       8.974  10.561  18.341  0.00  0.00    +0.000 A 
ATOM     13  C   UNL     1       9.272  10.303  19.692  0.00  0.00    +0.000 A 
ATOM     14  C   UNL     1      10.059  11.178  20.460  0.00  0.00    +0.000 A 
ATOM     15  C   UNL     1      10.541  12.293  19.789  0.00  0.00    +0.000 A 
ATOM     16  O   UNL     1      11.325  13.294  20.289  0.00  0.00    +0.000 OA
ENDBRANCH   1  12
BRANCH   4  17
ATOM     17  C   UNL     1       6.839   6.246  17.321  0.00  0.00    +0.000 C 
ATOM     18  C   UNL     1       5.902   5.740  16.232  0.00  0.00    +0.000 C 
ATOM     19  C   UNL     1       4.514   5.967  16.827  0.00  0.00    +0.000 C 
ATOM     20  N   UNL     1       4.696   5.675  18.245  0.00  0.00    +0.000 N 
ATOM     21  C   UNL     1       6.118   5.783  18.616  0.00  0.00    +0.000 C 
BRANCH  20  22
ATOM     22  C   UNL     1       3.744   5.001  18.997  0.00  0.00    +0.000 A 
ATOM     23  C   UNL     1       3.664   3.595  19.068  0.00  0.00    +0.000 A 
ATOM     24  F   UNL     1       4.532   2.819  18.399  0.00  0.00    +0.000 F 
ATOM     25  C   UNL     1       2.675   2.922  19.798  0.00  0.00    +0.000 A 
ATOM     26  C   UNL     1       1.730   3.637  20.521  0.00  0.00    +0.000 A 
ATOM     27  C   UNL     1       1.789   5.025  20.511  0.00  0.00    +0.000 A 
ATOM     28  C   UNL     1       2.776   5.682  19.766  0.00  0.00    +0.000 A 
ATOM     29  F   UNL     1       2.779   7.026  19.829  0.00  0.00    +0.000 F 
ENDBRANCH  20  22
ENDBRANCH   4  17
TORSDOF 3
ENDMDL
MODEL 4
REMARK VINA RESULT:      -8.7      1.489      1.549
REMARK  Name = 
REMARK  4 active torsions:
REMARK  status: ('A' for Active; 'I' for Inactive)
REMARK    1  A    between atoms: C_1  and  C_2
REMARK    2  A    between atoms: C_6  and  N_7
REMARK    3  A    between atoms: N_10  and  C_11
REMARK    4  A    between atoms: N_14  and  C_15
REMARK                            x       y       z     vdW  Elec       q    Type
REMARK                         _______ _______ _______ _____ _____    ______ ____
ROOT
ATOM      1  N   UNL     1       8.739   8.866  19.229  0.00  0.00    +0.000 N 
ATOM      2  C   UNL     1       8.219   8.184  18.147  0.00  0.00    +0.000 C 
ATOM      3  O   UNL     1       8.068   8.619  17.014  0.00  0.00    +0.000 OA
ATOM      4  N   UNL     1       7.855   6.896  18.487  0.00  0.00    +0.000 N 
ATOM      5  H   UNL     1       8.659   8.418  20.128  0.00  0.00    +0.000 HD
ATOM      6  H   UNL     1       7.535   6.796  19.439  0.00  0.00    +0.000 HD
ENDROOT
BRANCH   1  12
ATOM      7  C   UNL     1      11.472  15.314  17.211  0.00  0.00    +0.000 C 
ATOM      8  C   UNL     1      10.940  14.050  17.751  0.00  0.00    +0.000 A 
ATOM      9  N   UNL     1      10.526  12.987  17.089  0.00  0.00    +0.000 NA
ATOM     10  C   UNL     1      10.134  12.124  18.080  0.00  0.00    +0.000 A 
ATOM     11  C   UNL     1       9.597  10.834  18.012  0.00  0.00    +0.000 A 
ATOM     12  C   UNL     1       9.285  10.168  19.207  0.00  0.00    +0.000 A 
ATOM     13  C   UNL     1       9.532  10.790  20.446  0.00  0.00    +0.000 A 
ATOM     14  C   UNL     1      10.060  12.089  20.533  0.00  0.00    +0.000 A 
ATOM     15  C   UNL     1      10.343  12.702  19.320  0.00  0.00    +0.000 A 
ATOM     16  O   UNL     1      10.860  13.951  19.116  0.00  0.00    +0.000 OA
ENDBRANCH   1  12
BRANCH   4  17
ATOM     17  C   UNL     1       7.162   6.070  17.500  0.00  0.00    +0.000 C 
ATOM     18  C   UNL     1       5.945   6.800  16.946  0.00  0.00    +0.000 C 
ATOM     19  C   UNL     1       4.845   6.465  17.950  0.00  0.00    +0.000 C 
ATOM     20  N   UNL     1       5.134   5.085  18.329  0.00  0.00    +0.000 N 
ATOM     21  C   UNL     1       6.539   4.753  18.037  0.00  0.00    +0.000 C 
BRANCH  20  22
ATOM     22  C   UNL     1       4.137   4.142  18.531  0.00  0.00    +0.000 A 
ATOM     23  C   UNL     1       3.248   4.174  19.625  0.00  0.00    +0.000 A 
ATOM     24  F   UNL     1       3.321   5.149  20.546  0.00  0.00    +0.000 F 
ATOM     25  C   UNL     1       2.268   3.196  19.844  0.00  0.00    +0.000 A 
ATOM     26  C   UNL     1       2.116   2.146  18.949  0.00  0.00    +0.000 A 
ATOM     27  C   UNL     1       2.944   2.090  17.836  0.00  0.00    +0.000 A 
ATOM     28  C   UNL     1       3.926   3.069  17.638  0.00  0.00    +0.000 A 
ATOM     29  F   UNL     1       4.670   2.956  16.523  0.00  0.00    +0.000 F 
ENDBRANCH  20  22
ENDBRANCH   4  17
TORSDOF 3
ENDMDL
MODEL 5
REMARK VINA RESULT:      -8.6      1.034      1.799
REMARK  Name = 
REMARK  4 active torsions:
REMARK  status: ('A' for Active; 'I' for Inactive)
REMARK    1  A    between atoms: C_1  and  C_2
REMARK    2  A    between atoms: C_6  and  N_7
REMARK    3  A    between atoms: N_10  and  C_11
REMARK    4  A    between atoms: N_14  and  C_15
REMARK                            x       y       z     vdW  Elec       q    Type
REMARK                         _______ _______ _______ _____ _____    ______ ____
ROOT
ATOM      1  N   UNL     1       7.855   8.979  17.416  0.00  0.00    +0.000 N 
ATOM      2  C   UNL     1       7.770   7.688  17.896  0.00  0.00    +0.000 C 
ATOM      3  O   UNL     1       8.312   7.244  18.899  0.00  0.00    +0.000 OA
ATOM      4  N   UNL     1       6.980   6.896  17.085  0.00  0.00    +0.000 N 
ATOM      5  H   UNL     1       7.473   9.147  16.499  0.00  0.00    +0.000 HD
ATOM      6  H   UNL     1       7.012   7.147  16.108  0.00  0.00    +0.000 HD
ENDROOT
BRANCH   1  12
ATOM      7  C   UNL     1      10.468  15.544  19.200  0.00  0.00    +0.000 C 
ATOM      8  C   UNL     1      10.008  14.166  18.950  0.00  0.00    +0.000 A 
ATOM      9  N   UNL     1       9.275  13.717  17.950  0.00  0.00    +0.000 NA
ATOM     10  C   UNL     1       9.145  12.380  18.223  0.00  0.00    +0.000 A 
ATOM     11  C   UNL     1       8.471  11.365  17.534  0.00  0.00    +0.000 A 
ATOM     12  C   UNL     1       8.508  10.060  18.048  0.00  0.00    +0.000 A 
ATOM     13  C   UNL     1       9.229   9.786  19.225  0.00  0.00    +0.000 A 
ATOM     14  C   UNL     1       9.900  10.794  19.937  0.00  0.00    +0.000 A 
ATOM     15  C   UNL     1       9.825  12.066  19.386  0.00  0.00    +0.000 A 
ATOM     16  O   UNL     1      10.383  13.217  19.866  0.00  0.00    +0.000 OA
ENDBRANCH   1  12
BRANCH   4  17
ATOM     17  C   UNL     1       6.886   5.464  17.365  0.00  0.00    +0.000 C 
ATOM     18  C   UNL     1       6.409   4.704  16.134  0.00  0.00    +0.000 C 
ATOM     19  C   UNL     1       4.888   4.790  16.232  0.00  0.00    +0.000 C 
ATOM     20  N   UNL     1       4.630   4.694  17.665  0.00  0.00    +0.000 N 
ATOM     21  C   UNL     1       5.835   5.052  18.433  0.00  0.00    +0.000 C 
BRANCH  20  22
ATOM     22  C   UNL     1       3.560   3.978  18.184  0.00  0.00    +0.000 A 
ATOM     23  C   UNL     1       3.701   2.738  18.840  0.00  0.00    +0.000 A 
ATOM     24  F   UNL     1       4.910   2.177  19.005  0.00  0.00    +0.000 F 
ATOM     25  C   UNL     1       2.612   2.003  19.327  0.00  0.00    +0.000 A 
ATOM     26  C   UNL     1       1.322   2.497  19.203  0.00  0.00    +0.000 A 
ATOM     27  C   UNL     1       1.134   3.732  18.595  0.00  0.00    +0.000 A 
ATOM     28  C   UNL     1       2.232   4.449  18.102  0.00  0.00    +0.000 A 
ATOM     29  F   UNL     1       1.967   5.646  17.550  0.00  0.00    +0.000 F 
ENDBRANCH  20  22
ENDBRANCH   4  17
TORSDOF 3
ENDMDL
MODEL 6
REMARK VINA RESULT:      -8.6      1.446      2.035
REMARK  Name = 
REMARK  4 active torsions:
REMARK  status: ('A' for Active; 'I' for Inactive)
REMARK    1  A    between atoms: C_1  and  C_2
REMARK    2  A    between atoms: C_6  and  N_7
REMARK    3  A    between atoms: N_10  and  C_11
REMARK    4  A    between atoms: N_14  and  C_15
REMARK                            x       y       z     vdW  Elec       q    Type
REMARK                         _______ _______ _______ _____ _____    ______ ____
ROOT
ATOM      1  N   UNL     1       8.725   8.821  19.218  0.00  0.00    +0.000 N 
ATOM      2  C   UNL     1       8.189   8.153  18.135  0.00  0.00    +0.000 C 
ATOM      3  O   UNL     1       8.007   8.607  17.014  0.00  0.00    +0.000 OA
ATOM      4  N   UNL     1       7.851   6.853  18.458  0.00  0.00    +0.000 N 
ATOM      5  H   UNL     1       8.671   8.355  20.109  0.00  0.00    +0.000 HD
ATOM      6  H   UNL     1       7.554   6.731  19.415  0.00  0.00    +0.000 HD
ENDROOT
BRANCH   1  12
ATOM      7  C   UNL     1      11.411  15.308  17.264  0.00  0.00    +0.000 C 
ATOM      8  C   UNL     1      10.885  14.036  17.792  0.00  0.00    +0.000 A 
ATOM      9  N   UNL     1      10.501  12.969  17.121  0.00  0.00    +0.000 NA
ATOM     10  C   UNL     1      10.099  12.099  18.102  0.00  0.00    +0.000 A 
ATOM     11  C   UNL     1       9.582  10.801  18.022  0.00  0.00    +0.000 A 
ATOM     12  C   UNL     1       9.253  10.131  19.209  0.00  0.00    +0.000 A 
ATOM     13  C   UNL     1       9.463  10.755  20.453  0.00  0.00    +0.000 A 
ATOM     14  C   UNL     1       9.970  12.062  20.552  0.00  0.00    +0.000 A 
ATOM     15  C   UNL     1      10.271  12.679  19.346  0.00  0.00    +0.000 A 
ATOM     16  O   UNL     1      10.775  13.935  19.155  0.00  0.00    +0.000 OA
ENDBRANCH   1  12
BRANCH   4  17
ATOM     17  C   UNL     1       7.147   6.037  17.470  0.00  0.00    +0.000 C 
ATOM     18  C   UNL     1       5.949   6.789  16.905  0.00  0.00    +0.000 C 
ATOM     19  C   UNL     1       4.835   6.483  17.904  0.00  0.00    +0.000 C 
ATOM     20  N   UNL     1       5.093   5.100  18.292  0.00  0.00    +0.000 N 
ATOM     21  C   UNL     1       6.492   4.736  18.011  0.00  0.00    +0.000 C 
BRANCH  20  22
ATOM     22  C   UNL     1       4.074   4.179  18.492  0.00  0.00    +0.000 A 
ATOM     23  C   UNL     1       3.843   3.079  17.640  0.00  0.00    +0.000 A 
ATOM     24  F   UNL     1       4.622   2.860  16.568  0.00  0.00    +0.000 F 
ATOM     25  C   UNL     1       2.789   2.176  17.827  0.00  0.00    +0.000 A 
ATOM     26  C   UNL     1       1.927   2.319  18.905  0.00  0.00    +0.000 A 
ATOM     27  C   UNL     1       2.134   3.367  19.793  0.00  0.00    +0.000 A 
ATOM     28  C   UNL     1       3.186   4.268  19.585  0.00  0.00    +0.000 A 
ATOM     29  F   UNL     1       3.334   5.239  20.504  0.00  0.00    +0.000 F 
ENDBRANCH  20  22
ENDBRANCH   4  17
TORSDOF 3
ENDMDL
MODEL 7
REMARK VINA RESULT:      -8.6      1.019      1.167
REMARK  Name = 
REMARK  4 active torsions:
REMARK  status: ('A' for Active; 'I' for Inactive)
REMARK    1  A    between atoms: C_1  and  C_2
REMARK    2  A    between atoms: C_6  and  N_7
REMARK    3  A    between atoms: N_10  and  C_11
REMARK    4  A    between atoms: N_14  and  C_15
REMARK                            x       y       z     vdW  Elec       q    Type
REMARK                         _______ _______ _______ _____ _____    ______ ____
ROOT
ATOM      1  N   UNL     1       8.339   9.804  17.582  0.00  0.00    +0.000 N 
ATOM      2  C   UNL     1       8.210   8.493  17.994  0.00  0.00    +0.000 C 
ATOM      3  O   UNL     1       8.758   7.972  18.956  0.00  0.00    +0.000 OA
ATOM      4  N   UNL     1       7.364   7.782  17.165  0.00  0.00    +0.000 N 
ATOM      5  H   UNL     1       7.941  10.039  16.687  0.00  0.00    +0.000 HD
ATOM      6  H   UNL     1       7.381   8.084  16.203  0.00  0.00    +0.000 HD
ENDROOT
BRANCH   1  12
ATOM      7  C   UNL     1      10.392  15.202  22.028  0.00  0.00    +0.000 C 
ATOM      8  C   UNL     1      10.102  14.121  21.068  0.00  0.00    +0.000 A 
ATOM      9  N   UNL     1       8.982  13.443  20.914  0.00  0.00    +0.000 NA
ATOM     10  C   UNL     1       9.274  12.568  19.900  0.00  0.00    +0.000 A 
ATOM     11  C   UNL     1       8.493  11.580  19.288  0.00  0.00    +0.000 A 
ATOM     12  C   UNL     1       9.056  10.820  18.252  0.00  0.00    +0.000 A 
ATOM     13  C   UNL     1      10.376  11.069  17.831  0.00  0.00    +0.000 A 
ATOM     14  C   UNL     1      11.179  12.047  18.442  0.00  0.00    +0.000 A 
ATOM     15  C   UNL     1      10.573  12.764  19.465  0.00  0.00    +0.000 A 
ATOM     16  O   UNL     1      11.118  13.765  20.219  0.00  0.00    +0.000 OA
ENDBRANCH   1  12
BRANCH   4  17
ATOM     17  C   UNL     1       7.213   6.343  17.371  0.00  0.00    +0.000 C 
ATOM     18  C   UNL     1       6.967   5.632  16.047  0.00  0.00    +0.000 C 
ATOM     19  C   UNL     1       5.454   5.731  15.868  0.00  0.00    +0.000 C 
ATOM     20  N   UNL     1       4.937   5.587  17.225  0.00  0.00    +0.000 N 
ATOM     21  C   UNL     1       5.983   5.905  18.213  0.00  0.00    +0.000 C 
BRANCH  20  22
ATOM     22  C   UNL     1       3.787   4.867  17.514  0.00  0.00    +0.000 A 
ATOM     23  C   UNL     1       2.594   5.461  17.974  0.00  0.00    +0.000 A 
ATOM     24  F   UNL     1       2.508   6.789  18.154  0.00  0.00    +0.000 F 
ATOM     25  C   UNL     1       1.449   4.722  18.301  0.00  0.00    +0.000 A 
ATOM     26  C   UNL     1       1.440   3.342  18.151  0.00  0.00    +0.000 A 
ATOM     27  C   UNL     1       2.580   2.714  17.668  0.00  0.00    +0.000 A 
ATOM     28  C   UNL     1       3.721   3.465  17.357  0.00  0.00    +0.000 A 
ATOM     29  F   UNL     1       4.774   2.785  16.871  0.00  0.00    +0.000 F 
ENDBRANCH  20  22
ENDBRANCH   4  17
TORSDOF 3
ENDMDL
MODEL 8
REMARK VINA RESULT:      -8.6      1.035      1.977
REMARK  Name = 
REMARK  4 active torsions:
REMARK  status: ('A' for Active; 'I' for Inactive)
REMARK    1  A    between atoms: C_1  and  C_2
REMARK    2  A    between atoms: C_6  and  N_7
REMARK    3  A    between atoms: N_10  and  C_11
REMARK    4  A    between atoms: N_14  and  C_15
REMARK                            x       y       z     vdW  Elec       q    Type
REMARK                         _______ _______ _______ _____ _____    ______ ____
ROOT
ATOM      1  N   UNL     1       8.341   9.821  17.584  0.00  0.00    +0.000 N 
ATOM      2  C   UNL     1       8.214   8.505  17.980  0.00  0.00    +0.000 C 
ATOM      3  O   UNL     1       8.764   7.973  18.935  0.00  0.00    +0.000 OA
ATOM      4  N   UNL     1       7.370   7.802  17.143  0.00  0.00    +0.000 N 
ATOM      5  H   UNL     1       7.942  10.065  16.692  0.00  0.00    +0.000 HD
ATOM      6  H   UNL     1       7.386   8.116  16.184  0.00  0.00    +0.000 HD
ENDROOT
BRANCH   1  12
ATOM      7  C   UNL     1      10.376  15.185  22.079  0.00  0.00    +0.000 C 
ATOM      8  C   UNL     1      10.090  14.111  21.110  0.00  0.00    +0.000 A 
ATOM      9  N   UNL     1       8.969  13.437  20.943  0.00  0.00    +0.000 NA
ATOM     10  C   UNL     1       9.267  12.567  19.926  0.00  0.00    +0.000 A 
ATOM     11  C   UNL     1       8.487  11.586  19.301  0.00  0.00    +0.000 A 
ATOM     12  C   UNL     1       9.056  10.830  18.266  0.00  0.00    +0.000 A 
ATOM     13  C   UNL     1      10.380  11.076  17.858  0.00  0.00    +0.000 A 
ATOM     14  C   UNL     1      11.181  12.048  18.481  0.00  0.00    +0.000 A 
ATOM     15  C   UNL     1      10.569  12.761  19.503  0.00  0.00    +0.000 A 
ATOM     16  O   UNL     1      11.112  13.756  20.267  0.00  0.00    +0.000 OA
ENDBRANCH   1  12
BRANCH   4  17
ATOM     17  C   UNL     1       7.223   6.360  17.331  0.00  0.00    +0.000 C 
ATOM     18  C   UNL     1       6.940   5.669  16.003  0.00  0.00    +0.000 C 
ATOM     19  C   UNL     1       5.423   5.772  15.866  0.00  0.00    +0.000 C 
ATOM     20  N   UNL     1       4.942   5.609  17.234  0.00  0.00    +0.000 N 
ATOM     21  C   UNL     1       6.014   5.911  18.198  0.00  0.00    +0.000 C 
BRANCH  20  22
ATOM     22  C   UNL     1       3.800   4.885  17.542  0.00  0.00    +0.000 A 
ATOM     23  C   UNL     1       3.696   3.489  17.370  0.00  0.00    +0.000 A 
ATOM     24  F   UNL     1       4.727   2.772  16.894  0.00  0.00    +0.000 F 
ATOM     25  C   UNL     1       2.525   2.770  17.647  0.00  0.00    +0.000 A 
ATOM     26  C   UNL     1       1.403   3.421  18.141  0.00  0.00    +0.000 A 
ATOM     27  C   UNL     1       1.468   4.791  18.360  0.00  0.00    +0.000 A 
ATOM     28  C   UNL     1       2.641   5.497  18.067  0.00  0.00    +0.000 A 
ATOM     29  F   UNL     1       2.630   6.816  18.332  0.00  0.00    +0.000 F 
ENDBRANCH  20  22
ENDBRANCH   4  17
TORSDOF 3
ENDMDL
MODEL 9
REMARK VINA RESULT:      -8.5      6.849      9.883
REMARK  Name = 
REMARK  4 active torsions:
REMARK  status: ('A' for Active; 'I' for Inactive)
REMARK    1  A    between atoms: C_1  and  C_2
REMARK    2  A    between atoms: C_6  and  N_7
REMARK    3  A    between atoms: N_10  and  C_11
REMARK    4  A    between atoms: N_14  and  C_15
REMARK                            x       y       z     vdW  Elec       q    Type
REMARK                         _______ _______ _______ _____ _____    ______ ____
ROOT
ATOM      1  N   UNL     1       2.314   7.735  18.954  0.00  0.00    +0.000 N 
ATOM      2  C   UNL     1       1.695   8.874  18.481  0.00  0.00    +0.000 C 
ATOM      3  O   UNL     1       1.748   9.315  17.341  0.00  0.00    +0.000 OA
ATOM      4  N   UNL     1       0.978   9.512  19.475  0.00  0.00    +0.000 N 
ATOM      5  H   UNL     1       2.295   7.590  19.951  0.00  0.00    +0.000 HD
ATOM      6  H   UNL     1       1.376   9.413  20.397  0.00  0.00    +0.000 HD
ENDROOT
BRANCH   1  12
ATOM      7  C   UNL     1       7.037   4.544  14.412  0.00  0.00    +0.000 C 
ATOM      8  C   UNL     1       6.027   5.063  15.353  0.00  0.00    +0.000 A 
ATOM      9  N   UNL     1       5.800   6.314  15.701  0.00  0.00    +0.000 NA
ATOM     10  C   UNL     1       4.768   6.215  16.599  0.00  0.00    +0.000 A 
ATOM     11  C   UNL     1       4.088   7.199  17.325  0.00  0.00    +0.000 A 
ATOM     12  C   UNL     1       3.051   6.808  18.185  0.00  0.00    +0.000 A 
ATOM     13  C   UNL     1       2.697   5.450  18.290  0.00  0.00    +0.000 A 
ATOM     14  C   UNL     1       3.377   4.447  17.579  0.00  0.00    +0.000 A 
ATOM     15  C   UNL     1       4.398   4.891  16.749  0.00  0.00    +0.000 A 
ATOM     16  O   UNL     1       5.210   4.137  15.950  0.00  0.00    +0.000 OA
ENDBRANCH   1  12
BRANCH   4  17
ATOM     17  C   UNL     1       0.366  10.808  19.188  0.00  0.00    +0.000 C 
ATOM     18  C   UNL     1       1.166  11.936  19.827  0.00  0.00    +0.000 C 
ATOM     19  C   UNL     1       0.597  12.016  21.242  0.00  0.00    +0.000 C 
ATOM     20  N   UNL     1      -0.824  11.740  21.056  0.00  0.00    +0.000 N 
ATOM     21  C   UNL     1      -1.051  11.033  19.783  0.00  0.00    +0.000 C 
BRANCH  20  22
ATOM     22  C   UNL     1      -1.813  12.409  21.762  0.00  0.00    +0.000 A 
ATOM     23  C   UNL     1      -2.412  13.605  21.315  0.00  0.00    +0.000 A 
ATOM     24  F   UNL     1      -2.049  14.166  20.150  0.00  0.00    +0.000 F 
ATOM     25  C   UNL     1      -3.383  14.296  22.053  0.00  0.00    +0.000 A 
ATOM     26  C   UNL     1      -3.823  13.798  23.271  0.00  0.00    +0.000 A 
ATOM     27  C   UNL     1      -3.288  12.603  23.738  0.00  0.00    +0.000 A 
ATOM     28  C   UNL     1      -2.310  11.931  22.994  0.00  0.00    +0.000 A 
ATOM     29  F   UNL     1      -1.863  10.770  23.503  0.00  0.00    +0.000 F 
ENDBRANCH  20  22
ENDBRANCH   4  17
TORSDOF 3
ENDMDL
