MODEL 1
REMARK VINA RESULT:      -9.7      0.000      0.000
REMARK  Name = 
REMARK  4 active torsions:
REMARK  status: ('A' for Active; 'I' for Inactive)
REMARK    1  A    between atoms: C_1  and  C_2
REMARK    2  A    between atoms: C_3  and  C_4
REMARK    3  A    between atoms: C_9  and  C_10
REMARK    4  A    between atoms: N_20  and  C_21
REMARK                            x       y       z     vdW  Elec       q    Type
REMARK                         _______ _______ _______ _____ _____    ______ ____
ROOT
ATOM      1  C   UNL     1       3.046   6.231  18.612  0.00  0.00    +0.000 C 
ATOM      2  O   UNL     1       2.512   5.359  19.297  0.00  0.00    +0.000 OA
ATOM      3  N   UNL     1       4.260   5.989  17.937  0.00  0.00    +0.000 N 
ATOM      4  C   UNL     1       4.698   4.601  17.777  0.00  0.00    +0.000 C 
ATOM      5  C   UNL     1       6.204   4.454  17.999  0.00  0.00    +0.000 C 
ATOM      6  C   UNL     1       7.029   5.431  17.146  0.00  0.00    +0.000 C 
ATOM      7  C   UNL     1       6.514   6.853  17.370  0.00  0.00    +0.000 C 
ATOM      8  C   UNL     1       5.008   6.982  17.163  0.00  0.00    +0.000 C 
ENDROOT
BRANCH   6   9
ATOM      9  C   UNL     1       7.063   5.047  15.696  0.00  0.00    +0.000 A 
ATOM     10  N   UNL     1       7.752   5.619  14.729  0.00  0.00    +0.000 NA
ATOM     11  N   UNL     1       7.438   4.984  13.549  0.00  0.00    +0.000 NA
ATOM     12  C   UNL     1       6.566   4.044  13.814  0.00  0.00    +0.000 A 
ATOM     13  N   UNL     1       5.966   3.185  12.979  0.00  0.00    +0.000 N 
ATOM     14  N   UNL     1       6.303   4.045  15.153  0.00  0.00    +0.000 N 
ATOM     15  H   UNL     1       6.345   3.139  12.036  0.00  0.00    +0.000 HD
ATOM     16  H   UNL     1       5.541   2.322  13.291  0.00  0.00    +0.000 HD
ATOM     17  H   UNL     1       5.657   3.439  15.631  0.00  0.00    +0.000 HD
ENDBRANCH   6   9
BRANCH   1  20
ATOM     18  C   UNL     1       1.316   7.855  20.855  0.00  0.00    +0.000 C 
ATOM     19  C   UNL     1       1.696   8.250  19.476  0.00  0.00    +0.000 A 
ATOM     20  C   UNL     1       2.435   7.563  18.515  0.00  0.00    +0.000 A 
ATOM     21  N   UNL     1       2.481   8.319  17.379  0.00  0.00    +0.000 NA
ATOM     22  N   UNL     1       1.937   9.490  17.629  0.00  0.00    +0.000 NA
ATOM     23  N   UNL     1       1.456   9.496  18.897  0.00  0.00    +0.000 N 
BRANCH  23  24
ATOM     24  C   UNL     1       0.779  10.643  19.403  0.00  0.00    +0.000 A 
ATOM     25  C   UNL     1       1.445  11.504  20.299  0.00  0.00    +0.000 A 
ATOM     26  C   UNL     1       0.790  12.616  20.821  0.00  0.00    +0.000 A 
ATOM     27  C   UNL     1      -0.525  12.869  20.466  0.00  0.00    +0.000 A 
ATOM     28  C   UNL     1      -1.198  12.018  19.573  0.00  0.00    +0.000 A 
ATOM     29  C   UNL     1      -2.525  12.294  19.218  0.00  0.00    +0.000 A 
ATOM     30  C   UNL     1      -3.192  11.470  18.325  0.00  0.00    +0.000 A 
ATOM     31  C   UNL     1      -2.501  10.402  17.801  0.00  0.00    +0.000 A 
ATOM     32  N   UNL     1      -1.222  10.124  18.118  0.00  0.00    +0.000 NA
ATOM     33  C   UNL     1      -0.559  10.882  19.016  0.00  0.00    +0.000 A 
ENDBRANCH  23  24
ENDBRANCH   1  20
TORSDOF 3
ENDMDL
MODEL 2
REMARK VINA RESULT:      -9.2      1.172      2.091
REMARK  Name = 
REMARK  4 active torsions:
REMARK  status: ('A' for Active; 'I' for Inactive)
REMARK    1  A    between atoms: C_1  and  C_2
REMARK    2  A    between atoms: C_3  and  C_4
REMARK    3  A    between atoms: C_9  and  C_10
REMARK    4  A    between atoms: N_20  and  C_21
REMARK                            x       y       z     vdW  Elec       q    Type
REMARK                         _______ _______ _______ _____ _____    ______ ____
ROOT
ATOM      1  C   UNL     1       2.983   6.276  18.663  0.00  0.00    +0.000 C 
ATOM      2  O   UNL     1       2.457   5.408  19.358  0.00  0.00    +0.000 OA
ATOM      3  N   UNL     1       4.206   6.039  18.000  0.00  0.00    +0.000 N 
ATOM      4  C   UNL     1       4.665   4.656  17.867  0.00  0.00    +0.000 C 
ATOM      5  C   UNL     1       6.171   4.534  18.103  0.00  0.00    +0.000 C 
ATOM      6  C   UNL     1       6.988   5.507  17.240  0.00  0.00    +0.000 C 
ATOM      7  C   UNL     1       6.451   6.926  17.436  0.00  0.00    +0.000 C 
ATOM      8  C   UNL     1       4.945   7.030  17.215  0.00  0.00    +0.000 C 
ENDROOT
BRANCH   6   9
ATOM      9  C   UNL     1       7.038   5.099  15.797  0.00  0.00    +0.000 A 
ATOM     10  N   UNL     1       7.720   5.670  14.824  0.00  0.00    +0.000 NA
ATOM     11  N   UNL     1       7.427   5.008  13.653  0.00  0.00    +0.000 NA
ATOM     12  C   UNL     1       6.574   4.053  13.930  0.00  0.00    +0.000 A 
ATOM     13  N   UNL     1       5.998   3.167  13.107  0.00  0.00    +0.000 N 
ATOM     14  N   UNL     1       6.304   4.072  15.267  0.00  0.00    +0.000 N 
ATOM     15  H   UNL     1       6.383   3.113  12.167  0.00  0.00    +0.000 HD
ATOM     16  H   UNL     1       5.591   2.300  13.432  0.00  0.00    +0.000 HD
ATOM     17  H   UNL     1       5.669   3.460  15.753  0.00  0.00    +0.000 HD
ENDBRANCH   6   9
BRANCH   1  20
ATOM     18  C   UNL     1       1.412   8.015  20.936  0.00  0.00    +0.000 C 
ATOM     19  C   UNL     1       1.683   8.333  19.512  0.00  0.00    +0.000 A 
ATOM     20  C   UNL     1       2.355   7.598  18.538  0.00  0.00    +0.000 A 
ATOM     21  N   UNL     1       2.308   8.288  17.361  0.00  0.00    +0.000 NA
ATOM     22  N   UNL     1       1.773   9.469  17.586  0.00  0.00    +0.000 NA
ATOM     23  N   UNL     1       1.389   9.544  18.885  0.00  0.00    +0.000 N 
BRANCH  23  24
ATOM     24  C   UNL     1       0.741  10.713  19.377  0.00  0.00    +0.000 A 
ATOM     25  C   UNL     1      -0.446  10.587  20.127  0.00  0.00    +0.000 A 
ATOM     26  C   UNL     1      -1.104  11.720  20.596  0.00  0.00    +0.000 A 
ATOM     27  C   UNL     1      -0.594  12.977  20.314  0.00  0.00    +0.000 A 
ATOM     28  C   UNL     1       0.589  13.115  19.567  0.00  0.00    +0.000 A 
ATOM     29  C   UNL     1       1.095  14.394  19.298  0.00  0.00    +0.000 A 
ATOM     30  C   UNL     1       2.270  14.540  18.578  0.00  0.00    +0.000 A 
ATOM     31  C   UNL     1       2.912  13.396  18.163  0.00  0.00    +0.000 A 
ATOM     32  N   UNL     1       2.452  12.157  18.419  0.00  0.00    +0.000 NA
ATOM     33  C   UNL     1       1.289  11.982  19.081  0.00  0.00    +0.000 A 
ENDBRANCH  23  24
ENDBRANCH   1  20
TORSDOF 3
ENDMDL
MODEL 3
REMARK VINA RESULT:      -8.6      1.285      1.633
REMARK  Name = 
REMARK  4 active torsions:
REMARK  status: ('A' for Active; 'I' for Inactive)
REMARK    1  A    between atoms: C_1  and  C_2
REMARK    2  A    between atoms: C_3  and  C_4
REMARK    3  A    between atoms: C_9  and  C_10
REMARK    4  A    between atoms: N_20  and  C_21
REMARK                            x       y       z     vdW  Elec       q    Type
REMARK                         _______ _______ _______ _____ _____    ______ ____
ROOT
ATOM      1  C   UNL     1       2.314   5.592  19.426  0.00  0.00    +0.000 C 
ATOM      2  O   UNL     1       1.523   4.675  19.647  0.00  0.00    +0.000 OA
ATOM      3  N   UNL     1       3.590   5.342  18.881  0.00  0.00    +0.000 N 
ATOM      4  C   UNL     1       3.837   4.036  18.265  0.00  0.00    +0.000 C 
ATOM      5  C   UNL     1       5.223   3.498  18.618  0.00  0.00    +0.000 C 
ATOM      6  C   UNL     1       6.345   4.505  18.322  0.00  0.00    +0.000 C 
ATOM      7  C   UNL     1       6.017   5.836  18.999  0.00  0.00    +0.000 C 
ATOM      8  C   UNL     1       4.624   6.354  18.653  0.00  0.00    +0.000 C 
ENDROOT
BRANCH   6   9
ATOM      9  C   UNL     1       6.620   4.651  16.855  0.00  0.00    +0.000 A 
ATOM     10  N   UNL     1       7.220   5.654  16.245  0.00  0.00    +0.000 NA
ATOM     11  N   UNL     1       7.203   5.403  14.892  0.00  0.00    +0.000 NA
ATOM     12  C   UNL     1       6.594   4.259  14.700  0.00  0.00    +0.000 A 
ATOM     13  N   UNL     1       6.330   3.623  13.551  0.00  0.00    +0.000 N 
ATOM     14  N   UNL     1       6.212   3.750  15.907  0.00  0.00    +0.000 N 
ATOM     15  H   UNL     1       6.795   3.984  12.723  0.00  0.00    +0.000 HD
ATOM     16  H   UNL     1       6.124   2.633  13.506  0.00  0.00    +0.000 HD
ATOM     17  H   UNL     1       5.711   2.890  16.057  0.00  0.00    +0.000 HD
ENDBRANCH   6   9
BRANCH   1  20
ATOM     18  C   UNL     1       2.009   8.166  17.440  0.00  0.00    +0.000 C 
ATOM     19  C   UNL     1       1.820   8.069  18.908  0.00  0.00    +0.000 A 
ATOM     20  C   UNL     1       1.946   6.974  19.761  0.00  0.00    +0.000 A 
ATOM     21  N   UNL     1       1.715   7.390  21.041  0.00  0.00    +0.000 NA
ATOM     22  N   UNL     1       1.314   8.643  21.011  0.00  0.00    +0.000 NA
ATOM     23  N   UNL     1       1.352   9.092  19.732  0.00  0.00    +0.000 N 
BRANCH  23  24
ATOM     24  C   UNL     1       1.002  10.441  19.433  0.00  0.00    +0.000 A 
ATOM     25  C   UNL     1       1.911  11.477  19.731  0.00  0.00    +0.000 A 
ATOM     26  C   UNL     1       1.576  12.802  19.466  0.00  0.00    +0.000 A 
ATOM     27  C   UNL     1       0.339  13.102  18.918  0.00  0.00    +0.000 A 
ATOM     28  C   UNL     1      -0.574  12.077  18.616  0.00  0.00    +0.000 A 
ATOM     29  C   UNL     1      -1.817  12.398  18.054  0.00  0.00    +0.000 A 
ATOM     30  C   UNL     1      -2.718  11.393  17.738  0.00  0.00    +0.000 A 
ATOM     31  C   UNL     1      -2.336  10.093  17.979  0.00  0.00    +0.000 A 
ATOM     32  N   UNL     1      -1.144   9.760  18.507  0.00  0.00    +0.000 NA
ATOM     33  C   UNL     1      -0.262  10.717  18.865  0.00  0.00    +0.000 A 
ENDBRANCH  23  24
ENDBRANCH   1  20
TORSDOF 3
ENDMDL
MODEL 4
REMARK VINA RESULT:      -8.4      6.280      7.726
REMARK  Name = 
REMARK  4 active torsions:
REMARK  status: ('A' for Active; 'I' for Inactive)
REMARK    1  A    between atoms: C_1  and  C_2
REMARK    2  A    between atoms: C_3  and  C_4
REMARK    3  A    between atoms: C_9  and  C_10
REMARK    4  A    between atoms: N_20  and  C_21
REMARK                            x       y       z     vdW  Elec       q    Type
REMARK                         _______ _______ _______ _____ _____    ______ ____
ROOT
ATOM      1  C   UNL     1       1.895  14.206  21.232  0.00  0.00    +0.000 C 
ATOM      2  O   UNL     1       1.708  14.751  22.319  0.00  0.00    +0.000 OA
ATOM      3  N   UNL     1       2.954  14.602  20.388  0.00  0.00    +0.000 N 
ATOM      4  C   UNL     1       4.025  15.421  20.959  0.00  0.00    +0.000 C 
ATOM      5  C   UNL     1       4.464  16.527  20.000  0.00  0.00    +0.000 C 
ATOM      6  C   UNL     1       4.816  15.996  18.602  0.00  0.00    +0.000 C 
ATOM      7  C   UNL     1       3.651  15.157  18.075  0.00  0.00    +0.000 C 
ATOM      8  C   UNL     1       3.211  14.068  19.049  0.00  0.00    +0.000 C 
ENDROOT
BRANCH   6   9
ATOM      9  C   UNL     1       6.122  15.259  18.575  0.00  0.00    +0.000 A 
ATOM     10  N   UNL     1       7.156  15.425  19.375  0.00  0.00    +0.000 NA
ATOM     11  N   UNL     1       8.162  14.585  18.954  0.00  0.00    +0.000 NA
ATOM     12  C   UNL     1       7.728  13.926  17.908  0.00  0.00    +0.000 A 
ATOM     13  N   UNL     1       8.361  13.015  17.158  0.00  0.00    +0.000 N 
ATOM     14  N   UNL     1       6.449  14.316  17.636  0.00  0.00    +0.000 N 
ATOM     15  H   UNL     1       9.239  12.661  17.530  0.00  0.00    +0.000 HD
ATOM     16  H   UNL     1       7.873  12.356  16.566  0.00  0.00    +0.000 HD
ATOM     17  H   UNL     1       5.876  13.985  16.877  0.00  0.00    +0.000 HD
ENDBRANCH   6   9
BRANCH   1  20
ATOM     18  C   UNL     1      -0.352  14.312  18.865  0.00  0.00    +0.000 C 
ATOM     19  C   UNL     1       0.029  13.198  19.768  0.00  0.00    +0.000 A 
ATOM     20  C   UNL     1       0.987  13.144  20.777  0.00  0.00    +0.000 A 
ATOM     21  N   UNL     1       0.938  11.911  21.361  0.00  0.00    +0.000 NA
ATOM     22  N   UNL     1       0.106  11.154  20.678  0.00  0.00    +0.000 NA
ATOM     23  N   UNL     1      -0.461  11.894  19.692  0.00  0.00    +0.000 N 
BRANCH  23  24
ATOM     24  C   UNL     1      -1.436  11.314  18.829  0.00  0.00    +0.000 A 
ATOM     25  C   UNL     1      -1.028  10.410  17.827  0.00  0.00    +0.000 A 
ATOM     26  C   UNL     1      -1.964   9.853  16.961  0.00  0.00    +0.000 A 
ATOM     27  C   UNL     1      -3.301  10.197  17.080  0.00  0.00    +0.000 A 
ATOM     28  C   UNL     1      -3.719  11.097  18.076  0.00  0.00    +0.000 A 
ATOM     29  C   UNL     1      -5.076  11.427  18.187  0.00  0.00    +0.000 A 
ATOM     30  C   UNL     1      -5.501  12.300  19.177  0.00  0.00    +0.000 A 
ATOM     31  C   UNL     1      -4.552  12.802  20.037  0.00  0.00    +0.000 A 
ATOM     32  N   UNL     1      -3.245  12.489  19.958  0.00  0.00    +0.000 NA
ATOM     33  C   UNL     1      -2.793  11.677  18.979  0.00  0.00    +0.000 A 
ENDBRANCH  23  24
ENDBRANCH   1  20
TORSDOF 3
ENDMDL
MODEL 5
REMARK VINA RESULT:      -8.2      3.192      9.138
REMARK  Name = 
REMARK  4 active torsions:
REMARK  status: ('A' for Active; 'I' for Inactive)
REMARK    1  A    between atoms: C_1  and  C_2
REMARK    2  A    between atoms: C_3  and  C_4
REMARK    3  A    between atoms: C_9  and  C_10
REMARK    4  A    between atoms: N_20  and  C_21
REMARK                            x       y       z     vdW  Elec       q    Type
REMARK                         _______ _______ _______ _____ _____    ______ ____
ROOT
ATOM      1  C   UNL     1       0.486   9.923  19.583  0.00  0.00    +0.000 C 
ATOM      2  O   UNL     1      -0.525   9.405  20.059  0.00  0.00    +0.000 OA
ATOM      3  N   UNL     1       0.741  11.302  19.736  0.00  0.00    +0.000 N 
ATOM      4  C   UNL     1      -0.019  12.040  20.746  0.00  0.00    +0.000 C 
ATOM      5  C   UNL     1      -0.446  13.417  20.238  0.00  0.00    +0.000 C 
ATOM      6  C   UNL     1       0.728  14.234  19.678  0.00  0.00    +0.000 C 
ATOM      7  C   UNL     1       1.468  13.399  18.631  0.00  0.00    +0.000 C 
ATOM      8  C   UNL     1       1.872  12.021  19.144  0.00  0.00    +0.000 C 
ENDROOT
BRANCH   6   9
ATOM      9  C   UNL     1       1.636  14.755  20.752  0.00  0.00    +0.000 A 
ATOM     10  N   UNL     1       1.619  14.454  22.035  0.00  0.00    +0.000 NA
ATOM     11  N   UNL     1       2.585  15.207  22.664  0.00  0.00    +0.000 NA
ATOM     12  C   UNL     1       3.170  15.952  21.759  0.00  0.00    +0.000 A 
ATOM     13  N   UNL     1       4.153  16.850  21.907  0.00  0.00    +0.000 N 
ATOM     14  N   UNL     1       2.607  15.698  20.542  0.00  0.00    +0.000 N 
ATOM     15  H   UNL     1       4.626  16.850  22.807  0.00  0.00    +0.000 HD
ATOM     16  H   UNL     1       4.735  17.159  21.139  0.00  0.00    +0.000 HD
ATOM     17  H   UNL     1       2.851  16.141  19.671  0.00  0.00    +0.000 HD
ENDBRANCH   6   9
BRANCH   1  20
ATOM     18  C   UNL     1       2.146   7.276  20.531  0.00  0.00    +0.000 C 
ATOM     19  C   UNL     1       2.142   7.981  19.225  0.00  0.00    +0.000 A 
ATOM     20  C   UNL     1       1.434   9.108  18.813  0.00  0.00    +0.000 A 
ATOM     21  N   UNL     1       1.797   9.406  17.531  0.00  0.00    +0.000 NA
ATOM     22  N   UNL     1       2.578   8.448  17.080  0.00  0.00    +0.000 NA
ATOM     23  N   UNL     1       2.804   7.553  18.074  0.00  0.00    +0.000 N 
BRANCH  23  24
ATOM     24  C   UNL     1       3.657   6.434  17.853  0.00  0.00    +0.000 A 
ATOM     25  C   UNL     1       5.028   6.643  17.601  0.00  0.00    +0.000 A 
ATOM     26  C   UNL     1       5.871   5.562  17.360  0.00  0.00    +0.000 A 
ATOM     27  C   UNL     1       5.356   4.276  17.359  0.00  0.00    +0.000 A 
ATOM     28  C   UNL     1       3.990   4.055  17.610  0.00  0.00    +0.000 A 
ATOM     29  C   UNL     1       3.488   2.747  17.612  0.00  0.00    +0.000 A 
ATOM     30  C   UNL     1       2.147   2.517  17.875  0.00  0.00    +0.000 A 
ATOM     31  C   UNL     1       1.352   3.608  18.145  0.00  0.00    +0.000 A 
ATOM     32  N   UNL     1       1.815   4.872  18.160  0.00  0.00    +0.000 NA
ATOM     33  C   UNL     1       3.106   5.132  17.866  0.00  0.00    +0.000 A 
ENDBRANCH  23  24
ENDBRANCH   1  20
TORSDOF 3
ENDMDL
MODEL 6
REMARK VINA RESULT:      -8.1      3.780      5.141
REMARK  Name = 
REMARK  4 active torsions:
REMARK  status: ('A' for Active; 'I' for Inactive)
REMARK    1  A    between atoms: C_1  and  C_2
REMARK    2  A    between atoms: C_3  and  C_4
REMARK    3  A    between atoms: C_9  and  C_10
REMARK    4  A    between atoms: N_20  and  C_21
REMARK                            x       y       z     vdW  Elec       q    Type
REMARK                         _______ _______ _______ _____ _____    ______ ____
ROOT
ATOM      1  C   UNL     1       1.985   7.907  19.276  0.00  0.00    +0.000 C 
ATOM      2  O   UNL     1       2.393   8.396  18.223  0.00  0.00    +0.000 OA
ATOM      3  N   UNL     1       1.941   6.509  19.464  0.00  0.00    +0.000 N 
ATOM      4  C   UNL     1       2.697   5.662  18.540  0.00  0.00    +0.000 C 
ATOM      5  C   UNL     1       1.913   4.409  18.151  0.00  0.00    +0.000 C 
ATOM      6  C   UNL     1       1.396   3.629  19.370  0.00  0.00    +0.000 C 
ATOM      7  C   UNL     1       0.617   4.579  20.281  0.00  0.00    +0.000 C 
ATOM      8  C   UNL     1       1.403   5.834  20.647  0.00  0.00    +0.000 C 
ENDROOT
BRANCH   6   9
ATOM      9  C   UNL     1       2.486   2.895  20.093  0.00  0.00    +0.000 A 
ATOM     10  N   UNL     1       2.659   2.791  21.395  0.00  0.00    +0.000 NA
ATOM     11  N   UNL     1       3.817   2.081  21.617  0.00  0.00    +0.000 NA
ATOM     12  C   UNL     1       4.329   1.768  20.453  0.00  0.00    +0.000 A 
ATOM     13  N   UNL     1       5.455   1.096  20.176  0.00  0.00    +0.000 N 
ATOM     14  N   UNL     1       3.524   2.257  19.466  0.00  0.00    +0.000 N 
ATOM     15  H   UNL     1       5.899   0.624  20.959  0.00  0.00    +0.000 HD
ATOM     16  H   UNL     1       5.624   0.652  19.282  0.00  0.00    +0.000 HD
ATOM     17  H   UNL     1       3.684   2.177  18.475  0.00  0.00    +0.000 HD
ENDBRANCH   6   9
BRANCH   1  20
ATOM     18  C   UNL     1      -0.045  10.457  19.083  0.00  0.00    +0.000 C 
ATOM     19  C   UNL     1       0.637   9.870  20.263  0.00  0.00    +0.000 A 
ATOM     20  C   UNL     1       1.502   8.781  20.353  0.00  0.00    +0.000 A 
ATOM     21  N   UNL     1       1.907   8.653  21.650  0.00  0.00    +0.000 NA
ATOM     22  N   UNL     1       1.233   9.509  22.389  0.00  0.00    +0.000 NA
ATOM     23  N   UNL     1       0.440  10.261  21.587  0.00  0.00    +0.000 N 
BRANCH  23  24
ATOM     24  C   UNL     1      -0.368  11.295  22.142  0.00  0.00    +0.000 A 
ATOM     25  C   UNL     1      -1.569  10.962  22.801  0.00  0.00    +0.000 A 
ATOM     26  C   UNL     1      -2.381  11.961  23.328  0.00  0.00    +0.000 A 
ATOM     27  C   UNL     1      -2.011  13.290  23.194  0.00  0.00    +0.000 A 
ATOM     28  C   UNL     1      -0.815  13.634  22.540  0.00  0.00    +0.000 A 
ATOM     29  C   UNL     1      -0.452  14.982  22.422  0.00  0.00    +0.000 A 
ATOM     30  C   UNL     1       0.734  15.331  21.794  0.00  0.00    +0.000 A 
ATOM     31  C   UNL     1       1.528  14.313  21.318  0.00  0.00    +0.000 A 
ATOM     32  N   UNL     1       1.206  13.011  21.431  0.00  0.00    +0.000 NA
ATOM     33  C   UNL     1       0.039  12.641  21.999  0.00  0.00    +0.000 A 
ENDBRANCH  23  24
ENDBRANCH   1  20
TORSDOF 3
ENDMDL
MODEL 7
REMARK VINA RESULT:      -8.1      3.093      9.131
REMARK  Name = 
REMARK  4 active torsions:
REMARK  status: ('A' for Active; 'I' for Inactive)
REMARK    1  A    between atoms: C_1  and  C_2
REMARK    2  A    between atoms: C_3  and  C_4
REMARK    3  A    between atoms: C_9  and  C_10
REMARK    4  A    between atoms: N_20  and  C_21
REMARK                            x       y       z     vdW  Elec       q    Type
REMARK                         _______ _______ _______ _____ _____    ______ ____
ROOT
ATOM      1  C   UNL     1       0.545  10.087  19.722  0.00  0.00    +0.000 C 
ATOM      2  O   UNL     1      -0.532   9.730  20.199  0.00  0.00    +0.000 OA
ATOM      3  N   UNL     1       1.022  11.402  19.898  0.00  0.00    +0.000 N 
ATOM      4  C   UNL     1       0.400  12.232  20.931  0.00  0.00    +0.000 C 
ATOM      5  C   UNL     1       0.198  13.671  20.455  0.00  0.00    +0.000 C 
ATOM      6  C   UNL     1       1.485  14.298  19.897  0.00  0.00    +0.000 C 
ATOM      7  C   UNL     1       2.070  13.377  18.826  0.00  0.00    +0.000 C 
ATOM      8  C   UNL     1       2.249  11.940  19.307  0.00  0.00    +0.000 C 
ENDROOT
BRANCH   6   9
ATOM      9  C   UNL     1       2.475  14.642  20.971  0.00  0.00    +0.000 A 
ATOM     10  N   UNL     1       2.240  14.809  22.257  0.00  0.00    +0.000 NA
ATOM     11  N   UNL     1       3.421  15.175  22.863  0.00  0.00    +0.000 NA
ATOM     12  C   UNL     1       4.349  15.228  21.940  0.00  0.00    +0.000 A 
ATOM     13  N   UNL     1       5.643  15.554  22.059  0.00  0.00    +0.000 N 
ATOM     14  N   UNL     1       3.800  14.898  20.736  0.00  0.00    +0.000 N 
ATOM     15  H   UNL     1       6.003  15.618  23.007  0.00  0.00    +0.000 HD
ATOM     16  H   UNL     1       6.340  15.293  21.374  0.00  0.00    +0.000 HD
ATOM     17  H   UNL     1       4.280  14.872  19.851  0.00  0.00    +0.000 HD
ENDBRANCH   6   9
BRANCH   1  20
ATOM     18  C   UNL     1       1.738   7.174  20.589  0.00  0.00    +0.000 C 
ATOM     19  C   UNL     1       1.850   7.904  19.302  0.00  0.00    +0.000 A 
ATOM     20  C   UNL     1       1.342   9.145  18.924  0.00  0.00    +0.000 A 
ATOM     21  N   UNL     1       1.748   9.413  17.649  0.00  0.00    +0.000 NA
ATOM     22  N   UNL     1       2.356   8.349  17.168  0.00  0.00    +0.000 NA
ATOM     23  N   UNL     1       2.429   7.403  18.136  0.00  0.00    +0.000 N 
BRANCH  23  24
ATOM     24  C   UNL     1       3.081   6.162  17.880  0.00  0.00    +0.000 A 
ATOM     25  C   UNL     1       2.334   4.966  17.902  0.00  0.00    +0.000 A 
ATOM     26  C   UNL     1       2.959   3.744  17.677  0.00  0.00    +0.000 A 
ATOM     27  C   UNL     1       4.324   3.703  17.441  0.00  0.00    +0.000 A 
ATOM     28  C   UNL     1       5.079   4.888  17.416  0.00  0.00    +0.000 A 
ATOM     29  C   UNL     1       6.457   4.828  17.167  0.00  0.00    +0.000 A 
ATOM     30  C   UNL     1       7.206   5.993  17.123  0.00  0.00    +0.000 A 
ATOM     31  C   UNL     1       6.547   7.186  17.314  0.00  0.00    +0.000 A 
ATOM     32  N   UNL     1       5.223   7.269  17.542  0.00  0.00    +0.000 NA
ATOM     33  C   UNL     1       4.473   6.151  17.633  0.00  0.00    +0.000 A 
ENDBRANCH  23  24
ENDBRANCH   1  20
TORSDOF 3
ENDMDL
MODEL 8
REMARK VINA RESULT:      -8.1      2.543      9.458
REMARK  Name = 
REMARK  4 active torsions:
REMARK  status: ('A' for Active; 'I' for Inactive)
REMARK    1  A    between atoms: C_1  and  C_2
REMARK    2  A    between atoms: C_3  and  C_4
REMARK    3  A    between atoms: C_9  and  C_10
REMARK    4  A    between atoms: N_20  and  C_21
REMARK                            x       y       z     vdW  Elec       q    Type
REMARK                         _______ _______ _______ _____ _____    ______ ____
ROOT
ATOM      1  C   UNL     1       1.115   9.169  20.745  0.00  0.00    +0.000 C 
ATOM      2  O   UNL     1       1.250   8.884  21.935  0.00  0.00    +0.000 OA
ATOM      3  N   UNL     1       0.317  10.259  20.341  0.00  0.00    +0.000 N 
ATOM      4  C   UNL     1      -0.067  11.248  21.350  0.00  0.00    +0.000 C 
ATOM      5  C   UNL     1      -1.520  11.693  21.182  0.00  0.00    +0.000 C 
ATOM      6  C   UNL     1      -1.836  12.162  19.754  0.00  0.00    +0.000 C 
ATOM      7  C   UNL     1      -1.411  11.078  18.763  0.00  0.00    +0.000 C 
ATOM      8  C   UNL     1       0.035  10.630  18.952  0.00  0.00    +0.000 C 
ENDROOT
BRANCH   6   9
ATOM      9  C   UNL     1      -1.241  13.502  19.439  0.00  0.00    +0.000 A 
ATOM     10  N   UNL     1      -0.287  13.775  18.572  0.00  0.00    +0.000 NA
ATOM     11  N   UNL     1      -0.009  15.121  18.651  0.00  0.00    +0.000 NA
ATOM     12  C   UNL     1      -0.791  15.642  19.563  0.00  0.00    +0.000 A 
ATOM     13  N   UNL     1      -0.864  16.909  19.992  0.00  0.00    +0.000 N 
ATOM     14  N   UNL     1      -1.585  14.662  20.082  0.00  0.00    +0.000 N 
ATOM     15  H   UNL     1      -0.365  17.599  19.436  0.00  0.00    +0.000 HD
ATOM     16  H   UNL     1      -1.673  17.281  20.473  0.00  0.00    +0.000 HD
ATOM     17  H   UNL     1      -2.270  14.777  20.811  0.00  0.00    +0.000 HD
ENDBRANCH   6   9
BRANCH   1  20
ATOM     18  C   UNL     1       1.836   5.985  20.825  0.00  0.00    +0.000 C 
ATOM     19  C   UNL     1       2.071   6.989  19.757  0.00  0.00    +0.000 A 
ATOM     20  C   UNL     1       1.764   8.347  19.715  0.00  0.00    +0.000 A 
ATOM     21  N   UNL     1       2.219   8.860  18.535  0.00  0.00    +0.000 NA
ATOM     22  N   UNL     1       2.659   7.871  17.786  0.00  0.00    +0.000 NA
ATOM     23  N   UNL     1       2.577   6.713  18.486  0.00  0.00    +0.000 N 
BRANCH  23  24
ATOM     24  C   UNL     1       3.032   5.492  17.911  0.00  0.00    +0.000 A 
ATOM     25  C   UNL     1       2.152   4.393  17.825  0.00  0.00    +0.000 A 
ATOM     26  C   UNL     1       2.586   3.186  17.287  0.00  0.00    +0.000 A 
ATOM     27  C   UNL     1       3.893   3.062  16.843  0.00  0.00    +0.000 A 
ATOM     28  C   UNL     1       4.779   4.150  16.923  0.00  0.00    +0.000 A 
ATOM     29  C   UNL     1       6.095   4.009  16.462  0.00  0.00    +0.000 A 
ATOM     30  C   UNL     1       6.971   5.082  16.520  0.00  0.00    +0.000 A 
ATOM     31  C   UNL     1       6.494   6.270  17.025  0.00  0.00    +0.000 A 
ATOM     32  N   UNL     1       5.231   6.433  17.462  0.00  0.00    +0.000 NA
ATOM     33  C   UNL     1       4.367   5.396  17.458  0.00  0.00    +0.000 A 
ENDBRANCH  23  24
ENDBRANCH   1  20
TORSDOF 3
ENDMDL
MODEL 9
REMARK VINA RESULT:      -8.1      1.891      2.389
REMARK  Name = 
REMARK  4 active torsions:
REMARK  status: ('A' for Active; 'I' for Inactive)
REMARK    1  A    between atoms: C_1  and  C_2
REMARK    2  A    between atoms: C_3  and  C_4
REMARK    3  A    between atoms: C_9  and  C_10
REMARK    4  A    between atoms: N_20  and  C_21
REMARK                            x       y       z     vdW  Elec       q    Type
REMARK                         _______ _______ _______ _____ _____    ______ ____
ROOT
ATOM      1  C   UNL     1       2.232   5.547  19.410  0.00  0.00    +0.000 C 
ATOM      2  O   UNL     1       1.380   4.665  19.508  0.00  0.00    +0.000 OA
ATOM      3  N   UNL     1       3.511   5.272  18.881  0.00  0.00    +0.000 N 
ATOM      4  C   UNL     1       3.699   4.025  18.138  0.00  0.00    +0.000 C 
ATOM      5  C   UNL     1       5.036   3.363  18.473  0.00  0.00    +0.000 C 
ATOM      6  C   UNL     1       6.227   4.320  18.320  0.00  0.00    +0.000 C 
ATOM      7  C   UNL     1       5.957   5.592  19.125  0.00  0.00    +0.000 C 
ATOM      8  C   UNL     1       4.612   6.233  18.794  0.00  0.00    +0.000 C 
ENDROOT
BRANCH   6   9
ATOM      9  C   UNL     1       6.565   4.601  16.886  0.00  0.00    +0.000 A 
ATOM     10  N   UNL     1       7.149   5.674  16.392  0.00  0.00    +0.000 NA
ATOM     11  N   UNL     1       7.208   5.538  15.024  0.00  0.00    +0.000 NA
ATOM     12  C   UNL     1       6.658   4.391  14.708  0.00  0.00    +0.000 A 
ATOM     13  N   UNL     1       6.476   3.845  13.499  0.00  0.00    +0.000 N 
ATOM     14  N   UNL     1       6.242   3.767  15.848  0.00  0.00    +0.000 N 
ATOM     15  H   UNL     1       6.965   4.292  12.727  0.00  0.00    +0.000 HD
ATOM     16  H   UNL     1       6.316   2.855  13.362  0.00  0.00    +0.000 HD
ATOM     17  H   UNL     1       5.772   2.879  15.900  0.00  0.00    +0.000 HD
ENDBRANCH   6   9
BRANCH   1  20
ATOM     18  C   UNL     1       1.836   8.273  17.657  0.00  0.00    +0.000 C 
ATOM     19  C   UNL     1       1.773   8.067  19.126  0.00  0.00    +0.000 A 
ATOM     20  C   UNL     1       1.938   6.907  19.880  0.00  0.00    +0.000 A 
ATOM     21  N   UNL     1       1.833   7.229  21.202  0.00  0.00    +0.000 NA
ATOM     22  N   UNL     1       1.470   8.490  21.302  0.00  0.00    +0.000 NA
ATOM     23  N   UNL     1       1.410   9.035  20.062  0.00  0.00    +0.000 N 
BRANCH  23  24
ATOM     24  C   UNL     1       1.077  10.410  19.897  0.00  0.00    +0.000 A 
ATOM     25  C   UNL     1       1.566  11.115  18.778  0.00  0.00    +0.000 A 
ATOM     26  C   UNL     1       1.269  12.464  18.613  0.00  0.00    +0.000 A 
ATOM     27  C   UNL     1       0.498  13.119  19.560  0.00  0.00    +0.000 A 
ATOM     28  C   UNL     1       0.005  12.427  20.680  0.00  0.00    +0.000 A 
ATOM     29  C   UNL     1      -0.780  13.104  21.624  0.00  0.00    +0.000 A 
ATOM     30  C   UNL     1      -1.285  12.426  22.722  0.00  0.00    +0.000 A 
ATOM     31  C   UNL     1      -1.001  11.084  22.831  0.00  0.00    +0.000 A 
ATOM     32  N   UNL     1      -0.260  10.410  21.932  0.00  0.00    +0.000 NA
ATOM     33  C   UNL     1       0.281  11.051  20.874  0.00  0.00    +0.000 A 
ENDBRANCH  23  24
ENDBRANCH   1  20
TORSDOF 3
ENDMDL
