MODEL 1
REMARK VINA RESULT:      -8.2      0.000      0.000
REMARK  Name = 
REMARK  3 active torsions:
REMARK  status: ('A' for Active; 'I' for Inactive)
REMARK    1  A    between atoms: C_2  and  C_4
REMARK    2  A    between atoms: C_6  and  C_7
REMARK    3  A    between atoms: N_24  and  C_25
REMARK                            x       y       z     vdW  Elec       q    Type
REMARK                         _______ _______ _______ _____ _____    ______ ____
ROOT
ATOM      1  C   UNL     1       2.717   5.369  17.883  0.00  0.00    +0.000 A 
ATOM      2  C   UNL     1       1.850   6.406  18.171  0.00  0.00    +0.000 A 
ATOM      3  C   UNL     1       2.619   7.599  18.138  0.00  0.00    +0.000 A 
ATOM      4  N   UNL     1       3.892   7.313  17.821  0.00  0.00    +0.000 NA
ATOM      5  N   UNL     1       3.910   5.979  17.540  0.00  0.00    +0.000 N 
ENDROOT
BRANCH   3   6
ATOM      6  C   UNL     1       2.077   8.954  18.400  0.00  0.00    +0.000 C 
ATOM      7  O   UNL     1       1.987   9.747  17.459  0.00  0.00    +0.000 OA
ATOM      8  N   UNL     1       1.627   9.315  19.677  0.00  0.00    +0.000 N 
ATOM      9  C   UNL     1       1.461   8.420  20.824  0.00  0.00    +0.000 C 
ATOM     10  C   UNL     1      -0.013   8.325  21.230  0.00  0.00    +0.000 C 
ATOM     11  O   UNL     1      -0.624   9.606  21.409  0.00  0.00    +0.000 OA
ATOM     12  C   UNL     1      -0.495  10.473  20.261  0.00  0.00    +0.000 C 
ATOM     13  C   UNL     1      -1.352   9.964  19.067  0.00  0.00    +0.000 C 
ATOM     14  C   UNL     1      -2.370  11.041  18.674  0.00  0.00    +0.000 C 
ATOM     15  C   UNL     1      -2.244  12.050  19.760  0.00  0.00    +0.000 A 
ATOM     16  C   UNL     1      -3.058  13.163  19.944  0.00  0.00    +0.000 A 
ATOM     17  C   UNL     1      -2.815  13.989  21.037  0.00  0.00    +0.000 A 
ATOM     18  C   UNL     1      -1.774  13.699  21.929  0.00  0.00    +0.000 A 
ATOM     19  C   UNL     1      -0.954  12.585  21.727  0.00  0.00    +0.000 A 
ATOM     20  C   UNL     1      -1.192  11.761  20.629  0.00  0.00    +0.000 A 
ATOM     21  C   UNL     1       1.000  10.637  19.885  0.00  0.00    +0.000 C 
ENDBRANCH   3   6
BRANCH   5  22
ATOM     22  C   UNL     1       5.031   5.435  16.849  0.00  0.00    +0.000 A 
ATOM     23  C   UNL     1       6.151   5.009  17.575  0.00  0.00    +0.000 A 
ATOM     24  C   UNL     1       7.282   4.540  16.901  0.00  0.00    +0.000 A 
ATOM     25  C   UNL     1       7.314   4.528  15.507  0.00  0.00    +0.000 A 
ATOM     26  C   UNL     1       6.205   4.960  14.781  0.00  0.00    +0.000 A 
ATOM     27  C   UNL     1       5.061   5.402  15.448  0.00  0.00    +0.000 A 
ENDBRANCH   5  22
BRANCH   1  29
ATOM     28  N   UNL     1       2.812   3.392  19.186  0.00  0.00    +0.000 N 
ATOM     29  C   UNL     1       2.503   3.950  17.979  0.00  0.00    +0.000 C 
ATOM     30  O   UNL     1       2.075   3.237  17.080  0.00  0.00    +0.000 OA
ATOM     31  H   UNL     1       2.612   2.407  19.298  0.00  0.00    +0.000 HD
ATOM     32  H   UNL     1       3.038   3.940  20.001  0.00  0.00    +0.000 HD
ENDBRANCH   1  29
TORSDOF 3
ENDMDL
MODEL 2
REMARK VINA RESULT:      -7.9      1.345      2.653
REMARK  Name = 
REMARK  3 active torsions:
REMARK  status: ('A' for Active; 'I' for Inactive)
REMARK    1  A    between atoms: C_2  and  C_4
REMARK    2  A    between atoms: C_6  and  C_7
REMARK    3  A    between atoms: N_24  and  C_25
REMARK                            x       y       z     vdW  Elec       q    Type
REMARK                         _______ _______ _______ _____ _____    ______ ____
ROOT
ATOM      1  C   UNL     1       4.199   6.376  17.243  0.00  0.00    +0.000 A 
ATOM      2  C   UNL     1       4.019   7.737  17.408  0.00  0.00    +0.000 A 
ATOM      3  C   UNL     1       2.735   7.909  17.989  0.00  0.00    +0.000 A 
ATOM      4  N   UNL     1       2.163   6.712  18.194  0.00  0.00    +0.000 NA
ATOM      5  N   UNL     1       3.110   5.789  17.862  0.00  0.00    +0.000 N 
ENDROOT
BRANCH   3   6
ATOM      6  C   UNL     1       2.138   9.223  18.329  0.00  0.00    +0.000 C 
ATOM      7  O   UNL     1       2.023  10.069  17.437  0.00  0.00    +0.000 OA
ATOM      8  N   UNL     1       1.666   9.486  19.622  0.00  0.00    +0.000 N 
ATOM      9  C   UNL     1       1.530   8.517  20.710  0.00  0.00    +0.000 C 
ATOM     10  C   UNL     1       0.057   8.339  21.097  0.00  0.00    +0.000 C 
ATOM     11  O   UNL     1      -0.605   9.581  21.349  0.00  0.00    +0.000 OA
ATOM     12  C   UNL     1      -0.503  10.522  20.258  0.00  0.00    +0.000 C 
ATOM     13  C   UNL     1      -1.332  10.054  19.027  0.00  0.00    +0.000 C 
ATOM     14  C   UNL     1      -2.390  11.112  18.693  0.00  0.00    +0.000 C 
ATOM     15  C   UNL     1      -2.311  12.057  19.840  0.00  0.00    +0.000 A 
ATOM     16  C   UNL     1      -3.169  13.123  20.085  0.00  0.00    +0.000 A 
ATOM     17  C   UNL     1      -2.966  13.890  21.229  0.00  0.00    +0.000 A 
ATOM     18  C   UNL     1      -1.920  13.585  22.110  0.00  0.00    +0.000 A 
ATOM     19  C   UNL     1      -1.055  12.519  21.846  0.00  0.00    +0.000 A 
ATOM     20  C   UNL     1      -1.253  11.756  20.698  0.00  0.00    +0.000 A 
ATOM     21  C   UNL     1       0.987  10.767  19.905  0.00  0.00    +0.000 C 
ENDBRANCH   3   6
BRANCH   5  22
ATOM     22  C   UNL     1       2.936   4.440  18.284  0.00  0.00    +0.000 A 
ATOM     23  C   UNL     1       3.416   4.040  19.539  0.00  0.00    +0.000 A 
ATOM     24  C   UNL     1       3.312   2.703  19.932  0.00  0.00    +0.000 A 
ATOM     25  C   UNL     1       2.766   1.758  19.066  0.00  0.00    +0.000 A 
ATOM     26  C   UNL     1       2.296   2.150  17.813  0.00  0.00    +0.000 A 
ATOM     27  C   UNL     1       2.369   3.488  17.425  0.00  0.00    +0.000 A 
ENDBRANCH   5  22
BRANCH   1  29
ATOM     28  N   UNL     1       5.447   6.101  15.248  0.00  0.00    +0.000 N 
ATOM     29  C   UNL     1       5.229   5.675  16.526  0.00  0.00    +0.000 C 
ATOM     30  O   UNL     1       5.900   4.754  16.975  0.00  0.00    +0.000 OA
ATOM     31  H   UNL     1       6.208   5.665  14.744  0.00  0.00    +0.000 HD
ATOM     32  H   UNL     1       5.025   6.935  14.869  0.00  0.00    +0.000 HD
ENDBRANCH   1  29
TORSDOF 3
ENDMDL
MODEL 3
REMARK VINA RESULT:      -7.8      1.365      2.855
REMARK  Name = 
REMARK  3 active torsions:
REMARK  status: ('A' for Active; 'I' for Inactive)
REMARK    1  A    between atoms: C_2  and  C_4
REMARK    2  A    between atoms: C_6  and  C_7
REMARK    3  A    between atoms: N_24  and  C_25
REMARK                            x       y       z     vdW  Elec       q    Type
REMARK                         _______ _______ _______ _____ _____    ______ ____
ROOT
ATOM      1  C   UNL     1       4.013   6.229  17.484  0.00  0.00    +0.000 A 
ATOM      2  C   UNL     1       3.892   7.598  17.635  0.00  0.00    +0.000 A 
ATOM      3  C   UNL     1       2.572   7.841  18.096  0.00  0.00    +0.000 A 
ATOM      4  N   UNL     1       1.919   6.677  18.246  0.00  0.00    +0.000 NA
ATOM      5  N   UNL     1       2.842   5.704  18.000  0.00  0.00    +0.000 N 
ENDROOT
BRANCH   3   6
ATOM      6  C   UNL     1       2.018   9.186  18.382  0.00  0.00    +0.000 C 
ATOM      7  O   UNL     1       1.898   9.987  17.450  0.00  0.00    +0.000 OA
ATOM      8  N   UNL     1       1.590   9.529  19.671  0.00  0.00    +0.000 N 
ATOM      9  C   UNL     1       1.460   8.622  20.812  0.00  0.00    +0.000 C 
ATOM     10  C   UNL     1      -0.005   8.503  21.248  0.00  0.00    +0.000 C 
ATOM     11  O   UNL     1      -0.629   9.774  21.452  0.00  0.00    +0.000 OA
ATOM     12  C   UNL     1      -0.534  10.653  20.310  0.00  0.00    +0.000 C 
ATOM     13  C   UNL     1      -1.409  10.145  19.129  0.00  0.00    +0.000 C 
ATOM     14  C   UNL     1      -2.449  11.211  18.767  0.00  0.00    +0.000 C 
ATOM     15  C   UNL     1      -2.314  12.212  19.861  0.00  0.00    +0.000 A 
ATOM     16  C   UNL     1      -3.138  13.312  20.071  0.00  0.00    +0.000 A 
ATOM     17  C   UNL     1      -2.884  14.132  21.168  0.00  0.00    +0.000 A 
ATOM     18  C   UNL     1      -1.821  13.846  22.035  0.00  0.00    +0.000 A 
ATOM     19  C   UNL     1      -0.991  12.745  21.805  0.00  0.00    +0.000 A 
ATOM     20  C   UNL     1      -1.240  11.929  20.704  0.00  0.00    +0.000 A 
ATOM     21  C   UNL     1       0.951  10.840  19.904  0.00  0.00    +0.000 C 
ENDBRANCH   3   6
BRANCH   5  22
ATOM     22  C   UNL     1       2.558   4.367  18.402  0.00  0.00    +0.000 A 
ATOM     23  C   UNL     1       2.605   3.335  17.455  0.00  0.00    +0.000 A 
ATOM     24  C   UNL     1       2.259   2.032  17.825  0.00  0.00    +0.000 A 
ATOM     25  C   UNL     1       1.832   1.762  19.125  0.00  0.00    +0.000 A 
ATOM     26  C   UNL     1       1.775   2.788  20.067  0.00  0.00    +0.000 A 
ATOM     27  C   UNL     1       2.147   4.085  19.712  0.00  0.00    +0.000 A 
ENDBRANCH   5  22
BRANCH   1  29
ATOM     28  N   UNL     1       6.003   4.965  17.718  0.00  0.00    +0.000 N 
ATOM     29  C   UNL     1       5.066   5.471  16.864  0.00  0.00    +0.000 C 
ATOM     30  O   UNL     1       5.169   5.256  15.663  0.00  0.00    +0.000 OA
ATOM     31  H   UNL     1       6.720   4.377  17.313  0.00  0.00    +0.000 HD
ATOM     32  H   UNL     1       5.902   4.992  18.721  0.00  0.00    +0.000 HD
ENDBRANCH   1  29
TORSDOF 3
ENDMDL
MODEL 4
REMARK VINA RESULT:      -7.0      7.628      9.009
REMARK  Name = 
REMARK  3 active torsions:
REMARK  status: ('A' for Active; 'I' for Inactive)
REMARK    1  A    between atoms: C_2  and  C_4
REMARK    2  A    between atoms: C_6  and  C_7
REMARK    3  A    between atoms: N_24  and  C_25
REMARK                            x       y       z     vdW  Elec       q    Type
REMARK                         _______ _______ _______ _____ _____    ______ ____
ROOT
ATOM      1  C   UNL     1       9.250  15.833  17.916  0.00  0.00    +0.000 A 
ATOM      2  C   UNL     1       8.071  16.516  18.152  0.00  0.00    +0.000 A 
ATOM      3  C   UNL     1       7.112  15.547  18.547  0.00  0.00    +0.000 A 
ATOM      4  N   UNL     1       7.679  14.330  18.577  0.00  0.00    +0.000 NA
ATOM      5  N   UNL     1       9.003  14.535  18.322  0.00  0.00    +0.000 N 
ENDROOT
BRANCH   3   6
ATOM      6  C   UNL     1       5.703  15.853  18.889  0.00  0.00    +0.000 C 
ATOM      7  O   UNL     1       4.845  15.755  18.007  0.00  0.00    +0.000 OA
ATOM      8  N   UNL     1       5.338  16.196  20.198  0.00  0.00    +0.000 N 
ATOM      9  C   UNL     1       6.195  16.132  21.383  0.00  0.00    +0.000 C 
ATOM     10  C   UNL     1       5.663  15.100  22.383  0.00  0.00    +0.000 C 
ATOM     11  O   UNL     1       4.277  15.283  22.687  0.00  0.00    +0.000 OA
ATOM     12  C   UNL     1       3.428  15.306  21.519  0.00  0.00    +0.000 C 
ATOM     13  C   UNL     1       3.343  13.903  20.852  0.00  0.00    +0.000 C 
ATOM     14  C   UNL     1       1.883  13.435  20.832  0.00  0.00    +0.000 C 
ATOM     15  C   UNL     1       1.182  14.449  21.665  0.00  0.00    +0.000 A 
ATOM     16  C   UNL     1      -0.146  14.398  22.074  0.00  0.00    +0.000 A 
ATOM     17  C   UNL     1      -0.632  15.423  22.882  0.00  0.00    +0.000 A 
ATOM     18  C   UNL     1       0.206  16.477  23.271  0.00  0.00    +0.000 A 
ATOM     19  C   UNL     1       1.535  16.525  22.842  0.00  0.00    +0.000 A 
ATOM     20  C   UNL     1       2.020  15.503  22.028  0.00  0.00    +0.000 A 
ATOM     21  C   UNL     1       3.912  16.398  20.530  0.00  0.00    +0.000 C 
ENDBRANCH   3   6
BRANCH   5  22
ATOM     22  C   UNL     1       9.930  13.493  18.614  0.00  0.00    +0.000 A 
ATOM     23  C   UNL     1      10.427  13.355  19.918  0.00  0.00    +0.000 A 
ATOM     24  C   UNL     1      11.390  12.381  20.198  0.00  0.00    +0.000 A 
ATOM     25  C   UNL     1      11.884  11.569  19.177  0.00  0.00    +0.000 A 
ATOM     26  C   UNL     1      11.398  11.710  17.878  0.00  0.00    +0.000 A 
ATOM     27  C   UNL     1      10.416  12.661  17.597  0.00  0.00    +0.000 A 
ENDBRANCH   5  22
BRANCH   1  29
ATOM     28  N   UNL     1      10.596  16.039  15.978  0.00  0.00    +0.000 N 
ATOM     29  C   UNL     1      10.467  16.301  17.311  0.00  0.00    +0.000 C 
ATOM     30  O   UNL     1      11.362  16.900  17.895  0.00  0.00    +0.000 OA
ATOM     31  H   UNL     1      11.416  16.411  15.516  0.00  0.00    +0.000 HD
ATOM     32  H   UNL     1       9.844  15.672  15.416  0.00  0.00    +0.000 HD
ENDBRANCH   1  29
TORSDOF 3
ENDMDL
MODEL 5
REMARK VINA RESULT:      -7.0      6.962      8.348
REMARK  Name = 
REMARK  3 active torsions:
REMARK  status: ('A' for Active; 'I' for Inactive)
REMARK    1  A    between atoms: C_2  and  C_4
REMARK    2  A    between atoms: C_6  and  C_7
REMARK    3  A    between atoms: N_24  and  C_25
REMARK                            x       y       z     vdW  Elec       q    Type
REMARK                         _______ _______ _______ _____ _____    ______ ____
ROOT
ATOM      1  C   UNL     1       8.605  15.778  18.114  0.00  0.00    +0.000 A 
ATOM      2  C   UNL     1       7.350  16.350  18.209  0.00  0.00    +0.000 A 
ATOM      3  C   UNL     1       6.419  15.279  18.253  0.00  0.00    +0.000 A 
ATOM      4  N   UNL     1       7.069  14.106  18.212  0.00  0.00    +0.000 NA
ATOM      5  N   UNL     1       8.396  14.418  18.263  0.00  0.00    +0.000 N 
ENDROOT
BRANCH   3   6
ATOM      6  C   UNL     1       4.949  15.450  18.347  0.00  0.00    +0.000 C 
ATOM      7  O   UNL     1       4.284  15.437  17.308  0.00  0.00    +0.000 OA
ATOM      8  N   UNL     1       4.317  15.574  19.592  0.00  0.00    +0.000 N 
ATOM      9  C   UNL     1       4.939  15.383  20.903  0.00  0.00    +0.000 C 
ATOM     10  C   UNL     1       4.317  14.185  21.630  0.00  0.00    +0.000 C 
ATOM     11  O   UNL     1       2.889  14.242  21.675  0.00  0.00    +0.000 OA
ATOM     12  C   UNL     1       2.276  14.390  20.376  0.00  0.00    +0.000 C 
ATOM     13  C   UNL     1       2.436  13.100  19.522  0.00  0.00    +0.000 C 
ATOM     14  C   UNL     1       1.051  12.557  19.150  0.00  0.00    +0.000 C 
ATOM     15  C   UNL     1       0.123  13.395  19.957  0.00  0.00    +0.000 A 
ATOM     16  C   UNL     1      -1.249  13.209  20.085  0.00  0.00    +0.000 A 
ATOM     17  C   UNL     1      -1.963  14.072  20.910  0.00  0.00    +0.000 A 
ATOM     18  C   UNL     1      -1.306  15.103  21.596  0.00  0.00    +0.000 A 
ATOM     19  C   UNL     1       0.072  15.289  21.450  0.00  0.00    +0.000 A 
ATOM     20  C   UNL     1       0.785  14.429  20.618  0.00  0.00    +0.000 A 
ATOM     21  C   UNL     1       2.843  15.643  19.659  0.00  0.00    +0.000 C 
ENDBRANCH   3   6
BRANCH   5  22
ATOM     22  C   UNL     1       9.334  13.393  18.575  0.00  0.00    +0.000 A 
ATOM     23  C   UNL     1       9.774  13.237  19.896  0.00  0.00    +0.000 A 
ATOM     24  C   UNL     1      10.747  12.281  20.199  0.00  0.00    +0.000 A 
ATOM     25  C   UNL     1      11.308  11.505  19.185  0.00  0.00    +0.000 A 
ATOM     26  C   UNL     1      10.880  11.664  17.868  0.00  0.00    +0.000 A 
ATOM     27  C   UNL     1       9.887  12.597  17.563  0.00  0.00    +0.000 A 
ENDBRANCH   5  22
BRANCH   1  29
ATOM     28  N   UNL     1      10.282  16.353  16.543  0.00  0.00    +0.000 N 
ATOM     29  C   UNL     1       9.872  16.402  17.844  0.00  0.00    +0.000 C 
ATOM     30  O   UNL     1      10.579  16.956  18.676  0.00  0.00    +0.000 OA
ATOM     31  H   UNL     1      11.141  16.838  16.316  0.00  0.00    +0.000 HD
ATOM     32  H   UNL     1       9.689  16.033  15.793  0.00  0.00    +0.000 HD
ENDBRANCH   1  29
TORSDOF 3
ENDMDL
MODEL 6
REMARK VINA RESULT:      -7.0      3.834     10.632
REMARK  Name = 
REMARK  3 active torsions:
REMARK  status: ('A' for Active; 'I' for Inactive)
REMARK    1  A    between atoms: C_2  and  C_4
REMARK    2  A    between atoms: C_6  and  C_7
REMARK    3  A    between atoms: N_24  and  C_25
REMARK                            x       y       z     vdW  Elec       q    Type
REMARK                         _______ _______ _______ _____ _____    ______ ____
ROOT
ATOM      1  C   UNL     1      -3.351  15.018  22.025  0.00  0.00    +0.000 A 
ATOM      2  C   UNL     1      -2.088  14.742  21.537  0.00  0.00    +0.000 A 
ATOM      3  C   UNL     1      -1.881  13.348  21.711  0.00  0.00    +0.000 A 
ATOM      4  N   UNL     1      -2.973  12.789  22.256  0.00  0.00    +0.000 NA
ATOM      5  N   UNL     1      -3.904  13.784  22.319  0.00  0.00    +0.000 N 
ENDROOT
BRANCH   3   6
ATOM      6  C   UNL     1      -0.643  12.630  21.325  0.00  0.00    +0.000 C 
ATOM      7  O   UNL     1       0.242  12.479  22.173  0.00  0.00    +0.000 OA
ATOM      8  N   UNL     1      -0.495  12.087  20.042  0.00  0.00    +0.000 N 
ATOM      9  C   UNL     1      -1.535  11.989  19.017  0.00  0.00    +0.000 C 
ATOM     10  C   UNL     1      -1.856  10.523  18.706  0.00  0.00    +0.000 C 
ATOM     11  O   UNL     1      -0.689   9.749  18.414  0.00  0.00    +0.000 OA
ATOM     12  C   UNL     1       0.320   9.814  19.446  0.00  0.00    +0.000 C 
ATOM     13  C   UNL     1      -0.140   9.077  20.737  0.00  0.00    +0.000 C 
ATOM     14  C   UNL     1       0.845   7.947  21.059  0.00  0.00    +0.000 C 
ATOM     15  C   UNL     1       1.724   7.902  19.858  0.00  0.00    +0.000 A 
ATOM     16  C   UNL     1       2.700   6.948  19.593  0.00  0.00    +0.000 A 
ATOM     17  C   UNL     1       3.412   7.040  18.400  0.00  0.00    +0.000 A 
ATOM     18  C   UNL     1       3.143   8.072  17.492  0.00  0.00    +0.000 A 
ATOM     19  C   UNL     1       2.168   9.033  17.775  0.00  0.00    +0.000 A 
ATOM     20  C   UNL     1       1.461   8.946  18.972  0.00  0.00    +0.000 A 
ATOM     21  C   UNL     1       0.707  11.291  19.719  0.00  0.00    +0.000 C 
ENDBRANCH   3   6
BRANCH   5  22
ATOM     22  C   UNL     1      -5.269  13.439  22.534  0.00  0.00    +0.000 A 
ATOM     23  C   UNL     1      -5.792  13.462  23.834  0.00  0.00    +0.000 A 
ATOM     24  C   UNL     1      -7.109  13.058  24.063  0.00  0.00    +0.000 A 
ATOM     25  C   UNL     1      -7.896  12.597  23.008  0.00  0.00    +0.000 A 
ATOM     26  C   UNL     1      -7.376  12.563  21.715  0.00  0.00    +0.000 A 
ATOM     27  C   UNL     1      -6.070  12.994  21.474  0.00  0.00    +0.000 A 
ENDBRANCH   5  22
BRANCH   1  29
ATOM     28  N   UNL     1      -3.912  16.736  23.556  0.00  0.00    +0.000 N 
ATOM     29  C   UNL     1      -3.975  16.290  22.268  0.00  0.00    +0.000 C 
ATOM     30  O   UNL     1      -4.537  16.975  21.423  0.00  0.00    +0.000 OA
ATOM     31  H   UNL     1      -4.290  17.656  23.741  0.00  0.00    +0.000 HD
ATOM     32  H   UNL     1      -3.352  16.287  24.265  0.00  0.00    +0.000 HD
ENDBRANCH   1  29
TORSDOF 3
ENDMDL
MODEL 7
REMARK VINA RESULT:      -7.0      1.710      3.317
REMARK  Name = 
REMARK  3 active torsions:
REMARK  status: ('A' for Active; 'I' for Inactive)
REMARK    1  A    between atoms: C_2  and  C_4
REMARK    2  A    between atoms: C_6  and  C_7
REMARK    3  A    between atoms: N_24  and  C_25
REMARK                            x       y       z     vdW  Elec       q    Type
REMARK                         _______ _______ _______ _____ _____    ______ ____
ROOT
ATOM      1  C   UNL     1       3.289   6.404  18.065  0.00  0.00    +0.000 A 
ATOM      2  C   UNL     1       3.265   7.786  18.048  0.00  0.00    +0.000 A 
ATOM      3  C   UNL     1       2.130   8.182  18.803  0.00  0.00    +0.000 A 
ATOM      4  N   UNL     1       1.499   7.098  19.282  0.00  0.00    +0.000 NA
ATOM      5  N   UNL     1       2.283   6.036  18.940  0.00  0.00    +0.000 N 
ENDROOT
BRANCH   3   6
ATOM      6  C   UNL     1       1.725   9.590  19.033  0.00  0.00    +0.000 C 
ATOM      7  O   UNL     1       1.653  10.351  18.064  0.00  0.00    +0.000 OA
ATOM      8  N   UNL     1       1.382  10.040  20.315  0.00  0.00    +0.000 N 
ATOM      9  C   UNL     1       1.203   9.209  21.507  0.00  0.00    +0.000 C 
ATOM     10  C   UNL     1      -0.250   9.264  21.994  0.00  0.00    +0.000 C 
ATOM     11  O   UNL     1      -0.734  10.601  22.149  0.00  0.00    +0.000 OA
ATOM     12  C   UNL     1      -0.593  11.407  20.959  0.00  0.00    +0.000 C 
ATOM     13  C   UNL     1      -1.557  10.932  19.834  0.00  0.00    +0.000 C 
ATOM     14  C   UNL     1      -2.497  12.081  19.449  0.00  0.00    +0.000 C 
ATOM     15  C   UNL     1      -2.221  13.116  20.482  0.00  0.00    +0.000 A 
ATOM     16  C   UNL     1      -2.921  14.304  20.659  0.00  0.00    +0.000 A 
ATOM     17  C   UNL     1      -2.545  15.147  21.701  0.00  0.00    +0.000 A 
ATOM     18  C   UNL     1      -1.486  14.798  22.549  0.00  0.00    +0.000 A 
ATOM     19  C   UNL     1      -0.780  13.608  22.352  0.00  0.00    +0.000 A 
ATOM     20  C   UNL     1      -1.151  12.767  21.305  0.00  0.00    +0.000 A 
ATOM     21  C   UNL     1       0.887  11.420  20.497  0.00  0.00    +0.000 C 
ENDBRANCH   3   6
BRANCH   5  22
ATOM     22  C   UNL     1       2.069   4.785  19.587  0.00  0.00    +0.000 A 
ATOM     23  C   UNL     1       1.329   3.787  18.937  0.00  0.00    +0.000 A 
ATOM     24  C   UNL     1       1.054   2.584  19.591  0.00  0.00    +0.000 A 
ATOM     25  C   UNL     1       1.483   2.385  20.903  0.00  0.00    +0.000 A 
ATOM     26  C   UNL     1       2.211   3.378  21.557  0.00  0.00    +0.000 A 
ATOM     27  C   UNL     1       2.514   4.571  20.899  0.00  0.00    +0.000 A 
ENDBRANCH   5  22
BRANCH   1  29
ATOM     28  N   UNL     1       5.414   5.856  17.174  0.00  0.00    +0.000 N 
ATOM     29  C   UNL     1       4.104   5.498  17.301  0.00  0.00    +0.000 C 
ATOM     30  O   UNL     1       3.710   4.463  16.778  0.00  0.00    +0.000 OA
ATOM     31  H   UNL     1       6.022   5.205  16.694  0.00  0.00    +0.000 HD
ATOM     32  H   UNL     1       5.826   6.619  17.689  0.00  0.00    +0.000 HD
ENDBRANCH   1  29
TORSDOF 3
ENDMDL
MODEL 8
REMARK VINA RESULT:      -6.9      7.797      9.119
REMARK  Name = 
REMARK  3 active torsions:
REMARK  status: ('A' for Active; 'I' for Inactive)
REMARK    1  A    between atoms: C_2  and  C_4
REMARK    2  A    between atoms: C_6  and  C_7
REMARK    3  A    between atoms: N_24  and  C_25
REMARK                            x       y       z     vdW  Elec       q    Type
REMARK                         _______ _______ _______ _____ _____    ______ ____
ROOT
ATOM      1  C   UNL     1       8.393  14.970  20.824  0.00  0.00    +0.000 A 
ATOM      2  C   UNL     1       7.192  15.556  21.178  0.00  0.00    +0.000 A 
ATOM      3  C   UNL     1       6.696  16.198  20.013  0.00  0.00    +0.000 A 
ATOM      4  N   UNL     1       7.536  15.997  18.986  0.00  0.00    +0.000 NA
ATOM      5  N   UNL     1       8.491  15.143  19.455  0.00  0.00    +0.000 N 
ENDROOT
BRANCH   3   6
ATOM      6  C   UNL     1       5.425  16.959  19.953  0.00  0.00    +0.000 C 
ATOM      7  O   UNL     1       5.472  18.173  19.732  0.00  0.00    +0.000 OA
ATOM      8  N   UNL     1       4.190  16.312  20.093  0.00  0.00    +0.000 N 
ATOM      9  C   UNL     1       3.969  14.865  20.132  0.00  0.00    +0.000 C 
ATOM     10  C   UNL     1       3.141  14.409  18.925  0.00  0.00    +0.000 C 
ATOM     11  O   UNL     1       1.941  15.169  18.755  0.00  0.00    +0.000 OA
ATOM     12  C   UNL     1       2.166  16.593  18.676  0.00  0.00    +0.000 C 
ATOM     13  C   UNL     1       2.884  16.982  17.352  0.00  0.00    +0.000 C 
ATOM     14  C   UNL     1       2.004  17.956  16.560  0.00  0.00    +0.000 C 
ATOM     15  C   UNL     1       0.719  17.951  17.311  0.00  0.00    +0.000 A 
ATOM     16  C   UNL     1      -0.462  18.571  16.919  0.00  0.00    +0.000 A 
ATOM     17  C   UNL     1      -1.584  18.436  17.732  0.00  0.00    +0.000 A 
ATOM     18  C   UNL     1      -1.517  17.690  18.916  0.00  0.00    +0.000 A 
ATOM     19  C   UNL     1      -0.320  17.083  19.307  0.00  0.00    +0.000 A 
ATOM     20  C   UNL     1       0.805  17.223  18.497  0.00  0.00    +0.000 A 
ATOM     21  C   UNL     1       2.939  17.080  19.929  0.00  0.00    +0.000 C 
ENDBRANCH   3   6
BRANCH   5  22
ATOM     22  C   UNL     1       9.334  14.472  18.522  0.00  0.00    +0.000 A 
ATOM     23  C   UNL     1       9.201  13.088  18.341  0.00  0.00    +0.000 A 
ATOM     24  C   UNL     1      10.069  12.411  17.481  0.00  0.00    +0.000 A 
ATOM     25  C   UNL     1      11.091  13.101  16.829  0.00  0.00    +0.000 A 
ATOM     26  C   UNL     1      11.232  14.476  17.015  0.00  0.00    +0.000 A 
ATOM     27  C   UNL     1      10.350  15.164  17.849  0.00  0.00    +0.000 A 
ENDBRANCH   5  22
BRANCH   1  29
ATOM     28  N   UNL     1       8.919  13.585  22.672  0.00  0.00    +0.000 N 
ATOM     29  C   UNL     1       9.395  14.369  21.662  0.00  0.00    +0.000 C 
ATOM     30  O   UNL     1      10.605  14.510  21.531  0.00  0.00    +0.000 OA
ATOM     31  H   UNL     1       9.604  13.102  23.239  0.00  0.00    +0.000 HD
ATOM     32  H   UNL     1       7.948  13.323  22.752  0.00  0.00    +0.000 HD
ENDBRANCH   1  29
TORSDOF 3
ENDMDL
MODEL 9
REMARK VINA RESULT:      -6.9      7.187      8.452
REMARK  Name = 
REMARK  3 active torsions:
REMARK  status: ('A' for Active; 'I' for Inactive)
REMARK    1  A    between atoms: C_2  and  C_4
REMARK    2  A    between atoms: C_6  and  C_7
REMARK    3  A    between atoms: N_24  and  C_25
REMARK                            x       y       z     vdW  Elec       q    Type
REMARK                         _______ _______ _______ _____ _____    ______ ____
ROOT
ATOM      1  C   UNL     1       7.316  13.254  22.624  0.00  0.00    +0.000 A 
ATOM      2  C   UNL     1       6.140  13.979  22.573  0.00  0.00    +0.000 A 
ATOM      3  C   UNL     1       6.260  14.871  21.476  0.00  0.00    +0.000 A 
ATOM      4  N   UNL     1       7.442  14.688  20.866  0.00  0.00    +0.000 NA
ATOM      5  N   UNL     1       8.015  13.618  21.488  0.00  0.00    +0.000 N 
ENDROOT
BRANCH   3   6
ATOM      6  C   UNL     1       5.217  15.843  21.067  0.00  0.00    +0.000 C 
ATOM      7  O   UNL     1       5.550  17.011  20.848  0.00  0.00    +0.000 OA
ATOM      8  N   UNL     1       3.889  15.438  20.881  0.00  0.00    +0.000 N 
ATOM      9  C   UNL     1       3.394  14.060  20.882  0.00  0.00    +0.000 C 
ATOM     10  C   UNL     1       2.837  13.682  19.505  0.00  0.00    +0.000 C 
ATOM     11  O   UNL     1       1.889  14.632  19.009  0.00  0.00    +0.000 OA
ATOM     12  C   UNL     1       2.394  15.985  18.972  0.00  0.00    +0.000 C 
ATOM     13  C   UNL     1       3.491  16.151  17.882  0.00  0.00    +0.000 C 
ATOM     14  C   UNL     1       3.049  17.214  16.869  0.00  0.00    +0.000 C 
ATOM     15  C   UNL     1       1.636  17.489  17.249  0.00  0.00    +0.000 A 
ATOM     16  C   UNL     1       0.738  18.283  16.546  0.00  0.00    +0.000 A 
ATOM     17  C   UNL     1      -0.561  18.406  17.032  0.00  0.00    +0.000 A 
ATOM     18  C   UNL     1      -0.947  17.739  18.202  0.00  0.00    +0.000 A 
ATOM     19  C   UNL     1      -0.031  16.953  18.908  0.00  0.00    +0.000 A 
ATOM     20  C   UNL     1       1.271  16.836  18.426  0.00  0.00    +0.000 A 
ATOM     21  C   UNL     1       2.893  16.406  20.378  0.00  0.00    +0.000 C 
ENDBRANCH   3   6
BRANCH   5  22
ATOM     22  C   UNL     1       9.114  12.964  20.861  0.00  0.00    +0.000 A 
ATOM     23  C   UNL     1      10.342  13.630  20.747  0.00  0.00    +0.000 A 
ATOM     24  C   UNL     1      11.405  13.024  20.072  0.00  0.00    +0.000 A 
ATOM     25  C   UNL     1      11.237  11.773  19.479  0.00  0.00    +0.000 A 
ATOM     26  C   UNL     1      10.014  11.111  19.581  0.00  0.00    +0.000 A 
ATOM     27  C   UNL     1       8.957  11.698  20.280  0.00  0.00    +0.000 A 
ENDBRANCH   5  22
BRANCH   1  29
ATOM     28  N   UNL     1       8.554  12.947  24.620  0.00  0.00    +0.000 N 
ATOM     29  C   UNL     1       7.794  12.365  23.648  0.00  0.00    +0.000 C 
ATOM     30  O   UNL     1       7.568  11.162  23.701  0.00  0.00    +0.000 OA
ATOM     31  H   UNL     1       8.851  12.354  25.385  0.00  0.00    +0.000 HD
ATOM     32  H   UNL     1       8.663  13.945  24.707  0.00  0.00    +0.000 HD
ENDBRANCH   1  29
TORSDOF 3
ENDMDL
