MODEL 1
REMARK VINA RESULT:      -7.4      0.000      0.000
REMARK  Name = 
REMARK  11 active torsions:
REMARK  status: ('A' for Active; 'I' for Inactive)
REMARK    1  A    between atoms: C_1  and  N_2
REMARK    2  A    between atoms: C_6  and  C_7
REMARK    3  A    between atoms: C_7  and  C_8
REMARK    4  A    between atoms: C_8  and  C_9
REMARK    5  A    between atoms: C_8  and  C_10
REMARK    6  A    between atoms: C_8  and  C_11
REMARK    7  A    between atoms: C_15  and  N_16
REMARK    8  A    between atoms: C_21  and  C_22
REMARK    9  A    between atoms: C_22  and  C_23
REMARK   10  A    between atoms: C_23  and  O_24
REMARK   11  A    between atoms: C_26  and  C_27
REMARK                            x       y       z     vdW  Elec       q    Type
REMARK                         _______ _______ _______ _____ _____    ______ ____
ROOT
ATOM      1  N   UNL     1      -0.361  11.126  18.474  0.00  0.00    +0.000 N 
ATOM      2  C   UNL     1       0.360  10.317  19.495  0.00  0.00    +0.000 C 
ATOM      3  C   UNL     1      -0.056  10.981  20.769  0.00  0.00    +0.000 A 
ATOM      4  C   UNL     1      -0.384  12.303  20.467  0.00  0.00    +0.000 A 
ATOM      5  C   UNL     1      -0.982  13.154  21.370  0.00  0.00    +0.000 A 
ATOM      6  C   UNL     1      -1.311  12.634  22.623  0.00  0.00    +0.000 A 
ATOM      7  C   UNL     1      -1.033  11.276  22.921  0.00  0.00    +0.000 A 
ATOM      8  C   UNL     1      -0.398  10.424  21.997  0.00  0.00    +0.000 A 
ATOM      9  C   UNL     1      -0.494  12.422  19.001  0.00  0.00    +0.000 C 
ATOM     10  O   UNL     1      -0.823  13.442  18.422  0.00  0.00    +0.000 OA
ENDROOT
BRANCH   1  15
ATOM     11  C   UNL     1      -3.900  11.103  17.817  0.00  0.00    +0.000 A 
ATOM     12  C   UNL     1      -3.848  10.533  16.531  0.00  0.00    +0.000 A 
ATOM     13  C   UNL     1      -2.742   9.797  16.111  0.00  0.00    +0.000 A 
ATOM     14  C   UNL     1      -1.629   9.698  16.934  0.00  0.00    +0.000 A 
ATOM     15  C   UNL     1      -1.583  10.450  18.118  0.00  0.00    +0.000 A 
ATOM     16  C   UNL     1      -2.746  11.029  18.612  0.00  0.00    +0.000 A 
BRANCH  11  17
ATOM     17  C   UNL     1      -5.187  11.745  18.355  0.00  0.00    +0.000 C 
ATOM     18  C   UNL     1      -6.264  10.692  18.714  0.00  0.00    +0.000 C 
ATOM     19  C   UNL     1      -5.712  12.594  17.168  0.00  0.00    +0.000 C 
BRANCH  17  20
ATOM     20  C   UNL     1      -5.011  12.691  19.582  0.00  0.00    +0.000 C 
BRANCH  20  26
ATOM     21  C   UNL     1      -7.795  14.254  19.732  0.00  0.00    +0.000 C 
ATOM     22  N   UNL     1      -7.249  13.322  20.680  0.00  0.00    +0.000 N 
ATOM     23  C   UNL     1      -7.835  13.007  21.871  0.00  0.00    +0.000 A 
ATOM     24  N   UNL     1      -7.092  12.137  22.509  0.00  0.00    +0.000 NA
ATOM     25  N   UNL     1      -5.988  11.889  21.736  0.00  0.00    +0.000 NA
ATOM     26  C   UNL     1      -6.077  12.608  20.630  0.00  0.00    +0.000 A 
ENDBRANCH  20  26
ENDBRANCH  17  20
ENDBRANCH  11  17
ENDBRANCH   1  15
BRANCH   8  27
ATOM     27  C   UNL     1      -0.245   8.950  22.276  0.00  0.00    +0.000 C 
ATOM     28  F   UNL     1      -0.950   8.190  21.392  0.00  0.00    +0.000 F 
ATOM     29  F   UNL     1       1.048   8.523  22.190  0.00  0.00    +0.000 F 
ENDBRANCH   8  27
BRANCH   6  30
ATOM     30  C   UNL     1      -2.045  13.509  23.613  0.00  0.00    +0.000 C 
BRANCH  30  31
ATOM     31  C   UNL     1      -3.492  13.768  23.208  0.00  0.00    +0.000 C 
BRANCH  31  32
ATOM     32  O   UNL     1      -4.380  12.888  23.890  0.00  0.00    +0.000 OA
ATOM     33  H   UNL     1      -4.234  13.012  24.847  0.00  0.00    +0.000 HD
ENDBRANCH  31  32
ENDBRANCH  30  31
ENDBRANCH   6  30
TORSDOF 8
ENDMDL
MODEL 2
REMARK VINA RESULT:      -7.3      5.150      9.055
REMARK  Name = 
REMARK  11 active torsions:
REMARK  status: ('A' for Active; 'I' for Inactive)
REMARK    1  A    between atoms: C_1  and  N_2
REMARK    2  A    between atoms: C_6  and  C_7
REMARK    3  A    between atoms: C_7  and  C_8
REMARK    4  A    between atoms: C_8  and  C_9
REMARK    5  A    between atoms: C_8  and  C_10
REMARK    6  A    between atoms: C_8  and  C_11
REMARK    7  A    between atoms: C_15  and  N_16
REMARK    8  A    between atoms: C_21  and  C_22
REMARK    9  A    between atoms: C_22  and  C_23
REMARK   10  A    between atoms: C_23  and  O_24
REMARK   11  A    between atoms: C_26  and  C_27
REMARK                            x       y       z     vdW  Elec       q    Type
REMARK                         _______ _______ _______ _____ _____    ______ ____
ROOT
ATOM      1  N   UNL     1       0.799   8.271  21.293  0.00  0.00    +0.000 N 
ATOM      2  C   UNL     1      -0.398   8.631  20.484  0.00  0.00    +0.000 C 
ATOM      3  C   UNL     1      -0.145  10.071  20.174  0.00  0.00    +0.000 A 
ATOM      4  C   UNL     1       0.674  10.580  21.182  0.00  0.00    +0.000 A 
ATOM      5  C   UNL     1       1.255  11.828  21.120  0.00  0.00    +0.000 A 
ATOM      6  C   UNL     1       1.041  12.580  19.965  0.00  0.00    +0.000 A 
ATOM      7  C   UNL     1       0.255  12.050  18.911  0.00  0.00    +0.000 A 
ATOM      8  C   UNL     1      -0.354  10.784  18.998  0.00  0.00    +0.000 A 
ATOM      9  C   UNL     1       1.210   9.442  21.953  0.00  0.00    +0.000 C 
ATOM     10  O   UNL     1       2.005   9.552  22.869  0.00  0.00    +0.000 OA
ENDROOT
BRANCH   1  15
ATOM     11  C   UNL     1       2.026   5.459  19.411  0.00  0.00    +0.000 A 
ATOM     12  C   UNL     1       2.152   6.107  18.167  0.00  0.00    +0.000 A 
ATOM     13  C   UNL     1       2.248   7.494  18.081  0.00  0.00    +0.000 A 
ATOM     14  C   UNL     1       2.125   8.264  19.229  0.00  0.00    +0.000 A 
ATOM     15  C   UNL     1       1.772   7.643  20.437  0.00  0.00    +0.000 A 
ATOM     16  C   UNL     1       1.858   6.260  20.550  0.00  0.00    +0.000 A 
BRANCH  11  17
ATOM     17  C   UNL     1       2.116   3.931  19.528  0.00  0.00    +0.000 C 
ATOM     18  C   UNL     1       1.309   3.207  18.422  0.00  0.00    +0.000 C 
ATOM     19  C   UNL     1       1.458   3.616  20.896  0.00  0.00    +0.000 C 
BRANCH  17  20
ATOM     20  C   UNL     1       3.558   3.336  19.539  0.00  0.00    +0.000 C 
BRANCH  20  26
ATOM     21  C   UNL     1       6.032   5.353  19.372  0.00  0.00    +0.000 C 
ATOM     22  N   UNL     1       5.450   4.573  18.314  0.00  0.00    +0.000 N 
ATOM     23  C   UNL     1       5.844   4.635  17.009  0.00  0.00    +0.000 A 
ATOM     24  N   UNL     1       5.120   3.811  16.293  0.00  0.00    +0.000 NA
ATOM     25  N   UNL     1       4.220   3.210  17.135  0.00  0.00    +0.000 NA
ATOM     26  C   UNL     1       4.414   3.673  18.358  0.00  0.00    +0.000 A 
ENDBRANCH  20  26
ENDBRANCH  17  20
ENDBRANCH  11  17
ENDBRANCH   1  15
BRANCH   8  27
ATOM     27  C   UNL     1      -1.060  10.177  17.812  0.00  0.00    +0.000 C 
ATOM     28  F   UNL     1      -0.338   9.165  17.253  0.00  0.00    +0.000 F 
ATOM     29  F   UNL     1      -2.273   9.639  18.132  0.00  0.00    +0.000 F 
ENDBRANCH   8  27
BRANCH   6  30
ATOM     30  C   UNL     1       1.728  13.918  19.820  0.00  0.00    +0.000 C 
BRANCH  30  31
ATOM     31  C   UNL     1       2.098  14.235  18.375  0.00  0.00    +0.000 C 
BRANCH  31  32
ATOM     32  O   UNL     1       3.281  13.543  17.985  0.00  0.00    +0.000 OA
ATOM     33  H   UNL     1       3.589  13.942  17.150  0.00  0.00    +0.000 HD
ENDBRANCH  31  32
ENDBRANCH  30  31
ENDBRANCH   6  30
TORSDOF 8
ENDMDL
MODEL 3
REMARK VINA RESULT:      -7.3      6.616      9.367
REMARK  Name = 
REMARK  11 active torsions:
REMARK  status: ('A' for Active; 'I' for Inactive)
REMARK    1  A    between atoms: C_1  and  N_2
REMARK    2  A    between atoms: C_6  and  C_7
REMARK    3  A    between atoms: C_7  and  C_8
REMARK    4  A    between atoms: C_8  and  C_9
REMARK    5  A    between atoms: C_8  and  C_10
REMARK    6  A    between atoms: C_8  and  C_11
REMARK    7  A    between atoms: C_15  and  N_16
REMARK    8  A    between atoms: C_21  and  C_22
REMARK    9  A    between atoms: C_22  and  C_23
REMARK   10  A    between atoms: C_23  and  O_24
REMARK   11  A    between atoms: C_26  and  C_27
REMARK                            x       y       z     vdW  Elec       q    Type
REMARK                         _______ _______ _______ _____ _____    ______ ____
ROOT
ATOM      1  N   UNL     1       3.334   5.021  19.319  0.00  0.00    +0.000 N 
ATOM      2  C   UNL     1       4.721   5.520  19.529  0.00  0.00    +0.000 C 
ATOM      3  C   UNL     1       5.378   5.172  18.232  0.00  0.00    +0.000 A 
ATOM      4  C   UNL     1       4.687   4.090  17.687  0.00  0.00    +0.000 A 
ATOM      5  C   UNL     1       4.907   3.624  16.410  0.00  0.00    +0.000 A 
ATOM      6  C   UNL     1       5.833   4.312  15.625  0.00  0.00    +0.000 A 
ATOM      7  C   UNL     1       6.501   5.447  16.150  0.00  0.00    +0.000 A 
ATOM      8  C   UNL     1       6.285   5.898  17.466  0.00  0.00    +0.000 A 
ATOM      9  C   UNL     1       3.423   3.935  18.432  0.00  0.00    +0.000 C 
ATOM     10  O   UNL     1       2.569   3.109  18.162  0.00  0.00    +0.000 OA
ENDROOT
BRANCH   1  15
ATOM     11  C   UNL     1       1.755   8.204  19.898  0.00  0.00    +0.000 A 
ATOM     12  C   UNL     1       2.261   8.873  18.767  0.00  0.00    +0.000 A 
ATOM     13  C   UNL     1       2.728   8.168  17.660  0.00  0.00    +0.000 A 
ATOM     14  C   UNL     1       2.785   6.782  17.701  0.00  0.00    +0.000 A 
ATOM     15  C   UNL     1       2.498   6.119  18.904  0.00  0.00    +0.000 A 
ATOM     16  C   UNL     1       1.866   6.806  19.935  0.00  0.00    +0.000 A 
BRANCH  11  17
ATOM     17  C   UNL     1       1.063   8.969  21.034  0.00  0.00    +0.000 C 
ATOM     18  C   UNL     1       1.826   8.850  22.376  0.00  0.00    +0.000 C 
ATOM     19  C   UNL     1      -0.308   8.260  21.190  0.00  0.00    +0.000 C 
BRANCH  17  20
ATOM     20  C   UNL     1       0.793  10.482  20.767  0.00  0.00    +0.000 C 
BRANCH  20  26
ATOM     21  C   UNL     1      -1.885  11.901  19.753  0.00  0.00    +0.000 C 
ATOM     22  N   UNL     1      -1.425  11.738  21.105  0.00  0.00    +0.000 N 
ATOM     23  C   UNL     1      -2.059  12.251  22.199  0.00  0.00    +0.000 A 
ATOM     24  N   UNL     1      -1.390  11.936  23.281  0.00  0.00    +0.000 NA
ATOM     25  N   UNL     1      -0.286  11.223  22.894  0.00  0.00    +0.000 NA
ATOM     26  C   UNL     1      -0.301  11.105  21.577  0.00  0.00    +0.000 A 
ENDBRANCH  20  26
ENDBRANCH  17  20
ENDBRANCH  11  17
ENDBRANCH   1  15
BRANCH   8  27
ATOM     27  C   UNL     1       6.890   7.189  17.955  0.00  0.00    +0.000 C 
ATOM     28  F   UNL     1       8.146   7.007  18.450  0.00  0.00    +0.000 F 
ATOM     29  F   UNL     1       7.007   8.128  16.972  0.00  0.00    +0.000 F 
ENDBRANCH   8  27
BRANCH   6  30
ATOM     30  C   UNL     1       6.041   3.887  14.190  0.00  0.00    +0.000 C 
BRANCH  30  31
ATOM     31  C   UNL     1       7.094   4.727  13.475  0.00  0.00    +0.000 C 
BRANCH  31  32
ATOM     32  O   UNL     1       7.227   4.331  12.113  0.00  0.00    +0.000 OA
ATOM     33  H   UNL     1       6.593   3.606  11.958  0.00  0.00    +0.000 HD
ENDBRANCH  31  32
ENDBRANCH  30  31
ENDBRANCH   6  30
TORSDOF 8
ENDMDL
MODEL 4
REMARK VINA RESULT:      -7.2      4.978      8.849
REMARK  Name = 
REMARK  11 active torsions:
REMARK  status: ('A' for Active; 'I' for Inactive)
REMARK    1  A    between atoms: C_1  and  N_2
REMARK    2  A    between atoms: C_6  and  C_7
REMARK    3  A    between atoms: C_7  and  C_8
REMARK    4  A    between atoms: C_8  and  C_9
REMARK    5  A    between atoms: C_8  and  C_10
REMARK    6  A    between atoms: C_8  and  C_11
REMARK    7  A    between atoms: C_15  and  N_16
REMARK    8  A    between atoms: C_21  and  C_22
REMARK    9  A    between atoms: C_22  and  C_23
REMARK   10  A    between atoms: C_23  and  O_24
REMARK   11  A    between atoms: C_26  and  C_27
REMARK                            x       y       z     vdW  Elec       q    Type
REMARK                         _______ _______ _______ _____ _____    ______ ____
ROOT
ATOM      1  N   UNL     1       0.803   8.352  21.117  0.00  0.00    +0.000 N 
ATOM      2  C   UNL     1      -0.474   8.593  20.391  0.00  0.00    +0.000 C 
ATOM      3  C   UNL     1      -0.485  10.083  20.264  0.00  0.00    +0.000 A 
ATOM      4  C   UNL     1       0.281  10.600  21.309  0.00  0.00    +0.000 A 
ATOM      5  C   UNL     1       0.638  11.928  21.395  0.00  0.00    +0.000 A 
ATOM      6  C   UNL     1       0.244  12.767  20.352  0.00  0.00    +0.000 A 
ATOM      7  C   UNL     1      -0.489  12.242  19.258  0.00  0.00    +0.000 A 
ATOM      8  C   UNL     1      -0.868  10.887  19.195  0.00  0.00    +0.000 A 
ATOM      9  C   UNL     1       1.039   9.487  21.912  0.00  0.00    +0.000 C 
ATOM     10  O   UNL     1       1.845   9.621  22.815  0.00  0.00    +0.000 OA
ENDROOT
BRANCH   1  15
ATOM     11  C   UNL     1       2.360   6.078  18.802  0.00  0.00    +0.000 A 
ATOM     12  C   UNL     1       2.351   6.922  17.674  0.00  0.00    +0.000 A 
ATOM     13  C   UNL     1       2.243   8.305  17.809  0.00  0.00    +0.000 A 
ATOM     14  C   UNL     1       2.048   8.861  19.065  0.00  0.00    +0.000 A 
ATOM     15  C   UNL     1       1.829   8.015  20.163  0.00  0.00    +0.000 A 
ATOM     16  C   UNL     1       2.116   6.658  20.055  0.00  0.00    +0.000 A 
BRANCH  11  17
ATOM     17  C   UNL     1       2.673   4.581  18.674  0.00  0.00    +0.000 C 
ATOM     18  C   UNL     1       1.520   3.793  18.005  0.00  0.00    +0.000 C 
ATOM     19  C   UNL     1       2.808   4.095  20.141  0.00  0.00    +0.000 C 
BRANCH  17  20
ATOM     20  C   UNL     1       3.995   4.225  17.927  0.00  0.00    +0.000 C 
BRANCH  20  26
ATOM     21  C   UNL     1       5.702   6.622  16.678  0.00  0.00    +0.000 C 
ATOM     22  N   UNL     1       5.968   5.873  17.876  0.00  0.00    +0.000 N 
ATOM     23  C   UNL     1       7.077   6.038  18.654  0.00  0.00    +0.000 A 
ATOM     24  N   UNL     1       7.031   5.207  19.666  0.00  0.00    +0.000 NA
ATOM     25  N   UNL     1       5.883   4.468  19.543  0.00  0.00    +0.000 NA
ATOM     26  C   UNL     1       5.240   4.866  18.459  0.00  0.00    +0.000 A 
ENDBRANCH  20  26
ENDBRANCH  17  20
ENDBRANCH  11  17
ENDBRANCH   1  15
BRANCH   8  27
ATOM     27  C   UNL     1      -1.514  10.317  17.958  0.00  0.00    +0.000 C 
ATOM     28  F   UNL     1      -0.670   9.492  17.278  0.00  0.00    +0.000 F 
ATOM     29  F   UNL     1      -2.625   9.573  18.233  0.00  0.00    +0.000 F 
ENDBRANCH   8  27
BRANCH   6  30
ATOM     30  C   UNL     1       0.686  14.213  20.365  0.00  0.00    +0.000 C 
BRANCH  30  31
ATOM     31  C   UNL     1       0.811  14.801  18.963  0.00  0.00    +0.000 C 
BRANCH  31  32
ATOM     32  O   UNL     1       2.142  14.671  18.471  0.00  0.00    +0.000 OA
ATOM     33  H   UNL     1       2.222  15.253  17.693  0.00  0.00    +0.000 HD
ENDBRANCH  31  32
ENDBRANCH  30  31
ENDBRANCH   6  30
TORSDOF 8
ENDMDL
MODEL 5
REMARK VINA RESULT:      -7.2      5.546      9.449
REMARK  Name = 
REMARK  11 active torsions:
REMARK  status: ('A' for Active; 'I' for Inactive)
REMARK    1  A    between atoms: C_1  and  N_2
REMARK    2  A    between atoms: C_6  and  C_7
REMARK    3  A    between atoms: C_7  and  C_8
REMARK    4  A    between atoms: C_8  and  C_9
REMARK    5  A    between atoms: C_8  and  C_10
REMARK    6  A    between atoms: C_8  and  C_11
REMARK    7  A    between atoms: C_15  and  N_16
REMARK    8  A    between atoms: C_21  and  C_22
REMARK    9  A    between atoms: C_22  and  C_23
REMARK   10  A    between atoms: C_23  and  O_24
REMARK   11  A    between atoms: C_26  and  C_27
REMARK                            x       y       z     vdW  Elec       q    Type
REMARK                         _______ _______ _______ _____ _____    ______ ____
ROOT
ATOM      1  N   UNL     1       2.614   7.756  19.357  0.00  0.00    +0.000 N 
ATOM      2  C   UNL     1       2.161   8.591  20.503  0.00  0.00    +0.000 C 
ATOM      3  C   UNL     1       0.997   9.323  19.915  0.00  0.00    +0.000 A 
ATOM      4  C   UNL     1       1.197   9.392  18.536  0.00  0.00    +0.000 A 
ATOM      5  C   UNL     1       0.234   9.838  17.658  0.00  0.00    +0.000 A 
ATOM      6  C   UNL     1      -1.009  10.185  18.190  0.00  0.00    +0.000 A 
ATOM      7  C   UNL     1      -1.241  10.067  19.584  0.00  0.00    +0.000 A 
ATOM      8  C   UNL     1      -0.239   9.634  20.473  0.00  0.00    +0.000 A 
ATOM      9  C   UNL     1       2.285   8.459  18.186  0.00  0.00    +0.000 C 
ATOM     10  O   UNL     1       2.661   8.247  17.047  0.00  0.00    +0.000 OA
ENDROOT
BRANCH   1  15
ATOM     11  C   UNL     1       2.830   4.174  19.076  0.00  0.00    +0.000 A 
ATOM     12  C   UNL     1       2.489   3.860  20.406  0.00  0.00    +0.000 A 
ATOM     13  C   UNL     1       1.798   4.767  21.207  0.00  0.00    +0.000 A 
ATOM     14  C   UNL     1       1.519   6.038  20.724  0.00  0.00    +0.000 A 
ATOM     15  C   UNL     1       2.054   6.435  19.489  0.00  0.00    +0.000 A 
ATOM     16  C   UNL     1       2.579   5.479  18.627  0.00  0.00    +0.000 A 
BRANCH  11  17
ATOM     17  C   UNL     1       3.415   3.114  18.132  0.00  0.00    +0.000 C 
ATOM     18  C   UNL     1       2.334   2.465  17.234  0.00  0.00    +0.000 C 
ATOM     19  C   UNL     1       3.976   2.026  19.083  0.00  0.00    +0.000 C 
BRANCH  17  20
ATOM     20  C   UNL     1       4.580   3.594  17.212  0.00  0.00    +0.000 C 
BRANCH  20  26
ATOM     21  C   UNL     1       5.552   6.484  16.251  0.00  0.00    +0.000 C 
ATOM     22  N   UNL     1       6.003   5.728  17.388  0.00  0.00    +0.000 N 
ATOM     23  C   UNL     1       7.009   6.123  18.222  0.00  0.00    +0.000 A 
ATOM     24  N   UNL     1       7.187   5.219  19.153  0.00  0.00    +0.000 NA
ATOM     25  N   UNL     1       6.298   4.202  18.919  0.00  0.00    +0.000 NA
ATOM     26  C   UNL     1       5.584   4.505  17.849  0.00  0.00    +0.000 A 
ENDBRANCH  20  26
ENDBRANCH  17  20
ENDBRANCH  11  17
ENDBRANCH   1  15
BRANCH   8  27
ATOM     27  C   UNL     1      -0.547   9.372  21.925  0.00  0.00    +0.000 C 
ATOM     28  F   UNL     1      -0.693   8.043  22.183  0.00  0.00    +0.000 F 
ATOM     29  F   UNL     1       0.434   9.812  22.765  0.00  0.00    +0.000 F 
ENDBRANCH   8  27
BRANCH   6  30
ATOM     30  C   UNL     1      -2.120  10.599  17.253  0.00  0.00    +0.000 C 
BRANCH  30  31
ATOM     31  C   UNL     1      -3.076  11.606  17.884  0.00  0.00    +0.000 C 
BRANCH  31  32
ATOM     32  O   UNL     1      -4.095  11.989  16.964  0.00  0.00    +0.000 OA
ATOM     33  H   UNL     1      -4.079  11.349  16.229  0.00  0.00    +0.000 HD
ENDBRANCH  31  32
ENDBRANCH  30  31
ENDBRANCH   6  30
TORSDOF 8
ENDMDL
MODEL 6
REMARK VINA RESULT:      -7.0      5.112      8.935
REMARK  Name = 
REMARK  11 active torsions:
REMARK  status: ('A' for Active; 'I' for Inactive)
REMARK    1  A    between atoms: C_1  and  N_2
REMARK    2  A    between atoms: C_6  and  C_7
REMARK    3  A    between atoms: C_7  and  C_8
REMARK    4  A    between atoms: C_8  and  C_9
REMARK    5  A    between atoms: C_8  and  C_10
REMARK    6  A    between atoms: C_8  and  C_11
REMARK    7  A    between atoms: C_15  and  N_16
REMARK    8  A    between atoms: C_21  and  C_22
REMARK    9  A    between atoms: C_22  and  C_23
REMARK   10  A    between atoms: C_23  and  O_24
REMARK   11  A    between atoms: C_26  and  C_27
REMARK                            x       y       z     vdW  Elec       q    Type
REMARK                         _______ _______ _______ _____ _____    ______ ____
ROOT
ATOM      1  N   UNL     1       0.727   8.221  21.325  0.00  0.00    +0.000 N 
ATOM      2  C   UNL     1      -0.534   8.424  20.561  0.00  0.00    +0.000 C 
ATOM      3  C   UNL     1      -0.437   9.866  20.175  0.00  0.00    +0.000 A 
ATOM      4  C   UNL     1       0.374  10.499  21.117  0.00  0.00    +0.000 A 
ATOM      5  C   UNL     1       0.827  11.792  20.971  0.00  0.00    +0.000 A 
ATOM      6  C   UNL     1       0.489  12.463  19.795  0.00  0.00    +0.000 A 
ATOM      7  C   UNL     1      -0.289  11.809  18.806  0.00  0.00    +0.000 A 
ATOM      8  C   UNL     1      -0.767  10.496  18.980  0.00  0.00    +0.000 A 
ATOM      9  C   UNL     1       1.052   9.457  21.910  0.00  0.00    +0.000 C 
ATOM     10  O   UNL     1       1.872   9.686  22.781  0.00  0.00    +0.000 OA
ENDROOT
BRANCH   1  15
ATOM     11  C   UNL     1       2.024   5.509  19.345  0.00  0.00    +0.000 A 
ATOM     12  C   UNL     1       2.140   6.205  18.126  0.00  0.00    +0.000 A 
ATOM     13  C   UNL     1       2.205   7.597  18.093  0.00  0.00    +0.000 A 
ATOM     14  C   UNL     1       2.061   8.320  19.268  0.00  0.00    +0.000 A 
ATOM     15  C   UNL     1       1.718   7.646  20.450  0.00  0.00    +0.000 A 
ATOM     16  C   UNL     1       1.833   6.262  20.512  0.00  0.00    +0.000 A 
BRANCH  11  17
ATOM     17  C   UNL     1       2.147   3.980  19.405  0.00  0.00    +0.000 C 
ATOM     18  C   UNL     1       1.425   3.284  18.225  0.00  0.00    +0.000 C 
ATOM     19  C   UNL     1       1.420   3.592  20.718  0.00  0.00    +0.000 C 
BRANCH  17  20
ATOM     20  C   UNL     1       3.601   3.420  19.477  0.00  0.00    +0.000 C 
BRANCH  20  26
ATOM     21  C   UNL     1       6.109   5.397  19.346  0.00  0.00    +0.000 C 
ATOM     22  N   UNL     1       5.534   4.621  18.281  0.00  0.00    +0.000 N 
ATOM     23  C   UNL     1       5.953   4.671  16.983  0.00  0.00    +0.000 A 
ATOM     24  N   UNL     1       5.228   3.856  16.257  0.00  0.00    +0.000 NA
ATOM     25  N   UNL     1       4.304   3.273  17.085  0.00  0.00    +0.000 NA
ATOM     26  C   UNL     1       4.484   3.738  18.310  0.00  0.00    +0.000 A 
ENDBRANCH  20  26
ENDBRANCH  17  20
ENDBRANCH  11  17
ENDBRANCH   1  15
BRANCH   8  27
ATOM     27  C   UNL     1      -1.463   9.767  17.858  0.00  0.00    +0.000 C 
ATOM     28  F   UNL     1      -2.747   9.447  18.180  0.00  0.00    +0.000 F 
ATOM     29  F   UNL     1      -1.536  10.502  16.711  0.00  0.00    +0.000 F 
ENDBRANCH   8  27
BRANCH   6  30
ATOM     30  C   UNL     1       1.036  13.851  19.557  0.00  0.00    +0.000 C 
BRANCH  30  31
ATOM     31  C   UNL     1      -0.016  14.938  19.751  0.00  0.00    +0.000 C 
BRANCH  31  32
ATOM     32  O   UNL     1      -0.516  15.396  18.497  0.00  0.00    +0.000 OA
ATOM     33  H   UNL     1      -1.400  15.775  18.658  0.00  0.00    +0.000 HD
ENDBRANCH  31  32
ENDBRANCH  30  31
ENDBRANCH   6  30
TORSDOF 8
ENDMDL
MODEL 7
REMARK VINA RESULT:      -6.9      6.768      9.788
REMARK  Name = 
REMARK  11 active torsions:
REMARK  status: ('A' for Active; 'I' for Inactive)
REMARK    1  A    between atoms: C_1  and  N_2
REMARK    2  A    between atoms: C_6  and  C_7
REMARK    3  A    between atoms: C_7  and  C_8
REMARK    4  A    between atoms: C_8  and  C_9
REMARK    5  A    between atoms: C_8  and  C_10
REMARK    6  A    between atoms: C_8  and  C_11
REMARK    7  A    between atoms: C_15  and  N_16
REMARK    8  A    between atoms: C_21  and  C_22
REMARK    9  A    between atoms: C_22  and  C_23
REMARK   10  A    between atoms: C_23  and  O_24
REMARK   11  A    between atoms: C_26  and  C_27
REMARK                            x       y       z     vdW  Elec       q    Type
REMARK                         _______ _______ _______ _____ _____    ______ ____
ROOT
ATOM      1  N   UNL     1       3.583   4.904  18.934  0.00  0.00    +0.000 N 
ATOM      2  C   UNL     1       4.935   5.396  19.315  0.00  0.00    +0.000 C 
ATOM      3  C   UNL     1       5.717   5.164  18.061  0.00  0.00    +0.000 A 
ATOM      4  C   UNL     1       5.097   4.124  17.367  0.00  0.00    +0.000 A 
ATOM      5  C   UNL     1       5.443   3.769  16.081  0.00  0.00    +0.000 A 
ATOM      6  C   UNL     1       6.426   4.528  15.447  0.00  0.00    +0.000 A 
ATOM      7  C   UNL     1       7.023   5.621  16.123  0.00  0.00    +0.000 A 
ATOM      8  C   UNL     1       6.679   5.959  17.446  0.00  0.00    +0.000 A 
ATOM      9  C   UNL     1       3.772   3.896  17.973  0.00  0.00    +0.000 C 
ATOM     10  O   UNL     1       2.961   3.089  17.557  0.00  0.00    +0.000 OA
ENDROOT
BRANCH   1  15
ATOM     11  C   UNL     1       1.869   7.991  19.633  0.00  0.00    +0.000 A 
ATOM     12  C   UNL     1       2.481   8.775  18.636  0.00  0.00    +0.000 A 
ATOM     13  C   UNL     1       3.086   8.189  17.526  0.00  0.00    +0.000 A 
ATOM     14  C   UNL     1       3.174   6.807  17.441  0.00  0.00    +0.000 A 
ATOM     15  C   UNL     1       2.771   6.025  18.535  0.00  0.00    +0.000 A 
ATOM     16  C   UNL     1       2.010   6.598  19.547  0.00  0.00    +0.000 A 
BRANCH  11  17
ATOM     17  C   UNL     1       1.034   8.631  20.751  0.00  0.00    +0.000 C 
ATOM     18  C   UNL     1       1.916   9.262  21.857  0.00  0.00    +0.000 C 
ATOM     19  C   UNL     1       0.253   7.443  21.369  0.00  0.00    +0.000 C 
BRANCH  17  20
ATOM     20  C   UNL     1      -0.003   9.703  20.294  0.00  0.00    +0.000 C 
BRANCH  20  26
ATOM     21  C   UNL     1       1.610  11.984  18.741  0.00  0.00    +0.000 C 
ATOM     22  N   UNL     1       1.005  12.055  20.043  0.00  0.00    +0.000 N 
ATOM     23  C   UNL     1       1.096  13.134  20.874  0.00  0.00    +0.000 A 
ATOM     24  N   UNL     1       0.447  12.888  21.985  0.00  0.00    +0.000 NA
ATOM     25  N   UNL     1      -0.063  11.618  21.895  0.00  0.00    +0.000 NA
ATOM     26  C   UNL     1       0.277  11.110  20.723  0.00  0.00    +0.000 A 
ENDBRANCH  20  26
ENDBRANCH  17  20
ENDBRANCH  11  17
ENDBRANCH   1  15
BRANCH   8  27
ATOM     27  C   UNL     1       7.214   7.210  18.095  0.00  0.00    +0.000 C 
ATOM     28  F   UNL     1       8.364   6.973  18.785  0.00  0.00    +0.000 F 
ATOM     29  F   UNL     1       7.512   8.191  17.194  0.00  0.00    +0.000 F 
ENDBRANCH   8  27
BRANCH   6  30
ATOM     30  C   UNL     1       6.775   4.226  14.007  0.00  0.00    +0.000 C 
BRANCH  30  31
ATOM     31  C   UNL     1       5.612   3.606  13.239  0.00  0.00    +0.000 C 
BRANCH  31  32
ATOM     32  O   UNL     1       6.079   2.674  12.268  0.00  0.00    +0.000 OA
ATOM     33  H   UNL     1       5.326   2.104  12.027  0.00  0.00    +0.000 HD
ENDBRANCH  31  32
ENDBRANCH  30  31
ENDBRANCH   6  30
TORSDOF 8
ENDMDL
MODEL 8
REMARK VINA RESULT:      -6.9      6.667      9.648
REMARK  Name = 
REMARK  11 active torsions:
REMARK  status: ('A' for Active; 'I' for Inactive)
REMARK    1  A    between atoms: C_1  and  N_2
REMARK    2  A    between atoms: C_6  and  C_7
REMARK    3  A    between atoms: C_7  and  C_8
REMARK    4  A    between atoms: C_8  and  C_9
REMARK    5  A    between atoms: C_8  and  C_10
REMARK    6  A    between atoms: C_8  and  C_11
REMARK    7  A    between atoms: C_15  and  N_16
REMARK    8  A    between atoms: C_21  and  C_22
REMARK    9  A    between atoms: C_22  and  C_23
REMARK   10  A    between atoms: C_23  and  O_24
REMARK   11  A    between atoms: C_26  and  C_27
REMARK                            x       y       z     vdW  Elec       q    Type
REMARK                         _______ _______ _______ _____ _____    ______ ____
ROOT
ATOM      1  N   UNL     1       3.615   5.024  19.025  0.00  0.00    +0.000 N 
ATOM      2  C   UNL     1       4.973   5.539  19.352  0.00  0.00    +0.000 C 
ATOM      3  C   UNL     1       5.723   5.269  18.087  0.00  0.00    +0.000 A 
ATOM      4  C   UNL     1       5.094   4.202  17.445  0.00  0.00    +0.000 A 
ATOM      5  C   UNL     1       5.409   3.804  16.164  0.00  0.00    +0.000 A 
ATOM      6  C   UNL     1       6.369   4.548  15.478  0.00  0.00    +0.000 A 
ATOM      7  C   UNL     1       6.974   5.669  16.101  0.00  0.00    +0.000 A 
ATOM      8  C   UNL     1       6.662   6.049  17.420  0.00  0.00    +0.000 A 
ATOM      9  C   UNL     1       3.787   3.985  18.095  0.00  0.00    +0.000 C 
ATOM     10  O   UNL     1       2.972   3.157  17.728  0.00  0.00    +0.000 OA
ENDROOT
BRANCH   1  15
ATOM     11  C   UNL     1       1.808   8.065  19.688  0.00  0.00    +0.000 A 
ATOM     12  C   UNL     1       2.421   8.866  18.706  0.00  0.00    +0.000 A 
ATOM     13  C   UNL     1       3.066   8.297  17.609  0.00  0.00    +0.000 A 
ATOM     14  C   UNL     1       3.190   6.918  17.525  0.00  0.00    +0.000 A 
ATOM     15  C   UNL     1       2.784   6.125  18.609  0.00  0.00    +0.000 A 
ATOM     16  C   UNL     1       1.986   6.677  19.605  0.00  0.00    +0.000 A 
BRANCH  11  17
ATOM     17  C   UNL     1       0.933   8.682  20.789  0.00  0.00    +0.000 C 
ATOM     18  C   UNL     1       1.773   9.298  21.934  0.00  0.00    +0.000 C 
ATOM     19  C   UNL     1       0.138   7.480  21.360  0.00  0.00    +0.000 C 
BRANCH  17  20
ATOM     20  C   UNL     1      -0.095   9.756  20.315  0.00  0.00    +0.000 C 
BRANCH  20  26
ATOM     21  C   UNL     1      -1.266  11.285  22.866  0.00  0.00    +0.000 C 
ATOM     22  N   UNL     1      -0.381  11.795  21.855  0.00  0.00    +0.000 N 
ATOM     23  C   UNL     1       0.052  13.088  21.796  0.00  0.00    +0.000 A 
ATOM     24  N   UNL     1       0.838  13.240  20.758  0.00  0.00    +0.000 NA
ATOM     25  N   UNL     1       0.908  12.034  20.111  0.00  0.00    +0.000 NA
ATOM     26  C   UNL     1       0.168  11.158  20.769  0.00  0.00    +0.000 A 
ENDBRANCH  20  26
ENDBRANCH  17  20
ENDBRANCH  11  17
ENDBRANCH   1  15
BRANCH   8  27
ATOM     27  C   UNL     1       7.203   7.326  18.011  0.00  0.00    +0.000 C 
ATOM     28  F   UNL     1       8.361   7.118  18.698  0.00  0.00    +0.000 F 
ATOM     29  F   UNL     1       7.492   8.268  17.067  0.00  0.00    +0.000 F 
ENDBRANCH   8  27
BRANCH   6  30
ATOM     30  C   UNL     1       6.682   4.199  14.042  0.00  0.00    +0.000 C 
BRANCH  30  31
ATOM     31  C   UNL     1       5.455   3.718  13.273  0.00  0.00    +0.000 C 
BRANCH  31  32
ATOM     32  O   UNL     1       5.830   3.106  12.042  0.00  0.00    +0.000 OA
ATOM     33  H   UNL     1       5.634   3.742  11.330  0.00  0.00    +0.000 HD
ENDBRANCH  31  32
ENDBRANCH  30  31
ENDBRANCH   6  30
TORSDOF 8
ENDMDL
MODEL 9
REMARK VINA RESULT:      -6.9      5.828      9.723
REMARK  Name = 
REMARK  11 active torsions:
REMARK  status: ('A' for Active; 'I' for Inactive)
REMARK    1  A    between atoms: C_1  and  N_2
REMARK    2  A    between atoms: C_6  and  C_7
REMARK    3  A    between atoms: C_7  and  C_8
REMARK    4  A    between atoms: C_8  and  C_9
REMARK    5  A    between atoms: C_8  and  C_10
REMARK    6  A    between atoms: C_8  and  C_11
REMARK    7  A    between atoms: C_15  and  N_16
REMARK    8  A    between atoms: C_21  and  C_22
REMARK    9  A    between atoms: C_22  and  C_23
REMARK   10  A    between atoms: C_23  and  O_24
REMARK   11  A    between atoms: C_26  and  C_27
REMARK                            x       y       z     vdW  Elec       q    Type
REMARK                         _______ _______ _______ _____ _____    ______ ____
ROOT
ATOM      1  N   UNL     1       2.590   7.773  19.360  0.00  0.00    +0.000 N 
ATOM      2  C   UNL     1       2.225   8.552  20.575  0.00  0.00    +0.000 C 
ATOM      3  C   UNL     1       1.070   9.367  20.089  0.00  0.00    +0.000 A 
ATOM      4  C   UNL     1       1.211   9.515  18.709  0.00  0.00    +0.000 A 
ATOM      5  C   UNL     1       0.230  10.055  17.906  0.00  0.00    +0.000 A 
ATOM      6  C   UNL     1      -0.971  10.419  18.516  0.00  0.00    +0.000 A 
ATOM      7  C   UNL     1      -1.145  10.222  19.909  0.00  0.00    +0.000 A 
ATOM      8  C   UNL     1      -0.125   9.692  20.722  0.00  0.00    +0.000 A 
ATOM      9  C   UNL     1       2.240   8.562  18.251  0.00  0.00    +0.000 C 
ATOM     10  O   UNL     1       2.556   8.406  17.085  0.00  0.00    +0.000 OA
ENDROOT
BRANCH   1  15
ATOM     11  C   UNL     1       2.707   4.188  19.056  0.00  0.00    +0.000 A 
ATOM     12  C   UNL     1       2.261   3.875  20.355  0.00  0.00    +0.000 A 
ATOM     13  C   UNL     1       1.545   4.797  21.114  0.00  0.00    +0.000 A 
ATOM     14  C   UNL     1       1.344   6.081  20.627  0.00  0.00    +0.000 A 
ATOM     15  C   UNL     1       1.978   6.470  19.437  0.00  0.00    +0.000 A 
ATOM     16  C   UNL     1       2.532   5.504  18.605  0.00  0.00    +0.000 A 
BRANCH  11  17
ATOM     17  C   UNL     1       3.323   3.117  18.144  0.00  0.00    +0.000 C 
ATOM     18  C   UNL     1       2.247   2.256  17.438  0.00  0.00    +0.000 C 
ATOM     19  C   UNL     1       4.118   2.205  19.113  0.00  0.00    +0.000 C 
BRANCH  17  20
ATOM     20  C   UNL     1       4.311   3.640  17.056  0.00  0.00    +0.000 C 
BRANCH  20  26
ATOM     21  C   UNL     1       6.914   4.459  15.392  0.00  0.00    +0.000 C 
ATOM     22  N   UNL     1       6.727   4.485  16.817  0.00  0.00    +0.000 N 
ATOM     23  C   UNL     1       7.704   4.812  17.712  0.00  0.00    +0.000 A 
ATOM     24  N   UNL     1       7.225   4.736  18.930  0.00  0.00    +0.000 NA
ATOM     25  N   UNL     1       5.919   4.332  18.838  0.00  0.00    +0.000 NA
ATOM     26  C   UNL     1       5.615   4.175  17.560  0.00  0.00    +0.000 A 
ENDBRANCH  20  26
ENDBRANCH  17  20
ENDBRANCH  11  17
ENDBRANCH   1  15
BRANCH   8  27
ATOM     27  C   UNL     1      -0.380   9.353  22.168  0.00  0.00    +0.000 C 
ATOM     28  F   UNL     1      -1.207  10.256  22.765  0.00  0.00    +0.000 F 
ATOM     29  F   UNL     1      -0.973   8.136  22.333  0.00  0.00    +0.000 F 
ENDBRANCH   8  27
BRANCH   6  30
ATOM     30  C   UNL     1      -2.103  10.936  17.659  0.00  0.00    +0.000 C 
BRANCH  30  31
ATOM     31  C   UNL     1      -2.839   9.821  16.923  0.00  0.00    +0.000 C 
BRANCH  31  32
ATOM     32  O   UNL     1      -3.772   9.170  17.781  0.00  0.00    +0.000 OA
ATOM     33  H   UNL     1      -3.265   8.570  18.359  0.00  0.00    +0.000 HD
ENDBRANCH  31  32
ENDBRANCH  30  31
ENDBRANCH   6  30
TORSDOF 8
ENDMDL
