MODEL 1
REMARK VINA RESULT:      -8.9      0.000      0.000
REMARK  Name = 
REMARK  2 active torsions:
REMARK  status: ('A' for Active; 'I' for Inactive)
REMARK    1  A    between atoms: C_2  and  C_3
REMARK    2  A    between atoms: C_20  and  C_21
REMARK                            x       y       z     vdW  Elec       q    Type
REMARK                         _______ _______ _______ _____ _____    ______ ____
ROOT
ATOM      1  O   UNL     1       3.302   5.615  20.174  0.00  0.00    +0.000 OA
ATOM      2  C   UNL     1       3.289   6.179  19.079  0.00  0.00    +0.000 C 
ATOM      3  N   UNL     1       2.589   7.357  18.806  0.00  0.00    +0.000 N 
ATOM      4  C   UNL     1       2.562   8.105  17.536  0.00  0.00    +0.000 C 
ATOM      5  C   UNL     1       1.925   9.465  17.803  0.00  0.00    +0.000 C 
ATOM      6  C   UNL     1       1.312   9.256  19.153  0.00  0.00    +0.000 A 
ATOM      7  C   UNL     1       1.765   8.054  19.723  0.00  0.00    +0.000 A 
ATOM      8  C   UNL     1       1.388   7.705  21.006  0.00  0.00    +0.000 A 
ATOM      9  C   UNL     1       0.536   8.561  21.712  0.00  0.00    +0.000 A 
ATOM     10  C   UNL     1       0.076   9.755  21.132  0.00  0.00    +0.000 A 
ATOM     11  C   UNL     1       0.464  10.129  19.835  0.00  0.00    +0.000 A 
ENDROOT
BRANCH   2  12
ATOM     12  C   UNL     1       4.146   5.571  18.010  0.00  0.00    +0.000 A 
ATOM     13  C   UNL     1       3.810   4.372  17.360  0.00  0.00    +0.000 A 
ATOM     14  C   UNL     1       4.546   3.875  16.278  0.00  0.00    +0.000 A 
ATOM     15  C   UNL     1       5.703   4.576  15.955  0.00  0.00    +0.000 A 
ATOM     16  N   UNL     1       6.673   4.391  15.011  0.00  0.00    +0.000 N 
ATOM     17  N   UNL     1       7.644   5.311  15.108  0.00  0.00    +0.000 NA
ATOM     18  N   UNL     1       7.320   6.129  16.103  0.00  0.00    +0.000 NA
ATOM     19  C   UNL     1       6.130   5.708  16.634  0.00  0.00    +0.000 A 
ATOM     20  C   UNL     1       5.345   6.229  17.675  0.00  0.00    +0.000 A 
ATOM     21  H   UNL     1       6.743   3.677  14.296  0.00  0.00    +0.000 HD
ENDBRANCH   2  12
BRANCH  11  22
ATOM     22  C   UNL     1      -0.037  11.424  19.247  0.00  0.00    +0.000 C 
ATOM     23  F   UNL     1       0.944  12.305  18.901  0.00  0.00    +0.000 F 
ATOM     24  F   UNL     1      -0.766  11.231  18.112  0.00  0.00    +0.000 F 
ATOM     25  F   UNL     1      -0.850  12.105  20.101  0.00  0.00    +0.000 F 
ENDBRANCH  11  22
TORSDOF 2
ENDMDL
MODEL 2
REMARK VINA RESULT:      -8.5      0.984      1.249
REMARK  Name = 
REMARK  2 active torsions:
REMARK  status: ('A' for Active; 'I' for Inactive)
REMARK    1  A    between atoms: C_2  and  C_3
REMARK    2  A    between atoms: C_20  and  C_21
REMARK                            x       y       z     vdW  Elec       q    Type
REMARK                         _______ _______ _______ _____ _____    ______ ____
ROOT
ATOM      1  O   UNL     1       2.902   5.751  20.731  0.00  0.00    +0.000 OA
ATOM      2  C   UNL     1       3.022   6.248  19.611  0.00  0.00    +0.000 C 
ATOM      3  N   UNL     1       2.388   7.422  19.195  0.00  0.00    +0.000 N 
ATOM      4  C   UNL     1       2.518   8.092  17.889  0.00  0.00    +0.000 C 
ATOM      5  C   UNL     1       1.893   9.478  18.005  0.00  0.00    +0.000 C 
ATOM      6  C   UNL     1       1.132   9.364  19.289  0.00  0.00    +0.000 A 
ATOM      7  C   UNL     1       1.488   8.190  19.974  0.00  0.00    +0.000 A 
ATOM      8  C   UNL     1       0.965   7.926  21.226  0.00  0.00    +0.000 A 
ATOM      9  C   UNL     1       0.065   8.839  21.783  0.00  0.00    +0.000 A 
ATOM     10  C   UNL     1      -0.298  10.006  21.089  0.00  0.00    +0.000 A 
ATOM     11  C   UNL     1       0.238  10.293  19.822  0.00  0.00    +0.000 A 
ENDROOT
BRANCH   2  12
ATOM     12  C   UNL     1       3.974   5.560  18.679  0.00  0.00    +0.000 A 
ATOM     13  C   UNL     1       3.553   4.923  17.501  0.00  0.00    +0.000 A 
ATOM     14  C   UNL     1       4.455   4.392  16.572  0.00  0.00    +0.000 A 
ATOM     15  C   UNL     1       5.797   4.427  16.939  0.00  0.00    +0.000 A 
ATOM     16  N   UNL     1       6.941   3.992  16.333  0.00  0.00    +0.000 N 
ATOM     17  N   UNL     1       8.021   4.200  17.100  0.00  0.00    +0.000 NA
ATOM     18  N   UNL     1       7.610   4.795  18.214  0.00  0.00    +0.000 NA
ATOM     19  C   UNL     1       6.252   4.955  18.138  0.00  0.00    +0.000 A 
ATOM     20  C   UNL     1       5.338   5.540  19.029  0.00  0.00    +0.000 A 
ATOM     21  H   UNL     1       7.059   3.549  15.430  0.00  0.00    +0.000 HD
ENDBRANCH   2  12
BRANCH  11  22
ATOM     22  C   UNL     1      -0.161  11.560  19.110  0.00  0.00    +0.000 C 
ATOM     23  F   UNL     1      -0.815  11.365  17.930  0.00  0.00    +0.000 F 
ATOM     24  F   UNL     1      -0.995  12.335  19.860  0.00  0.00    +0.000 F 
ATOM     25  F   UNL     1       0.907  12.348  18.807  0.00  0.00    +0.000 F 
ENDBRANCH  11  22
TORSDOF 2
ENDMDL
MODEL 3
REMARK VINA RESULT:      -8.2      4.586      8.083
REMARK  Name = 
REMARK  2 active torsions:
REMARK  status: ('A' for Active; 'I' for Inactive)
REMARK    1  A    between atoms: C_2  and  C_3
REMARK    2  A    between atoms: C_20  and  C_21
REMARK                            x       y       z     vdW  Elec       q    Type
REMARK                         _______ _______ _______ _____ _____    ______ ____
ROOT
ATOM      1  O   UNL     1       2.843   8.660  17.988  0.00  0.00    +0.000 OA
ATOM      2  C   UNL     1       2.189   8.086  18.859  0.00  0.00    +0.000 C 
ATOM      3  N   UNL     1       2.261   6.716  19.125  0.00  0.00    +0.000 N 
ATOM      4  C   UNL     1       1.541   5.973  20.175  0.00  0.00    +0.000 C 
ATOM      5  C   UNL     1       2.162   4.584  20.279  0.00  0.00    +0.000 C 
ATOM      6  C   UNL     1       2.976   4.517  19.025  0.00  0.00    +0.000 A 
ATOM      7  C   UNL     1       3.056   5.781  18.417  0.00  0.00    +0.000 A 
ATOM      8  C   UNL     1       3.831   5.966  17.288  0.00  0.00    +0.000 A 
ATOM      9  C   UNL     1       4.513   4.868  16.756  0.00  0.00    +0.000 A 
ATOM     10  C   UNL     1       4.420   3.602  17.359  0.00  0.00    +0.000 A 
ATOM     11  C   UNL     1       3.648   3.405  18.516  0.00  0.00    +0.000 A 
ENDROOT
BRANCH   2  12
ATOM     12  C   UNL     1       1.320   8.956  19.717  0.00  0.00    +0.000 A 
ATOM     13  C   UNL     1       0.430   9.900  19.181  0.00  0.00    +0.000 A 
ATOM     14  C   UNL     1      -0.468  10.620  19.977  0.00  0.00    +0.000 A 
ATOM     15  C   UNL     1      -0.349  10.431  21.350  0.00  0.00    +0.000 A 
ATOM     16  N   UNL     1      -1.005  10.961  22.425  0.00  0.00    +0.000 N 
ATOM     17  N   UNL     1      -0.506  10.510  23.586  0.00  0.00    +0.000 NA
ATOM     18  N   UNL     1       0.471   9.659  23.295  0.00  0.00    +0.000 NA
ATOM     19  C   UNL     1       0.583   9.584  21.932  0.00  0.00    +0.000 A 
ATOM     20  C   UNL     1       1.433   8.823  21.114  0.00  0.00    +0.000 A 
ATOM     21  H   UNL     1      -1.771  11.623  22.445  0.00  0.00    +0.000 HD
ENDBRANCH   2  12
BRANCH  11  22
ATOM     22  C   UNL     1       3.580   2.037  19.147  0.00  0.00    +0.000 C 
ATOM     23  F   UNL     1       4.060   1.029  18.366  0.00  0.00    +0.000 F 
ATOM     24  F   UNL     1       4.293   1.965  20.307  0.00  0.00    +0.000 F 
ATOM     25  F   UNL     1       2.308   1.672  19.469  0.00  0.00    +0.000 F 
ENDBRANCH  11  22
TORSDOF 2
ENDMDL
MODEL 4
REMARK VINA RESULT:      -8.1      2.119      2.882
REMARK  Name = 
REMARK  2 active torsions:
REMARK  status: ('A' for Active; 'I' for Inactive)
REMARK    1  A    between atoms: C_2  and  C_3
REMARK    2  A    between atoms: C_20  and  C_21
REMARK                            x       y       z     vdW  Elec       q    Type
REMARK                         _______ _______ _______ _____ _____    ______ ____
ROOT
ATOM      1  O   UNL     1       2.584   8.803  16.975  0.00  0.00    +0.000 OA
ATOM      2  C   UNL     1       2.722   7.995  17.893  0.00  0.00    +0.000 C 
ATOM      3  N   UNL     1       2.148   8.132  19.160  0.00  0.00    +0.000 N 
ATOM      4  C   UNL     1       2.238   7.187  20.288  0.00  0.00    +0.000 C 
ATOM      5  C   UNL     1       1.215   7.607  21.338  0.00  0.00    +0.000 C 
ATOM      6  C   UNL     1       0.852   8.984  20.878  0.00  0.00    +0.000 A 
ATOM      7  C   UNL     1       1.362   9.228  19.592  0.00  0.00    +0.000 A 
ATOM      8  C   UNL     1       1.073  10.411  18.939  0.00  0.00    +0.000 A 
ATOM      9  C   UNL     1       0.282  11.362  19.592  0.00  0.00    +0.000 A 
ATOM     10  C   UNL     1      -0.215  11.119  20.883  0.00  0.00    +0.000 A 
ATOM     11  C   UNL     1       0.059   9.913  21.551  0.00  0.00    +0.000 A 
ENDROOT
BRANCH   2  12
ATOM     12  C   UNL     1       3.508   6.758  17.575  0.00  0.00    +0.000 A 
ATOM     13  C   UNL     1       3.021   5.465  17.823  0.00  0.00    +0.000 A 
ATOM     14  C   UNL     1       3.702   4.315  17.410  0.00  0.00    +0.000 A 
ATOM     15  C   UNL     1       4.953   4.521  16.839  0.00  0.00    +0.000 A 
ATOM     16  N   UNL     1       5.908   3.674  16.353  0.00  0.00    +0.000 N 
ATOM     17  N   UNL     1       6.998   4.336  15.937  0.00  0.00    +0.000 NA
ATOM     18  N   UNL     1       6.771   5.632  16.122  0.00  0.00    +0.000 NA
ATOM     19  C   UNL     1       5.521   5.775  16.665  0.00  0.00    +0.000 A 
ATOM     20  C   UNL     1       4.795   6.921  17.028  0.00  0.00    +0.000 A 
ATOM     21  H   UNL     1       5.893   2.664  16.284  0.00  0.00    +0.000 HD
ENDBRANCH   2  12
BRANCH  11  22
ATOM     22  C   UNL     1      -0.502   9.678  22.931  0.00  0.00    +0.000 C 
ATOM     23  F   UNL     1       0.433   9.631  23.922  0.00  0.00    +0.000 F 
ATOM     24  F   UNL     1      -1.379  10.651  23.307  0.00  0.00    +0.000 F 
ATOM     25  F   UNL     1      -1.187   8.504  23.023  0.00  0.00    +0.000 F 
ENDBRANCH  11  22
TORSDOF 2
ENDMDL
MODEL 5
REMARK VINA RESULT:      -7.9      2.613      3.588
REMARK  Name = 
REMARK  2 active torsions:
REMARK  status: ('A' for Active; 'I' for Inactive)
REMARK    1  A    between atoms: C_2  and  C_3
REMARK    2  A    between atoms: C_20  and  C_21
REMARK                            x       y       z     vdW  Elec       q    Type
REMARK                         _______ _______ _______ _____ _____    ______ ____
ROOT
ATOM      1  O   UNL     1       2.454   8.583  17.116  0.00  0.00    +0.000 OA
ATOM      2  C   UNL     1       2.489   7.818  18.080  0.00  0.00    +0.000 C 
ATOM      3  N   UNL     1       1.931   8.097  19.330  0.00  0.00    +0.000 N 
ATOM      4  C   UNL     1       1.901   7.215  20.511  0.00  0.00    +0.000 C 
ATOM      5  C   UNL     1       0.932   7.816  21.524  0.00  0.00    +0.000 C 
ATOM      6  C   UNL     1       0.740   9.198  20.982  0.00  0.00    +0.000 A 
ATOM      7  C   UNL     1       1.282   9.304  19.690  0.00  0.00    +0.000 A 
ATOM      8  C   UNL     1       1.141  10.473  18.968  0.00  0.00    +0.000 A 
ATOM      9  C   UNL     1       0.468  11.549  19.556  0.00  0.00    +0.000 A 
ATOM     10  C   UNL     1      -0.060  11.442  20.854  0.00  0.00    +0.000 A 
ATOM     11  C   UNL     1       0.063  10.254  21.593  0.00  0.00    +0.000 A 
ENDROOT
BRANCH   2  12
ATOM     12  C   UNL     1       3.122   6.480  17.841  0.00  0.00    +0.000 A 
ATOM     13  C   UNL     1       4.467   6.334  17.465  0.00  0.00    +0.000 A 
ATOM     14  C   UNL     1       5.085   5.083  17.366  0.00  0.00    +0.000 A 
ATOM     15  C   UNL     1       4.259   3.979  17.549  0.00  0.00    +0.000 A 
ATOM     16  N   UNL     1       4.478   2.631  17.501  0.00  0.00    +0.000 N 
ATOM     17  N   UNL     1       3.348   1.936  17.697  0.00  0.00    +0.000 NA
ATOM     18  N   UNL     1       2.370   2.812  17.899  0.00  0.00    +0.000 NA
ATOM     19  C   UNL     1       2.902   4.072  17.822  0.00  0.00    +0.000 A 
ATOM     20  C   UNL     1       2.312   5.336  17.981  0.00  0.00    +0.000 A 
ATOM     21  H   UNL     1       5.341   2.128  17.336  0.00  0.00    +0.000 HD
ENDBRANCH   2  12
BRANCH  11  22
ATOM     22  C   UNL     1      -0.528  10.168  22.977  0.00  0.00    +0.000 C 
ATOM     23  F   UNL     1      -1.070  11.332  23.435  0.00  0.00    +0.000 F 
ATOM     24  F   UNL     1      -1.531   9.248  23.056  0.00  0.00    +0.000 F 
ATOM     25  F   UNL     1       0.389   9.801  23.915  0.00  0.00    +0.000 F 
ENDBRANCH  11  22
TORSDOF 2
ENDMDL
MODEL 6
REMARK VINA RESULT:      -7.9      2.924      3.841
REMARK  Name = 
REMARK  2 active torsions:
REMARK  status: ('A' for Active; 'I' for Inactive)
REMARK    1  A    between atoms: C_2  and  C_3
REMARK    2  A    between atoms: C_20  and  C_21
REMARK                            x       y       z     vdW  Elec       q    Type
REMARK                         _______ _______ _______ _____ _____    ______ ____
ROOT
ATOM      1  O   UNL     1       2.400   8.571  17.347  0.00  0.00    +0.000 OA
ATOM      2  C   UNL     1       2.265   7.983  18.421  0.00  0.00    +0.000 C 
ATOM      3  N   UNL     1       1.629   8.522  19.542  0.00  0.00    +0.000 N 
ATOM      4  C   UNL     1       1.398   7.863  20.840  0.00  0.00    +0.000 C 
ATOM      5  C   UNL     1       0.412   8.714  21.632  0.00  0.00    +0.000 C 
ATOM      6  C   UNL     1       0.419   9.994  20.856  0.00  0.00    +0.000 A 
ATOM      7  C   UNL     1       1.084   9.827  19.630  0.00  0.00    +0.000 A 
ATOM      8  C   UNL     1       1.135  10.862  18.717  0.00  0.00    +0.000 A 
ATOM      9  C   UNL     1       0.532  12.080  19.047  0.00  0.00    +0.000 A 
ATOM     10  C   UNL     1      -0.120  12.247  20.281  0.00  0.00    +0.000 A 
ATOM     11  C   UNL     1      -0.193  11.196  21.211  0.00  0.00    +0.000 A 
ENDROOT
BRANCH   2  12
ATOM     12  C   UNL     1       2.769   6.572  18.471  0.00  0.00    +0.000 A 
ATOM     13  C   UNL     1       4.026   6.235  18.997  0.00  0.00    +0.000 A 
ATOM     14  C   UNL     1       4.440   4.908  19.158  0.00  0.00    +0.000 A 
ATOM     15  C   UNL     1       3.579   3.937  18.657  0.00  0.00    +0.000 A 
ATOM     16  N   UNL     1       3.642   2.573  18.599  0.00  0.00    +0.000 N 
ATOM     17  N   UNL     1       2.580   2.051  17.968  0.00  0.00    +0.000 NA
ATOM     18  N   UNL     1       1.789   3.060  17.620  0.00  0.00    +0.000 NA
ATOM     19  C   UNL     1       2.371   4.226  18.038  0.00  0.00    +0.000 A 
ATOM     20  C   UNL     1       1.944   5.560  17.943  0.00  0.00    +0.000 A 
ATOM     21  H   UNL     1       4.361   1.950  18.947  0.00  0.00    +0.000 HD
ENDBRANCH   2  12
BRANCH  11  22
ATOM     22  C   UNL     1      -0.913  11.404  22.520  0.00  0.00    +0.000 C 
ATOM     23  F   UNL     1      -0.632  10.473  23.475  0.00  0.00    +0.000 F 
ATOM     24  F   UNL     1      -0.615  12.606  23.090  0.00  0.00    +0.000 F 
ATOM     25  F   UNL     1      -2.267  11.383  22.381  0.00  0.00    +0.000 F 
ENDBRANCH  11  22
TORSDOF 2
ENDMDL
MODEL 7
REMARK VINA RESULT:      -7.9      0.775      1.580
REMARK  Name = 
REMARK  2 active torsions:
REMARK  status: ('A' for Active; 'I' for Inactive)
REMARK    1  A    between atoms: C_2  and  C_3
REMARK    2  A    between atoms: C_20  and  C_21
REMARK                            x       y       z     vdW  Elec       q    Type
REMARK                         _______ _______ _______ _____ _____    ______ ____
ROOT
ATOM      1  O   UNL     1       3.801   5.650  19.871  0.00  0.00    +0.000 OA
ATOM      2  C   UNL     1       3.792   6.362  18.867  0.00  0.00    +0.000 C 
ATOM      3  N   UNL     1       2.942   7.455  18.680  0.00  0.00    +0.000 N 
ATOM      4  C   UNL     1       2.906   8.371  17.526  0.00  0.00    +0.000 C 
ATOM      5  C   UNL     1       2.042   9.570  17.902  0.00  0.00    +0.000 C 
ATOM      6  C   UNL     1       1.356   9.078  19.139  0.00  0.00    +0.000 A 
ATOM      7  C   UNL     1       1.942   7.882  19.588  0.00  0.00    +0.000 A 
ATOM      8  C   UNL     1       1.517   7.296  20.765  0.00  0.00    +0.000 A 
ATOM      9  C   UNL     1       0.483   7.906  21.483  0.00  0.00    +0.000 A 
ATOM     10  C   UNL     1      -0.108   9.094  21.023  0.00  0.00    +0.000 A 
ATOM     11  C   UNL     1       0.326   9.708  19.836  0.00  0.00    +0.000 A 
ENDROOT
BRANCH   2  12
ATOM     12  C   UNL     1       4.823   6.049  17.824  0.00  0.00    +0.000 A 
ATOM     13  C   UNL     1       6.137   6.543  17.885  0.00  0.00    +0.000 A 
ATOM     14  C   UNL     1       7.128   6.148  16.980  0.00  0.00    +0.000 A 
ATOM     15  C   UNL     1       6.711   5.324  15.941  0.00  0.00    +0.000 A 
ATOM     16  N   UNL     1       7.357   4.768  14.873  0.00  0.00    +0.000 N 
ATOM     17  N   UNL     1       6.519   4.071  14.091  0.00  0.00    +0.000 NA
ATOM     18  N   UNL     1       5.312   4.138  14.641  0.00  0.00    +0.000 NA
ATOM     19  C   UNL     1       5.402   4.892  15.781  0.00  0.00    +0.000 A 
ATOM     20  C   UNL     1       4.434   5.247  16.734  0.00  0.00    +0.000 A 
ATOM     21  H   UNL     1       8.334   4.826  14.615  0.00  0.00    +0.000 HD
ENDBRANCH   2  12
BRANCH  11  22
ATOM     22  C   UNL     1      -0.321  10.991  19.377  0.00  0.00    +0.000 C 
ATOM     23  F   UNL     1      -0.847  10.942  18.121  0.00  0.00    +0.000 F 
ATOM     24  F   UNL     1      -1.351  11.370  20.185  0.00  0.00    +0.000 F 
ATOM     25  F   UNL     1       0.548  12.039  19.365  0.00  0.00    +0.000 F 
ENDBRANCH  11  22
TORSDOF 2
ENDMDL
MODEL 8
REMARK VINA RESULT:      -7.9      2.651      3.476
REMARK  Name = 
REMARK  2 active torsions:
REMARK  status: ('A' for Active; 'I' for Inactive)
REMARK    1  A    between atoms: C_2  and  C_3
REMARK    2  A    between atoms: C_20  and  C_21
REMARK                            x       y       z     vdW  Elec       q    Type
REMARK                         _______ _______ _______ _____ _____    ______ ____
ROOT
ATOM      1  O   UNL     1       2.332   8.744  17.384  0.00  0.00    +0.000 OA
ATOM      2  C   UNL     1       2.164   8.132  18.439  0.00  0.00    +0.000 C 
ATOM      3  N   UNL     1       1.522   8.656  19.563  0.00  0.00    +0.000 N 
ATOM      4  C   UNL     1       1.251   7.968  20.838  0.00  0.00    +0.000 C 
ATOM      5  C   UNL     1       0.272   8.823  21.637  0.00  0.00    +0.000 C 
ATOM      6  C   UNL     1       0.325  10.122  20.896  0.00  0.00    +0.000 A 
ATOM      7  C   UNL     1       1.007   9.971  19.677  0.00  0.00    +0.000 A 
ATOM      8  C   UNL     1       1.101  11.030  18.794  0.00  0.00    +0.000 A 
ATOM      9  C   UNL     1       0.522  12.253  19.147  0.00  0.00    +0.000 A 
ATOM     10  C   UNL     1      -0.147  12.403  20.373  0.00  0.00    +0.000 A 
ATOM     11  C   UNL     1      -0.263  11.330  21.274  0.00  0.00    +0.000 A 
ENDROOT
BRANCH   2  12
ATOM     12  C   UNL     1       2.631   6.707  18.459  0.00  0.00    +0.000 A 
ATOM     13  C   UNL     1       1.832   5.641  18.015  0.00  0.00    +0.000 A 
ATOM     14  C   UNL     1       2.315   4.332  17.918  0.00  0.00    +0.000 A 
ATOM     15  C   UNL     1       3.603   4.121  18.398  0.00  0.00    +0.000 A 
ATOM     16  N   UNL     1       4.391   3.010  18.501  0.00  0.00    +0.000 N 
ATOM     17  N   UNL     1       5.566   3.284  19.087  0.00  0.00    +0.000 NA
ATOM     18  N   UNL     1       5.581   4.584  19.360  0.00  0.00    +0.000 NA
ATOM     19  C   UNL     1       4.394   5.124  18.940  0.00  0.00    +0.000 A 
ATOM     20  C   UNL     1       3.916   6.444  18.970  0.00  0.00    +0.000 A 
ATOM     21  H   UNL     1       4.197   2.059  18.213  0.00  0.00    +0.000 HD
ENDBRANCH   2  12
BRANCH  11  22
ATOM     22  C   UNL     1      -1.000  11.520  22.575  0.00  0.00    +0.000 C 
ATOM     23  F   UNL     1      -0.747  10.565  23.514  0.00  0.00    +0.000 F 
ATOM     24  F   UNL     1      -0.694  12.706  23.175  0.00  0.00    +0.000 F 
ATOM     25  F   UNL     1      -2.352  11.522  22.414  0.00  0.00    +0.000 F 
ENDBRANCH  11  22
TORSDOF 2
ENDMDL
MODEL 9
REMARK VINA RESULT:      -7.8      4.672      8.208
REMARK  Name = 
REMARK  2 active torsions:
REMARK  status: ('A' for Active; 'I' for Inactive)
REMARK    1  A    between atoms: C_2  and  C_3
REMARK    2  A    between atoms: C_20  and  C_21
REMARK                            x       y       z     vdW  Elec       q    Type
REMARK                         _______ _______ _______ _____ _____    ______ ____
ROOT
ATOM      1  O   UNL     1       2.673   8.626  18.422  0.00  0.00    +0.000 OA
ATOM      2  C   UNL     1       2.082   7.982  19.289  0.00  0.00    +0.000 C 
ATOM      3  N   UNL     1       2.185   6.598  19.453  0.00  0.00    +0.000 N 
ATOM      4  C   UNL     1       1.541   5.772  20.490  0.00  0.00    +0.000 C 
ATOM      5  C   UNL     1       2.182   4.389  20.456  0.00  0.00    +0.000 C 
ATOM      6  C   UNL     1       2.916   4.423  19.152  0.00  0.00    +0.000 A 
ATOM      7  C   UNL     1       2.944   5.728  18.632  0.00  0.00    +0.000 A 
ATOM      8  C   UNL     1       3.643   6.003  17.473  0.00  0.00    +0.000 A 
ATOM      9  C   UNL     1       4.303   4.955  16.822  0.00  0.00    +0.000 A 
ATOM     10  C   UNL     1       4.261   3.649  17.339  0.00  0.00    +0.000 A 
ATOM     11  C   UNL     1       3.566   3.359  18.525  0.00  0.00    +0.000 A 
ENDROOT
BRANCH   2  12
ATOM     12  C   UNL     1       1.259   8.776  20.259  0.00  0.00    +0.000 A 
ATOM     13  C   UNL     1       1.333   8.586  21.648  0.00  0.00    +0.000 A 
ATOM     14  C   UNL     1       0.660   9.412  22.555  0.00  0.00    +0.000 A 
ATOM     15  C   UNL     1      -0.184  10.366  21.997  0.00  0.00    +0.000 A 
ATOM     16  N   UNL     1      -1.012  11.310  22.537  0.00  0.00    +0.000 N 
ATOM     17  N   UNL     1      -1.682  11.985  21.591  0.00  0.00    +0.000 NA
ATOM     18  N   UNL     1      -1.293  11.512  20.413  0.00  0.00    +0.000 NA
ATOM     19  C   UNL     1      -0.368  10.525  20.631  0.00  0.00    +0.000 A 
ATOM     20  C   UNL     1       0.365   9.729  19.736  0.00  0.00    +0.000 A 
ATOM     21  H   UNL     1      -1.173  11.538  23.510  0.00  0.00    +0.000 HD
ENDBRANCH   2  12
BRANCH  11  22
ATOM     22  C   UNL     1       3.553   1.950  19.060  0.00  0.00    +0.000 C 
ATOM     23  F   UNL     1       2.326   1.505  19.453  0.00  0.00    +0.000 F 
ATOM     24  F   UNL     1       3.990   1.043  18.141  0.00  0.00    +0.000 F 
ATOM     25  F   UNL     1       4.359   1.796  20.147  0.00  0.00    +0.000 F 
ENDBRANCH  11  22
TORSDOF 2
ENDMDL
