MODEL 1
REMARK VINA RESULT:      -9.0      0.000      0.000
REMARK  Name = 
REMARK  6 active torsions:
REMARK  status: ('A' for Active; 'I' for Inactive)
REMARK    1  A    between atoms: C_1  and  C_2
REMARK    2  A    between atoms: N_4  and  C_5
REMARK    3  A    between atoms: C_5  and  C_6
REMARK    4  A    between atoms: C_5  and  C_25
REMARK    5  A    between atoms: C_6  and  C_7
REMARK    6  A    between atoms: C_12  and  C_13
REMARK                            x       y       z     vdW  Elec       q    Type
REMARK                         _______ _______ _______ _____ _____    ______ ____
ROOT
ATOM      1  C   UNL     1       4.157   5.096  17.154  0.00  0.00    +0.000 C 
ATOM      2  O   UNL     1       4.212   6.281  16.836  0.00  0.00    +0.000 OA
ATOM      3  N   UNL     1       3.503   4.561  18.244  0.00  0.00    +0.000 N 
ATOM      4  C   UNL     1       2.806   5.367  19.092  0.00  0.00    +0.000 A 
ATOM      5  N   UNL     1       2.499   6.624  18.933  0.00  0.00    +0.000 NA
ATOM      6  C   UNL     1       1.858   7.092  20.059  0.00  0.00    +0.000 A 
ATOM      7  C   UNL     1       1.706   6.156  21.067  0.00  0.00    +0.000 A 
ATOM      8  S   UNL     1       2.310   4.633  20.546  0.00  0.00    +0.000 S 
ATOM      9  H   UNL     1       3.618   3.594  18.510  0.00  0.00    +0.000 HD
ENDROOT
BRANCH   6  10
ATOM     10  C   UNL     1       1.413   8.474  20.131  0.00  0.00    +0.000 A 
ATOM     11  C   UNL     1       1.379   9.263  18.969  0.00  0.00    +0.000 A 
ATOM     12  C   UNL     1       0.933  10.586  19.019  0.00  0.00    +0.000 A 
ATOM     13  C   UNL     1       0.513  11.127  20.233  0.00  0.00    +0.000 A 
ATOM     14  C   UNL     1       0.519  10.337  21.385  0.00  0.00    +0.000 A 
ATOM     15  C   UNL     1       0.975   9.024  21.338  0.00  0.00    +0.000 A 
ATOM     16  O   UNL     1       0.091  10.781  22.610  0.00  0.00    +0.000 OA
ATOM     17  C   UNL     1      -0.688  11.974  22.482  0.00  0.00    +0.000 C 
ATOM     18  C   UNL     1      -0.006  12.961  21.549  0.00  0.00    +0.000 C 
ATOM     19  O   UNL     1       0.093  12.431  20.221  0.00  0.00    +0.000 OA
ENDBRANCH   6  10
BRANCH   1  20
ATOM     20  C   UNL     1       4.843   4.026  16.341  0.00  0.00    +0.000 C 
BRANCH  20  21
ATOM     21  C   UNL     1       6.318   4.373  16.071  0.00  0.00    +0.000 C 
BRANCH  21  22
ATOM     22  C   UNL     1       6.647   4.393  14.587  0.00  0.00    +0.000 A 
ATOM     23  C   UNL     1       5.967   3.550  13.693  0.00  0.00    +0.000 A 
ATOM     24  C   UNL     1       6.248   3.594  12.323  0.00  0.00    +0.000 A 
ATOM     25  C   UNL     1       7.216   4.469  11.832  0.00  0.00    +0.000 A 
ATOM     26  C   UNL     1       7.914   5.292  12.707  0.00  0.00    +0.000 A 
ATOM     27  C   UNL     1       7.636   5.247  14.070  0.00  0.00    +0.000 A 
ENDBRANCH  21  22
BRANCH  21  31
ATOM     28  C   UNL     1       7.968   6.947  18.340  0.00  0.00    +0.000 C 
ATOM     29  C   UNL     1       7.528   5.572  17.909  0.00  0.00    +0.000 C 
ATOM     30  O   UNL     1       7.853   4.566  18.525  0.00  0.00    +0.000 OA
ATOM     31  N   UNL     1       6.780   5.581  16.752  0.00  0.00    +0.000 N 
ATOM     32  H   UNL     1       6.981   6.352  16.124  0.00  0.00    +0.000 HD
ENDBRANCH  21  31
ENDBRANCH  20  21
ENDBRANCH   1  20
TORSDOF 5
ENDMDL
MODEL 2
REMARK VINA RESULT:      -8.9      0.743      1.712
REMARK  Name = 
REMARK  6 active torsions:
REMARK  status: ('A' for Active; 'I' for Inactive)
REMARK    1  A    between atoms: C_1  and  C_2
REMARK    2  A    between atoms: N_4  and  C_5
REMARK    3  A    between atoms: C_5  and  C_6
REMARK    4  A    between atoms: C_5  and  C_25
REMARK    5  A    between atoms: C_6  and  C_7
REMARK    6  A    between atoms: C_12  and  C_13
REMARK                            x       y       z     vdW  Elec       q    Type
REMARK                         _______ _______ _______ _____ _____    ______ ____
ROOT
ATOM      1  C   UNL     1       4.125   4.990  17.138  0.00  0.00    +0.000 C 
ATOM      2  O   UNL     1       4.188   6.198  16.925  0.00  0.00    +0.000 OA
ATOM      3  N   UNL     1       3.473   4.367  18.182  0.00  0.00    +0.000 N 
ATOM      4  C   UNL     1       2.788   5.101  19.101  0.00  0.00    +0.000 A 
ATOM      5  N   UNL     1       2.491   6.370  19.056  0.00  0.00    +0.000 NA
ATOM      6  C   UNL     1       1.861   6.742  20.223  0.00  0.00    +0.000 A 
ATOM      7  C   UNL     1       1.706   5.723  21.146  0.00  0.00    +0.000 A 
ATOM      8  S   UNL     1       2.294   4.247  20.489  0.00  0.00    +0.000 S 
ATOM      9  H   UNL     1       3.580   3.380  18.361  0.00  0.00    +0.000 HD
ENDROOT
BRANCH   6  10
ATOM     10  C   UNL     1       1.429   8.117  20.418  0.00  0.00    +0.000 A 
ATOM     11  C   UNL     1       1.063   8.563  21.698  0.00  0.00    +0.000 A 
ATOM     12  C   UNL     1       0.665   9.887  21.904  0.00  0.00    +0.000 A 
ATOM     13  C   UNL     1       0.635  10.773  20.830  0.00  0.00    +0.000 A 
ATOM     14  C   UNL     1       1.025  10.340  19.560  0.00  0.00    +0.000 A 
ATOM     15  C   UNL     1       1.408   9.019  19.352  0.00  0.00    +0.000 A 
ATOM     16  O   UNL     1       1.057  11.156  18.458  0.00  0.00    +0.000 OA
ATOM     17  C   UNL     1       1.014  12.534  18.837  0.00  0.00    +0.000 C 
ATOM     18  C   UNL     1      -0.061  12.769  19.883  0.00  0.00    +0.000 C 
ATOM     19  O   UNL     1       0.230  12.056  21.091  0.00  0.00    +0.000 OA
ENDBRANCH   6  10
BRANCH   1  20
ATOM     20  C   UNL     1       4.796   3.989  16.229  0.00  0.00    +0.000 C 
BRANCH  20  21
ATOM     21  C   UNL     1       6.275   4.341  15.989  0.00  0.00    +0.000 C 
BRANCH  21  22
ATOM     22  C   UNL     1       6.624   4.398  14.510  0.00  0.00    +0.000 A 
ATOM     23  C   UNL     1       7.585   5.305  14.037  0.00  0.00    +0.000 A 
ATOM     24  C   UNL     1       7.929   5.332  12.682  0.00  0.00    +0.000 A 
ATOM     25  C   UNL     1       7.312   4.464  11.782  0.00  0.00    +0.000 A 
ATOM     26  C   UNL     1       6.341   3.578  12.231  0.00  0.00    +0.000 A 
ATOM     27  C   UNL     1       5.998   3.551  13.579  0.00  0.00    +0.000 A 
ENDBRANCH  21  22
BRANCH  21  31
ATOM     28  C   UNL     1       7.930   6.861  18.315  0.00  0.00    +0.000 C 
ATOM     29  C   UNL     1       7.509   5.494  17.840  0.00  0.00    +0.000 C 
ATOM     30  O   UNL     1       7.874   4.473  18.405  0.00  0.00    +0.000 OA
ATOM     31  N   UNL     1       6.729   5.532  16.705  0.00  0.00    +0.000 N 
ATOM     32  H   UNL     1       6.894   6.332  16.104  0.00  0.00    +0.000 HD
ENDBRANCH  21  31
ENDBRANCH  20  21
ENDBRANCH   1  20
TORSDOF 5
ENDMDL
MODEL 3
REMARK VINA RESULT:      -8.4      1.183      1.786
REMARK  Name = 
REMARK  6 active torsions:
REMARK  status: ('A' for Active; 'I' for Inactive)
REMARK    1  A    between atoms: C_1  and  C_2
REMARK    2  A    between atoms: N_4  and  C_5
REMARK    3  A    between atoms: C_5  and  C_6
REMARK    4  A    between atoms: C_5  and  C_25
REMARK    5  A    between atoms: C_6  and  C_7
REMARK    6  A    between atoms: C_12  and  C_13
REMARK                            x       y       z     vdW  Elec       q    Type
REMARK                         _______ _______ _______ _____ _____    ______ ____
ROOT
ATOM      1  C   UNL     1       4.211   5.561  17.158  0.00  0.00    +0.000 C 
ATOM      2  O   UNL     1       4.262   6.720  16.758  0.00  0.00    +0.000 OA
ATOM      3  N   UNL     1       3.510   5.091  18.250  0.00  0.00    +0.000 N 
ATOM      4  C   UNL     1       2.755   5.942  18.999  0.00  0.00    +0.000 A 
ATOM      5  N   UNL     1       2.435   7.177  18.734  0.00  0.00    +0.000 NA
ATOM      6  C   UNL     1       1.728   7.711  19.789  0.00  0.00    +0.000 A 
ATOM      7  C   UNL     1       1.539   6.847  20.853  0.00  0.00    +0.000 A 
ATOM      8  S   UNL     1       2.196   5.304  20.476  0.00  0.00    +0.000 S 
ATOM      9  H   UNL     1       3.626   4.149  18.590  0.00  0.00    +0.000 HD
ENDROOT
BRANCH   6  10
ATOM     10  C   UNL     1       1.255   9.085  19.736  0.00  0.00    +0.000 A 
ATOM     11  C   UNL     1       0.204   9.499  20.570  0.00  0.00    +0.000 A 
ATOM     12  C   UNL     1      -0.247  10.822  20.545  0.00  0.00    +0.000 A 
ATOM     13  C   UNL     1       0.356  11.740  19.687  0.00  0.00    +0.000 A 
ATOM     14  C   UNL     1       1.421  11.339  18.877  0.00  0.00    +0.000 A 
ATOM     15  C   UNL     1       1.861  10.019  18.892  0.00  0.00    +0.000 A 
ATOM     16  O   UNL     1       2.091  12.186  18.032  0.00  0.00    +0.000 OA
ATOM     17  C   UNL     1       1.825  13.553  18.357  0.00  0.00    +0.000 C 
ATOM     18  C   UNL     1       0.339  13.773  18.578  0.00  0.00    +0.000 C 
ATOM     19  O   UNL     1      -0.133  13.020  19.702  0.00  0.00    +0.000 OA
ENDBRANCH   6  10
BRANCH   1  20
ATOM     20  C   UNL     1       4.957   4.449  16.461  0.00  0.00    +0.000 C 
BRANCH  20  21
ATOM     21  C   UNL     1       6.378   4.881  16.061  0.00  0.00    +0.000 C 
BRANCH  21  22
ATOM     22  C   UNL     1       6.659   4.657  14.584  0.00  0.00    +0.000 A 
ATOM     23  C   UNL     1       5.942   3.691  13.859  0.00  0.00    +0.000 A 
ATOM     24  C   UNL     1       6.178   3.510  12.492  0.00  0.00    +0.000 A 
ATOM     25  C   UNL     1       7.137   4.280  11.836  0.00  0.00    +0.000 A 
ATOM     26  C   UNL     1       7.871   5.223  12.545  0.00  0.00    +0.000 A 
ATOM     27  C   UNL     1       7.638   5.403  13.905  0.00  0.00    +0.000 A 
ENDBRANCH  21  22
BRANCH  21  31
ATOM     28  C   UNL     1       7.789   7.979  17.767  0.00  0.00    +0.000 C 
ATOM     29  C   UNL     1       7.469   6.514  17.618  0.00  0.00    +0.000 C 
ATOM     30  O   UNL     1       7.871   5.680  18.417  0.00  0.00    +0.000 OA
ATOM     31  N   UNL     1       6.733   6.234  16.488  0.00  0.00    +0.000 N 
ATOM     32  H   UNL     1       6.874   6.880  15.719  0.00  0.00    +0.000 HD
ENDBRANCH  21  31
ENDBRANCH  20  21
ENDBRANCH   1  20
TORSDOF 5
ENDMDL
MODEL 4
REMARK VINA RESULT:      -8.3      2.360      9.353
REMARK  Name = 
REMARK  6 active torsions:
REMARK  status: ('A' for Active; 'I' for Inactive)
REMARK    1  A    between atoms: C_1  and  C_2
REMARK    2  A    between atoms: N_4  and  C_5
REMARK    3  A    between atoms: C_5  and  C_6
REMARK    4  A    between atoms: C_5  and  C_25
REMARK    5  A    between atoms: C_6  and  C_7
REMARK    6  A    between atoms: C_12  and  C_13
REMARK                            x       y       z     vdW  Elec       q    Type
REMARK                         _______ _______ _______ _____ _____    ______ ____
ROOT
ATOM      1  C   UNL     1       1.322   8.557  20.110  0.00  0.00    +0.000 C 
ATOM      2  O   UNL     1       1.919   8.896  19.092  0.00  0.00    +0.000 OA
ATOM      3  N   UNL     1       1.411   7.341  20.756  0.00  0.00    +0.000 N 
ATOM      4  C   UNL     1       2.244   6.372  20.285  0.00  0.00    +0.000 A 
ATOM      5  N   UNL     1       3.155   6.478  19.358  0.00  0.00    +0.000 NA
ATOM      6  C   UNL     1       3.722   5.245  19.121  0.00  0.00    +0.000 A 
ATOM      7  C   UNL     1       3.202   4.214  19.885  0.00  0.00    +0.000 A 
ATOM      8  S   UNL     1       2.034   4.834  20.984  0.00  0.00    +0.000 S 
ATOM      9  H   UNL     1       0.788   7.093  21.509  0.00  0.00    +0.000 HD
ENDROOT
BRANCH   6  10
ATOM     10  C   UNL     1       4.769   5.097  18.124  0.00  0.00    +0.000 A 
ATOM     11  C   UNL     1       6.119   5.144  18.510  0.00  0.00    +0.000 A 
ATOM     12  C   UNL     1       7.136   4.983  17.565  0.00  0.00    +0.000 A 
ATOM     13  C   UNL     1       6.808   4.769  16.228  0.00  0.00    +0.000 A 
ATOM     14  C   UNL     1       5.467   4.693  15.845  0.00  0.00    +0.000 A 
ATOM     15  C   UNL     1       4.454   4.867  16.783  0.00  0.00    +0.000 A 
ATOM     16  O   UNL     1       5.059   4.452  14.558  0.00  0.00    +0.000 OA
ATOM     17  C   UNL     1       6.131   3.927  13.769  0.00  0.00    +0.000 C 
ATOM     18  C   UNL     1       7.402   4.729  13.990  0.00  0.00    +0.000 C 
ATOM     19  O   UNL     1       7.848   4.624  15.348  0.00  0.00    +0.000 OA
ENDBRANCH   6  10
BRANCH   1  20
ATOM     20  C   UNL     1       0.361   9.486  20.812  0.00  0.00    +0.000 C 
BRANCH  20  21
ATOM     21  C   UNL     1       0.238  10.835  20.082  0.00  0.00    +0.000 C 
BRANCH  21  22
ATOM     22  C   UNL     1      -1.013  10.916  19.221  0.00  0.00    +0.000 A 
ATOM     23  C   UNL     1      -1.135  10.132  18.063  0.00  0.00    +0.000 A 
ATOM     24  C   UNL     1      -2.300  10.183  17.291  0.00  0.00    +0.000 A 
ATOM     25  C   UNL     1      -3.350  11.025  17.657  0.00  0.00    +0.000 A 
ATOM     26  C   UNL     1      -3.234  11.825  18.786  0.00  0.00    +0.000 A 
ATOM     27  C   UNL     1      -2.074  11.775  19.555  0.00  0.00    +0.000 A 
ENDBRANCH  21  22
BRANCH  21  31
ATOM     28  C   UNL     1       1.049  14.201  21.666  0.00  0.00    +0.000 C 
ATOM     29  C   UNL     1       1.167  13.091  20.654  0.00  0.00    +0.000 C 
ATOM     30  O   UNL     1       1.868  13.197  19.657  0.00  0.00    +0.000 OA
ATOM     31  N   UNL     1       0.380  12.000  20.953  0.00  0.00    +0.000 N 
ATOM     32  H   UNL     1      -0.454  12.214  21.489  0.00  0.00    +0.000 HD
ENDBRANCH  21  31
ENDBRANCH  20  21
ENDBRANCH   1  20
TORSDOF 5
ENDMDL
MODEL 5
REMARK VINA RESULT:      -8.3      2.101      9.904
REMARK  Name = 
REMARK  6 active torsions:
REMARK  status: ('A' for Active; 'I' for Inactive)
REMARK    1  A    between atoms: C_1  and  C_2
REMARK    2  A    between atoms: N_4  and  C_5
REMARK    3  A    between atoms: C_5  and  C_6
REMARK    4  A    between atoms: C_5  and  C_25
REMARK    5  A    between atoms: C_6  and  C_7
REMARK    6  A    between atoms: C_12  and  C_13
REMARK                            x       y       z     vdW  Elec       q    Type
REMARK                         _______ _______ _______ _____ _____    ______ ____
ROOT
ATOM      1  C   UNL     1       1.303   8.586  20.479  0.00  0.00    +0.000 C 
ATOM      2  O   UNL     1       1.876   9.060  19.502  0.00  0.00    +0.000 OA
ATOM      3  N   UNL     1       1.402   7.293  20.950  0.00  0.00    +0.000 N 
ATOM      4  C   UNL     1       2.219   6.396  20.330  0.00  0.00    +0.000 A 
ATOM      5  N   UNL     1       3.106   6.626  19.403  0.00  0.00    +0.000 NA
ATOM      6  C   UNL     1       3.660   5.436  18.985  0.00  0.00    +0.000 A 
ATOM      7  C   UNL     1       3.156   4.312  19.615  0.00  0.00    +0.000 A 
ATOM      8  S   UNL     1       2.018   4.777  20.817  0.00  0.00    +0.000 S 
ATOM      9  H   UNL     1       0.797   6.945  21.678  0.00  0.00    +0.000 HD
ENDROOT
BRANCH   6  10
ATOM     10  C   UNL     1       4.682   5.425  17.951  0.00  0.00    +0.000 A 
ATOM     11  C   UNL     1       5.946   5.982  18.205  0.00  0.00    +0.000 A 
ATOM     12  C   UNL     1       6.944   5.959  17.227  0.00  0.00    +0.000 A 
ATOM     13  C   UNL     1       6.684   5.374  15.990  0.00  0.00    +0.000 A 
ATOM     14  C   UNL     1       5.438   4.793  15.743  0.00  0.00    +0.000 A 
ATOM     15  C   UNL     1       4.440   4.827  16.712  0.00  0.00    +0.000 A 
ATOM     16  O   UNL     1       5.113   4.167  14.567  0.00  0.00    +0.000 OA
ATOM     17  C   UNL     1       6.285   3.859  13.808  0.00  0.00    +0.000 C 
ATOM     18  C   UNL     1       7.222   5.053  13.760  0.00  0.00    +0.000 C 
ATOM     19  O   UNL     1       7.699   5.387  15.069  0.00  0.00    +0.000 OA
ENDBRANCH   6  10
BRANCH   1  20
ATOM     20  C   UNL     1       0.365   9.412  21.325  0.00  0.00    +0.000 C 
BRANCH  20  21
ATOM     21  C   UNL     1       0.047  10.765  20.666  0.00  0.00    +0.000 C 
BRANCH  21  22
ATOM     22  C   UNL     1      -1.167  11.441  21.286  0.00  0.00    +0.000 A 
ATOM     23  C   UNL     1      -1.393  11.373  22.670  0.00  0.00    +0.000 A 
ATOM     24  C   UNL     1      -2.491  12.023  23.243  0.00  0.00    +0.000 A 
ATOM     25  C   UNL     1      -3.382  12.736  22.441  0.00  0.00    +0.000 A 
ATOM     26  C   UNL     1      -3.185  12.792  21.067  0.00  0.00    +0.000 A 
ATOM     27  C   UNL     1      -2.093  12.145  20.497  0.00  0.00    +0.000 A 
ENDBRANCH  21  22
BRANCH  21  31
ATOM     28  C   UNL     1       2.621  13.402  19.709  0.00  0.00    +0.000 C 
ATOM     29  C   UNL     1       1.441  12.489  19.499  0.00  0.00    +0.000 C 
ATOM     30  O   UNL     1       0.769  12.526  18.477  0.00  0.00    +0.000 OA
ATOM     31  N   UNL     1       1.192  11.670  20.578  0.00  0.00    +0.000 N 
ATOM     32  H   UNL     1       1.483  12.048  21.473  0.00  0.00    +0.000 HD
ENDBRANCH  21  31
ENDBRANCH  20  21
ENDBRANCH   1  20
TORSDOF 5
ENDMDL
MODEL 6
REMARK VINA RESULT:      -8.3      2.658      9.483
REMARK  Name = 
REMARK  6 active torsions:
REMARK  status: ('A' for Active; 'I' for Inactive)
REMARK    1  A    between atoms: C_1  and  C_2
REMARK    2  A    between atoms: N_4  and  C_5
REMARK    3  A    between atoms: C_5  and  C_6
REMARK    4  A    between atoms: C_5  and  C_25
REMARK    5  A    between atoms: C_6  and  C_7
REMARK    6  A    between atoms: C_12  and  C_13
REMARK                            x       y       z     vdW  Elec       q    Type
REMARK                         _______ _______ _______ _____ _____    ______ ____
ROOT
ATOM      1  C   UNL     1       1.204   9.000  19.586  0.00  0.00    +0.000 C 
ATOM      2  O   UNL     1       1.746   9.301  18.526  0.00  0.00    +0.000 OA
ATOM      3  N   UNL     1       1.391   7.842  20.312  0.00  0.00    +0.000 N 
ATOM      4  C   UNL     1       2.270   6.895  19.882  0.00  0.00    +0.000 A 
ATOM      5  N   UNL     1       3.143   6.989  18.918  0.00  0.00    +0.000 NA
ATOM      6  C   UNL     1       3.780   5.779  18.748  0.00  0.00    +0.000 A 
ATOM      7  C   UNL     1       3.352   4.777  19.601  0.00  0.00    +0.000 A 
ATOM      8  S   UNL     1       2.181   5.402  20.694  0.00  0.00    +0.000 S 
ATOM      9  H   UNL     1       0.809   7.612  21.103  0.00  0.00    +0.000 HD
ENDROOT
BRANCH   6  10
ATOM     10  C   UNL     1       4.804   5.625  17.727  0.00  0.00    +0.000 A 
ATOM     11  C   UNL     1       6.124   6.025  17.989  0.00  0.00    +0.000 A 
ATOM     12  C   UNL     1       7.122   5.863  17.025  0.00  0.00    +0.000 A 
ATOM     13  C   UNL     1       6.805   5.294  15.793  0.00  0.00    +0.000 A 
ATOM     14  C   UNL     1       5.499   4.868  15.539  0.00  0.00    +0.000 A 
ATOM     15  C   UNL     1       4.502   5.042  16.494  0.00  0.00    +0.000 A 
ATOM     16  O   UNL     1       5.112   4.269  14.368  0.00  0.00    +0.000 OA
ATOM     17  C   UNL     1       6.245   3.805  13.628  0.00  0.00    +0.000 C 
ATOM     18  C   UNL     1       7.323   4.874  13.575  0.00  0.00    +0.000 C 
ATOM     19  O   UNL     1       7.824   5.167  14.886  0.00  0.00    +0.000 OA
ENDBRANCH   6  10
BRANCH   1  20
ATOM     20  C   UNL     1       0.208   9.916  20.254  0.00  0.00    +0.000 C 
BRANCH  20  21
ATOM     21  C   UNL     1      -0.151  11.116  19.359  0.00  0.00    +0.000 C 
BRANCH  21  22
ATOM     22  C   UNL     1      -1.521  10.970  18.716  0.00  0.00    +0.000 A 
ATOM     23  C   UNL     1      -2.574  11.826  19.076  0.00  0.00    +0.000 A 
ATOM     24  C   UNL     1      -3.824  11.712  18.459  0.00  0.00    +0.000 A 
ATOM     25  C   UNL     1      -4.042  10.737  17.486  0.00  0.00    +0.000 A 
ATOM     26  C   UNL     1      -3.017   9.867  17.137  0.00  0.00    +0.000 A 
ATOM     27  C   UNL     1      -1.773   9.979  17.751  0.00  0.00    +0.000 A 
ENDBRANCH  21  22
BRANCH  21  31
ATOM     28  C   UNL     1       0.704  14.703  20.308  0.00  0.00    +0.000 C 
ATOM     29  C   UNL     1       0.796  13.431  19.505  0.00  0.00    +0.000 C 
ATOM     30  O   UNL     1       1.475  13.355  18.490  0.00  0.00    +0.000 OA
ATOM     31  N   UNL     1       0.014  12.415  20.009  0.00  0.00    +0.000 N 
ATOM     32  H   UNL     1      -0.807  12.725  20.516  0.00  0.00    +0.000 HD
ENDBRANCH  21  31
ENDBRANCH  20  21
ENDBRANCH   1  20
TORSDOF 5
ENDMDL
MODEL 7
REMARK VINA RESULT:      -8.3      2.173      9.265
REMARK  Name = 
REMARK  6 active torsions:
REMARK  status: ('A' for Active; 'I' for Inactive)
REMARK    1  A    between atoms: C_1  and  C_2
REMARK    2  A    between atoms: N_4  and  C_5
REMARK    3  A    between atoms: C_5  and  C_6
REMARK    4  A    between atoms: C_5  and  C_25
REMARK    5  A    between atoms: C_6  and  C_7
REMARK    6  A    between atoms: C_12  and  C_13
REMARK                            x       y       z     vdW  Elec       q    Type
REMARK                         _______ _______ _______ _____ _____    ______ ____
ROOT
ATOM      1  C   UNL     1       1.328   8.527  20.196  0.00  0.00    +0.000 C 
ATOM      2  O   UNL     1       1.914   8.894  19.181  0.00  0.00    +0.000 OA
ATOM      3  N   UNL     1       1.427   7.295  20.809  0.00  0.00    +0.000 N 
ATOM      4  C   UNL     1       2.259   6.341  20.305  0.00  0.00    +0.000 A 
ATOM      5  N   UNL     1       3.160   6.474  19.372  0.00  0.00    +0.000 NA
ATOM      6  C   UNL     1       3.728   5.249  19.097  0.00  0.00    +0.000 A 
ATOM      7  C   UNL     1       3.219   4.197  19.839  0.00  0.00    +0.000 A 
ATOM      8  S   UNL     1       2.060   4.785  20.965  0.00  0.00    +0.000 S 
ATOM      9  H   UNL     1       0.813   7.025  21.561  0.00  0.00    +0.000 HD
ENDROOT
BRANCH   6  10
ATOM     10  C   UNL     1       4.766   5.131  18.086  0.00  0.00    +0.000 A 
ATOM     11  C   UNL     1       6.117   5.269  18.446  0.00  0.00    +0.000 A 
ATOM     12  C   UNL     1       7.126   5.137  17.488  0.00  0.00    +0.000 A 
ATOM     13  C   UNL     1       6.789   4.861  16.165  0.00  0.00    +0.000 A 
ATOM     14  C   UNL     1       5.449   4.695  15.808  0.00  0.00    +0.000 A 
ATOM     15  C   UNL     1       4.443   4.839  16.759  0.00  0.00    +0.000 A 
ATOM     16  O   UNL     1       5.035   4.388  14.537  0.00  0.00    +0.000 OA
ATOM     17  C   UNL     1       6.123   3.902  13.746  0.00  0.00    +0.000 C 
ATOM     18  C   UNL     1       7.347   4.783  13.918  0.00  0.00    +0.000 C 
ATOM     19  O   UNL     1       7.821   4.749  15.270  0.00  0.00    +0.000 OA
ENDBRANCH   6  10
BRANCH   1  20
ATOM     20  C   UNL     1       0.372   9.434  20.931  0.00  0.00    +0.000 C 
BRANCH  20  21
ATOM     21  C   UNL     1      -0.183  10.538  20.014  0.00  0.00    +0.000 C 
BRANCH  21  22
ATOM     22  C   UNL     1       0.792  11.693  19.841  0.00  0.00    +0.000 A 
ATOM     23  C   UNL     1       1.197  12.457  20.947  0.00  0.00    +0.000 A 
ATOM     24  C   UNL     1       2.120  13.497  20.791  0.00  0.00    +0.000 A 
ATOM     25  C   UNL     1       2.638  13.794  19.531  0.00  0.00    +0.000 A 
ATOM     26  C   UNL     1       2.227  13.062  18.423  0.00  0.00    +0.000 A 
ATOM     27  C   UNL     1       1.309  12.028  18.578  0.00  0.00    +0.000 A 
ENDBRANCH  21  22
BRANCH  21  31
ATOM     28  C   UNL     1      -2.106   9.897  16.791  0.00  0.00    +0.000 C 
ATOM     29  C   UNL     1      -1.874  10.469  18.166  0.00  0.00    +0.000 C 
ATOM     30  O   UNL     1      -2.658  11.253  18.682  0.00  0.00    +0.000 OA
ATOM     31  N   UNL     1      -0.689  10.051  18.732  0.00  0.00    +0.000 N 
ATOM     32  H   UNL     1       0.040   9.821  18.067  0.00  0.00    +0.000 HD
ENDBRANCH  21  31
ENDBRANCH  20  21
ENDBRANCH   1  20
TORSDOF 5
ENDMDL
MODEL 8
REMARK VINA RESULT:      -8.3      2.759      9.425
REMARK  Name = 
REMARK  6 active torsions:
REMARK  status: ('A' for Active; 'I' for Inactive)
REMARK    1  A    between atoms: C_1  and  C_2
REMARK    2  A    between atoms: N_4  and  C_5
REMARK    3  A    between atoms: C_5  and  C_6
REMARK    4  A    between atoms: C_5  and  C_25
REMARK    5  A    between atoms: C_6  and  C_7
REMARK    6  A    between atoms: C_12  and  C_13
REMARK                            x       y       z     vdW  Elec       q    Type
REMARK                         _______ _______ _______ _____ _____    ______ ____
ROOT
ATOM      1  C   UNL     1       1.281   9.317  19.322  0.00  0.00    +0.000 C 
ATOM      2  O   UNL     1       1.899   9.515  18.279  0.00  0.00    +0.000 OA
ATOM      3  N   UNL     1       1.344   8.195  20.122  0.00  0.00    +0.000 N 
ATOM      4  C   UNL     1       2.174   7.165  19.796  0.00  0.00    +0.000 A 
ATOM      5  N   UNL     1       3.101   7.140  18.880  0.00  0.00    +0.000 NA
ATOM      6  C   UNL     1       3.657   5.881  18.816  0.00  0.00    +0.000 A 
ATOM      7  C   UNL     1       3.113   4.964  19.699  0.00  0.00    +0.000 A 
ATOM      8  S   UNL     1       1.934   5.733  20.685  0.00  0.00    +0.000 S 
ATOM      9  H   UNL     1       0.706   8.053  20.889  0.00  0.00    +0.000 HD
ENDROOT
BRANCH   6  10
ATOM     10  C   UNL     1       4.720   5.594  17.866  0.00  0.00    +0.000 A 
ATOM     11  C   UNL     1       6.063   5.661  18.272  0.00  0.00    +0.000 A 
ATOM     12  C   UNL     1       7.094   5.367  17.375  0.00  0.00    +0.000 A 
ATOM     13  C   UNL     1       6.786   5.001  16.067  0.00  0.00    +0.000 A 
ATOM     14  C   UNL     1       5.450   4.907  15.667  0.00  0.00    +0.000 A 
ATOM     15  C   UNL     1       4.425   5.212  16.556  0.00  0.00    +0.000 A 
ATOM     16  O   UNL     1       5.062   4.521  14.410  0.00  0.00    +0.000 OA
ATOM     17  C   UNL     1       6.136   3.884  13.712  0.00  0.00    +0.000 C 
ATOM     18  C   UNL     1       7.420   4.682  13.862  0.00  0.00    +0.000 C 
ATOM     19  O   UNL     1       7.838   4.732  15.232  0.00  0.00    +0.000 OA
ENDBRANCH   6  10
BRANCH   1  20
ATOM     20  C   UNL     1       0.320  10.339  19.878  0.00  0.00    +0.000 C 
BRANCH  20  21
ATOM     21  C   UNL     1      -0.144  11.332  18.799  0.00  0.00    +0.000 C 
BRANCH  21  22
ATOM     22  C   UNL     1      -1.592  11.109  18.389  0.00  0.00    +0.000 A 
ATOM     23  C   UNL     1      -1.922  10.131  17.438  0.00  0.00    +0.000 A 
ATOM     24  C   UNL     1      -3.257   9.905  17.087  0.00  0.00    +0.000 A 
ATOM     25  C   UNL     1      -4.275  10.658  17.672  0.00  0.00    +0.000 A 
ATOM     26  C   UNL     1      -3.961  11.646  18.596  0.00  0.00    +0.000 A 
ATOM     27  C   UNL     1      -2.633  11.873  18.945  0.00  0.00    +0.000 A 
ENDBRANCH  21  22
BRANCH  21  31
ATOM     28  C   UNL     1       1.285  14.843  19.163  0.00  0.00    +0.000 C 
ATOM     29  C   UNL     1       1.309  13.374  18.826  0.00  0.00    +0.000 C 
ATOM     30  O   UNL     1       2.281  12.845  18.307  0.00  0.00    +0.000 OA
ATOM     31  N   UNL     1       0.125  12.733  19.121  0.00  0.00    +0.000 N 
ATOM     32  H   UNL     1      -0.697  13.325  19.087  0.00  0.00    +0.000 HD
ENDBRANCH  21  31
ENDBRANCH  20  21
ENDBRANCH   1  20
TORSDOF 5
ENDMDL
MODEL 9
REMARK VINA RESULT:      -8.3      3.131     10.925
REMARK  Name = 
REMARK  6 active torsions:
REMARK  status: ('A' for Active; 'I' for Inactive)
REMARK    1  A    between atoms: C_1  and  C_2
REMARK    2  A    between atoms: N_4  and  C_5
REMARK    3  A    between atoms: C_5  and  C_6
REMARK    4  A    between atoms: C_5  and  C_25
REMARK    5  A    between atoms: C_6  and  C_7
REMARK    6  A    between atoms: C_12  and  C_13
REMARK                            x       y       z     vdW  Elec       q    Type
REMARK                         _______ _______ _______ _____ _____    ______ ____
ROOT
ATOM      1  C   UNL     1      -0.211  10.070  22.258  0.00  0.00    +0.000 C 
ATOM      2  O   UNL     1       0.641   9.304  22.700  0.00  0.00    +0.000 OA
ATOM      3  N   UNL     1      -0.449  10.367  20.932  0.00  0.00    +0.000 N 
ATOM      4  C   UNL     1       0.283   9.769  19.951  0.00  0.00    +0.000 A 
ATOM      5  N   UNL     1       1.115   8.772  20.065  0.00  0.00    +0.000 NA
ATOM      6  C   UNL     1       1.712   8.523  18.849  0.00  0.00    +0.000 A 
ATOM      7  C   UNL     1       1.314   9.368  17.827  0.00  0.00    +0.000 A 
ATOM      8  S   UNL     1       0.100  10.443  18.398  0.00  0.00    +0.000 S 
ATOM      9  H   UNL     1      -1.077  11.108  20.658  0.00  0.00    +0.000 HD
ENDROOT
BRANCH   6  10
ATOM     10  C   UNL     1       2.686   7.453  18.714  0.00  0.00    +0.000 A 
ATOM     11  C   UNL     1       2.739   6.425  19.670  0.00  0.00    +0.000 A 
ATOM     12  C   UNL     1       3.656   5.379  19.541  0.00  0.00    +0.000 A 
ATOM     13  C   UNL     1       4.524   5.352  18.451  0.00  0.00    +0.000 A 
ATOM     14  C   UNL     1       4.455   6.357  17.483  0.00  0.00    +0.000 A 
ATOM     15  C   UNL     1       3.551   7.406  17.618  0.00  0.00    +0.000 A 
ATOM     16  O   UNL     1       5.247   6.386  16.364  0.00  0.00    +0.000 OA
ATOM     17  C   UNL     1       5.854   5.112  16.130  0.00  0.00    +0.000 C 
ATOM     18  C   UNL     1       6.434   4.551  17.416  0.00  0.00    +0.000 C 
ATOM     19  O   UNL     1       5.405   4.305  18.382  0.00  0.00    +0.000 OA
ENDBRANCH   6  10
BRANCH   1  20
ATOM     20  C   UNL     1      -1.148  10.824  23.170  0.00  0.00    +0.000 C 
BRANCH  20  21
ATOM     21  C   UNL     1      -1.666  12.115  22.512  0.00  0.00    +0.000 C 
BRANCH  21  22
ATOM     22  C   UNL     1      -3.123  12.392  22.849  0.00  0.00    +0.000 A 
ATOM     23  C   UNL     1      -3.580  12.300  24.173  0.00  0.00    +0.000 A 
ATOM     24  C   UNL     1      -4.913  12.588  24.485  0.00  0.00    +0.000 A 
ATOM     25  C   UNL     1      -5.806  12.959  23.480  0.00  0.00    +0.000 A 
ATOM     26  C   UNL     1      -5.374  13.031  22.162  0.00  0.00    +0.000 A 
ATOM     27  C   UNL     1      -4.048  12.744  21.851  0.00  0.00    +0.000 A 
ENDBRANCH  21  22
BRANCH  21  31
ATOM     28  C   UNL     1       0.658  15.119  22.239  0.00  0.00    +0.000 C 
ATOM     29  C   UNL     1      -0.029  13.861  21.772  0.00  0.00    +0.000 C 
ATOM     30  O   UNL     1       0.093  13.444  20.628  0.00  0.00    +0.000 OA
ATOM     31  N   UNL     1      -0.818  13.283  22.742  0.00  0.00    +0.000 N 
ATOM     32  H   UNL     1      -1.194  13.933  23.424  0.00  0.00    +0.000 HD
ENDBRANCH  21  31
ENDBRANCH  20  21
ENDBRANCH   1  20
TORSDOF 5
ENDMDL
