MODEL 1
REMARK VINA RESULT:      -8.6      0.000      0.000
REMARK  Name = 
REMARK  3 active torsions:
REMARK  status: ('A' for Active; 'I' for Inactive)
REMARK    1  A    between atoms: C_1  and  C_2
REMARK    2  A    between atoms: C_7  and  N_8
REMARK    3  A    between atoms: C_15  and  C_16
REMARK                            x       y       z     vdW  Elec       q    Type
REMARK                         _______ _______ _______ _____ _____    ______ ____
ROOT
ATOM      1  N   UNL     1       6.478   4.678  14.454  0.00  0.00    +0.000 N 
ATOM      2  C   UNL     1       6.295   4.229  15.744  0.00  0.00    +0.000 C 
ATOM      3  O   UNL     1       5.986   3.072  16.028  0.00  0.00    +0.000 OA
ATOM      4  N   UNL     1       6.502   5.152  16.748  0.00  0.00    +0.000 N 
ATOM      5  C   UNL     1       7.001   6.512  16.677  0.00  0.00    +0.000 C 
ATOM      6  C   UNL     1       7.733   6.699  17.997  0.00  0.00    +0.000 C 
ATOM      7  C   UNL     1       6.942   5.854  18.989  0.00  0.00    +0.000 C 
ATOM      8  C   UNL     1       6.303   4.742  18.140  0.00  0.00    +0.000 C 
ATOM      9  H   UNL     1       7.018   5.515  14.332  0.00  0.00    +0.000 HD
ENDROOT
BRANCH   8  10
ATOM     10  C   UNL     1       4.834   4.545  18.489  0.00  0.00    +0.000 A 
ATOM     11  C   UNL     1       3.854   5.399  17.925  0.00  0.00    +0.000 A 
ATOM     12  C   UNL     1       2.494   5.229  18.209  0.00  0.00    +0.000 A 
ATOM     13  C   UNL     1       2.139   4.203  19.059  0.00  0.00    +0.000 A 
ATOM     14  C   UNL     1       3.079   3.379  19.625  0.00  0.00    +0.000 A 
ATOM     15  C   UNL     1       4.425   3.527  19.369  0.00  0.00    +0.000 A 
ATOM     16  O   UNL     1       2.529   2.434  20.432  0.00  0.00    +0.000 OA
ATOM     17  C   UNL     1       1.131   2.766  20.316  0.00  0.00    +0.000 C 
ATOM     18  O   UNL     1       0.874   3.881  19.439  0.00  0.00    +0.000 OA
ENDBRANCH   8  10
BRANCH   1  25
ATOM     19  C   UNL     1       3.176   3.185  11.073  0.00  0.00    +0.000 C 
ATOM     20  C   UNL     1       4.576   3.192  11.608  0.00  0.00    +0.000 A 
ATOM     21  C   UNL     1       5.586   2.492  10.940  0.00  0.00    +0.000 A 
ATOM     22  C   UNL     1       6.875   2.491  11.452  0.00  0.00    +0.000 A 
ATOM     23  F   UNL     1       7.833   1.805  10.816  0.00  0.00    +0.000 F 
ATOM     24  C   UNL     1       7.188   3.186  12.613  0.00  0.00    +0.000 A 
ATOM     25  C   UNL     1       6.206   3.920  13.284  0.00  0.00    +0.000 A 
ATOM     26  C   UNL     1       4.893   3.898  12.786  0.00  0.00    +0.000 A 
ENDBRANCH   1  25
TORSDOF 2
ENDMDL
MODEL 2
REMARK VINA RESULT:      -8.2      1.060      1.698
REMARK  Name = 
REMARK  3 active torsions:
REMARK  status: ('A' for Active; 'I' for Inactive)
REMARK    1  A    between atoms: C_1  and  C_2
REMARK    2  A    between atoms: C_7  and  N_8
REMARK    3  A    between atoms: C_15  and  C_16
REMARK                            x       y       z     vdW  Elec       q    Type
REMARK                         _______ _______ _______ _____ _____    ______ ____
ROOT
ATOM      1  N   UNL     1       6.282   4.733  14.540  0.00  0.00    +0.000 N 
ATOM      2  C   UNL     1       6.149   4.279  15.835  0.00  0.00    +0.000 C 
ATOM      3  O   UNL     1       5.817   3.130  16.126  0.00  0.00    +0.000 OA
ATOM      4  N   UNL     1       6.436   5.186  16.834  0.00  0.00    +0.000 N 
ATOM      5  C   UNL     1       6.976   6.529  16.747  0.00  0.00    +0.000 C 
ATOM      6  C   UNL     1       7.779   6.681  18.029  0.00  0.00    +0.000 C 
ATOM      7  C   UNL     1       7.012   5.854  19.054  0.00  0.00    +0.000 C 
ATOM      8  C   UNL     1       6.294   4.770  18.231  0.00  0.00    +0.000 C 
ATOM      9  H   UNL     1       6.842   5.553  14.396  0.00  0.00    +0.000 HD
ENDROOT
BRANCH   8  10
ATOM     10  C   UNL     1       4.839   4.618  18.652  0.00  0.00    +0.000 A 
ATOM     11  C   UNL     1       3.891   5.606  18.287  0.00  0.00    +0.000 A 
ATOM     12  C   UNL     1       2.542   5.483  18.640  0.00  0.00    +0.000 A 
ATOM     13  C   UNL     1       2.167   4.368  19.358  0.00  0.00    +0.000 A 
ATOM     14  C   UNL     1       3.077   3.412  19.732  0.00  0.00    +0.000 A 
ATOM     15  C   UNL     1       4.412   3.510  19.405  0.00  0.00    +0.000 A 
ATOM     16  O   UNL     1       2.510   2.395  20.434  0.00  0.00    +0.000 OA
ATOM     17  C   UNL     1       1.135   2.828  20.466  0.00  0.00    +0.000 C 
ATOM     18  O   UNL     1       0.906   4.075  19.778  0.00  0.00    +0.000 OA
ENDBRANCH   8  10
BRANCH   1  25
ATOM     19  C   UNL     1       7.695   1.741  10.850  0.00  0.00    +0.000 C 
ATOM     20  C   UNL     1       6.624   2.508  11.564  0.00  0.00    +0.000 A 
ATOM     21  C   UNL     1       5.303   2.460  11.105  0.00  0.00    +0.000 A 
ATOM     22  C   UNL     1       4.321   3.186  11.763  0.00  0.00    +0.000 A 
ATOM     23  F   UNL     1       3.062   3.148  11.308  0.00  0.00    +0.000 F 
ATOM     24  C   UNL     1       4.621   3.953  12.881  0.00  0.00    +0.000 A 
ATOM     25  C   UNL     1       5.926   3.995  13.380  0.00  0.00    +0.000 A 
ATOM     26  C   UNL     1       6.929   3.286  12.698  0.00  0.00    +0.000 A 
ENDBRANCH   1  25
TORSDOF 2
ENDMDL
MODEL 3
REMARK VINA RESULT:      -8.2      4.152      8.071
REMARK  Name = 
REMARK  3 active torsions:
REMARK  status: ('A' for Active; 'I' for Inactive)
REMARK    1  A    between atoms: C_1  and  C_2
REMARK    2  A    between atoms: C_7  and  N_8
REMARK    3  A    between atoms: C_15  and  C_16
REMARK                            x       y       z     vdW  Elec       q    Type
REMARK                         _______ _______ _______ _____ _____    ______ ____
ROOT
ATOM      1  N   UNL     1       1.724   6.155  19.286  0.00  0.00    +0.000 N 
ATOM      2  C   UNL     1       2.932   5.492  19.322  0.00  0.00    +0.000 C 
ATOM      3  O   UNL     1       3.965   5.979  19.781  0.00  0.00    +0.000 OA
ATOM      4  N   UNL     1       2.937   4.204  18.831  0.00  0.00    +0.000 N 
ATOM      5  C   UNL     1       1.838   3.373  18.379  0.00  0.00    +0.000 C 
ATOM      6  C   UNL     1       2.282   1.961  18.730  0.00  0.00    +0.000 C 
ATOM      7  C   UNL     1       3.796   1.990  18.563  0.00  0.00    +0.000 C 
ATOM      8  C   UNL     1       4.195   3.453  18.824  0.00  0.00    +0.000 C 
ATOM      9  H   UNL     1       0.895   5.596  19.194  0.00  0.00    +0.000 HD
ENDROOT
BRANCH   8  10
ATOM     10  C   UNL     1       5.175   3.962  17.775  0.00  0.00    +0.000 A 
ATOM     11  C   UNL     1       6.390   4.567  18.179  0.00  0.00    +0.000 A 
ATOM     12  C   UNL     1       7.321   5.025  17.239  0.00  0.00    +0.000 A 
ATOM     13  C   UNL     1       7.014   4.870  15.905  0.00  0.00    +0.000 A 
ATOM     14  C   UNL     1       5.833   4.301  15.499  0.00  0.00    +0.000 A 
ATOM     15  C   UNL     1       4.895   3.848  16.402  0.00  0.00    +0.000 A 
ATOM     16  O   UNL     1       5.718   4.241  14.146  0.00  0.00    +0.000 OA
ATOM     17  C   UNL     1       6.963   4.849  13.746  0.00  0.00    +0.000 C 
ATOM     18  O   UNL     1       7.795   5.242  14.856  0.00  0.00    +0.000 OA
ENDBRANCH   8  10
BRANCH   1  25
ATOM     19  C   UNL     1       0.583   9.493  22.768  0.00  0.00    +0.000 C 
ATOM     20  C   UNL     1       0.981   9.167  21.360  0.00  0.00    +0.000 A 
ATOM     21  C   UNL     1       1.191  10.195  20.434  0.00  0.00    +0.000 A 
ATOM     22  C   UNL     1       1.543   9.883  19.130  0.00  0.00    +0.000 A 
ATOM     23  F   UNL     1       1.726  10.872  18.245  0.00  0.00    +0.000 F 
ATOM     24  C   UNL     1       1.707   8.565  18.725  0.00  0.00    +0.000 A 
ATOM     25  C   UNL     1       1.534   7.519  19.636  0.00  0.00    +0.000 A 
ATOM     26  C   UNL     1       1.147   7.830  20.950  0.00  0.00    +0.000 A 
ENDBRANCH   1  25
TORSDOF 2
ENDMDL
MODEL 4
REMARK VINA RESULT:      -8.1      4.484      8.129
REMARK  Name = 
REMARK  3 active torsions:
REMARK  status: ('A' for Active; 'I' for Inactive)
REMARK    1  A    between atoms: C_1  and  C_2
REMARK    2  A    between atoms: C_7  and  N_8
REMARK    3  A    between atoms: C_15  and  C_16
REMARK                            x       y       z     vdW  Elec       q    Type
REMARK                         _______ _______ _______ _____ _____    ______ ____
ROOT
ATOM      1  N   UNL     1       1.698   6.153  19.378  0.00  0.00    +0.000 N 
ATOM      2  C   UNL     1       2.888   5.458  19.383  0.00  0.00    +0.000 C 
ATOM      3  O   UNL     1       3.932   5.894  19.869  0.00  0.00    +0.000 OA
ATOM      4  N   UNL     1       2.862   4.197  18.826  0.00  0.00    +0.000 N 
ATOM      5  C   UNL     1       1.743   3.420  18.328  0.00  0.00    +0.000 C 
ATOM      6  C   UNL     1       2.149   1.981  18.607  0.00  0.00    +0.000 C 
ATOM      7  C   UNL     1       3.664   1.978  18.446  0.00  0.00    +0.000 C 
ATOM      8  C   UNL     1       4.100   3.415  18.783  0.00  0.00    +0.000 C 
ATOM      9  H   UNL     1       0.856   5.621  19.255  0.00  0.00    +0.000 HD
ENDROOT
BRANCH   8  10
ATOM     10  C   UNL     1       5.097   3.952  17.765  0.00  0.00    +0.000 A 
ATOM     11  C   UNL     1       6.286   4.582  18.207  0.00  0.00    +0.000 A 
ATOM     12  C   UNL     1       7.232   5.066  17.295  0.00  0.00    +0.000 A 
ATOM     13  C   UNL     1       6.966   4.911  15.952  0.00  0.00    +0.000 A 
ATOM     14  C   UNL     1       5.810   4.317  15.510  0.00  0.00    +0.000 A 
ATOM     15  C   UNL     1       4.859   3.838  16.384  0.00  0.00    +0.000 A 
ATOM     16  O   UNL     1       5.735   4.262  14.154  0.00  0.00    +0.000 OA
ATOM     17  C   UNL     1       6.977   4.900  13.793  0.00  0.00    +0.000 C 
ATOM     18  O   UNL     1       7.769   5.306  14.927  0.00  0.00    +0.000 OA
ENDBRANCH   8  10
BRANCH   1  25
ATOM     19  C   UNL     1       1.730  10.967  18.198  0.00  0.00    +0.000 C 
ATOM     20  C   UNL     1       1.548   9.879  19.211  0.00  0.00    +0.000 A 
ATOM     21  C   UNL     1       1.200  10.197  20.528  0.00  0.00    +0.000 A 
ATOM     22  C   UNL     1       1.050   9.184  21.463  0.00  0.00    +0.000 A 
ATOM     23  F   UNL     1       0.733   9.498  22.726  0.00  0.00    +0.000 F 
ATOM     24  C   UNL     1       1.226   7.851  21.114  0.00  0.00    +0.000 A 
ATOM     25  C   UNL     1       1.543   7.502  19.798  0.00  0.00    +0.000 A 
ATOM     26  C   UNL     1       1.726   8.527  18.856  0.00  0.00    +0.000 A 
ENDBRANCH   1  25
TORSDOF 2
ENDMDL
MODEL 5
REMARK VINA RESULT:      -7.6      0.916      1.445
REMARK  Name = 
REMARK  3 active torsions:
REMARK  status: ('A' for Active; 'I' for Inactive)
REMARK    1  A    between atoms: C_1  and  C_2
REMARK    2  A    between atoms: C_7  and  N_8
REMARK    3  A    between atoms: C_15  and  C_16
REMARK                            x       y       z     vdW  Elec       q    Type
REMARK                         _______ _______ _______ _____ _____    ______ ____
ROOT
ATOM      1  N   UNL     1       5.802   4.639  14.215  0.00  0.00    +0.000 N 
ATOM      2  C   UNL     1       5.948   4.170  15.503  0.00  0.00    +0.000 C 
ATOM      3  O   UNL     1       6.099   2.982  15.784  0.00  0.00    +0.000 OA
ATOM      4  N   UNL     1       5.942   5.119  16.504  0.00  0.00    +0.000 N 
ATOM      5  C   UNL     1       5.923   6.567  16.417  0.00  0.00    +0.000 C 
ATOM      6  C   UNL     1       6.701   7.014  17.645  0.00  0.00    +0.000 C 
ATOM      7  C   UNL     1       6.382   5.958  18.697  0.00  0.00    +0.000 C 
ATOM      8  C   UNL     1       6.072   4.682  17.896  0.00  0.00    +0.000 C 
ATOM      9  H   UNL     1       5.997   5.611  14.055  0.00  0.00    +0.000 HD
ENDROOT
BRANCH   8  10
ATOM     10  C   UNL     1       4.819   3.988  18.411  0.00  0.00    +0.000 A 
ATOM     11  C   UNL     1       4.890   3.166  19.562  0.00  0.00    +0.000 A 
ATOM     12  C   UNL     1       3.751   2.532  20.073  0.00  0.00    +0.000 A 
ATOM     13  C   UNL     1       2.556   2.733  19.416  0.00  0.00    +0.000 A 
ATOM     14  C   UNL     1       2.476   3.514  18.290  0.00  0.00    +0.000 A 
ATOM     15  C   UNL     1       3.581   4.144  17.761  0.00  0.00    +0.000 A 
ATOM     16  O   UNL     1       1.213   3.585  17.791  0.00  0.00    +0.000 OA
ATOM     17  C   UNL     1       0.509   2.748  18.730  0.00  0.00    +0.000 C 
ATOM     18  O   UNL     1       1.351   2.211  19.770  0.00  0.00    +0.000 OA
ENDBRANCH   8  10
BRANCH   1  25
ATOM     19  C   UNL     1       2.977   3.086  10.451  0.00  0.00    +0.000 C 
ATOM     20  C   UNL     1       4.276   3.061  11.197  0.00  0.00    +0.000 A 
ATOM     21  C   UNL     1       5.335   2.272  10.737  0.00  0.00    +0.000 A 
ATOM     22  C   UNL     1       6.528   2.243  11.443  0.00  0.00    +0.000 A 
ATOM     23  F   UNL     1       7.532   1.472  11.004  0.00  0.00    +0.000 F 
ATOM     24  C   UNL     1       6.699   2.997  12.596  0.00  0.00    +0.000 A 
ATOM     25  C   UNL     1       5.669   3.820  13.062  0.00  0.00    +0.000 A 
ATOM     26  C   UNL     1       4.449   3.827  12.367  0.00  0.00    +0.000 A 
ENDBRANCH   1  25
TORSDOF 2
ENDMDL
MODEL 6
REMARK VINA RESULT:      -7.4      0.767      1.192
REMARK  Name = 
REMARK  3 active torsions:
REMARK  status: ('A' for Active; 'I' for Inactive)
REMARK    1  A    between atoms: C_1  and  C_2
REMARK    2  A    between atoms: C_7  and  N_8
REMARK    3  A    between atoms: C_15  and  C_16
REMARK                            x       y       z     vdW  Elec       q    Type
REMARK                         _______ _______ _______ _____ _____    ______ ____
ROOT
ATOM      1  N   UNL     1       6.386   4.723  14.485  0.00  0.00    +0.000 N 
ATOM      2  C   UNL     1       6.349   4.224  15.769  0.00  0.00    +0.000 C 
ATOM      3  O   UNL     1       6.211   3.030  16.035  0.00  0.00    +0.000 OA
ATOM      4  N   UNL     1       6.504   5.142  16.786  0.00  0.00    +0.000 N 
ATOM      5  C   UNL     1       6.820   6.557  16.727  0.00  0.00    +0.000 C 
ATOM      6  C   UNL     1       7.610   6.806  18.002  0.00  0.00    +0.000 C 
ATOM      7  C   UNL     1       7.002   5.843  19.016  0.00  0.00    +0.000 C 
ATOM      8  C   UNL     1       6.454   4.677  18.175  0.00  0.00    +0.000 C 
ATOM      9  H   UNL     1       6.805   5.625  14.354  0.00  0.00    +0.000 HD
ENDROOT
BRANCH   8  10
ATOM     10  C   UNL     1       5.049   4.284  18.610  0.00  0.00    +0.000 A 
ATOM     11  C   UNL     1       4.599   2.953  18.426  0.00  0.00    +0.000 A 
ATOM     12  C   UNL     1       3.321   2.556  18.836  0.00  0.00    +0.000 A 
ATOM     13  C   UNL     1       2.513   3.504  19.424  0.00  0.00    +0.000 A 
ATOM     14  C   UNL     1       2.929   4.801  19.594  0.00  0.00    +0.000 A 
ATOM     15  C   UNL     1       4.179   5.222  19.194  0.00  0.00    +0.000 A 
ATOM     16  O   UNL     1       1.988   5.580  20.189  0.00  0.00    +0.000 OA
ATOM     17  C   UNL     1       0.924   4.623  20.366  0.00  0.00    +0.000 C 
ATOM     18  O   UNL     1       1.252   3.301  19.892  0.00  0.00    +0.000 OA
ENDBRANCH   8  10
BRANCH   1  25
ATOM     19  C   UNL     1       3.135   3.194  11.070  0.00  0.00    +0.000 C 
ATOM     20  C   UNL     1       4.529   3.217  11.619  0.00  0.00    +0.000 A 
ATOM     21  C   UNL     1       5.554   2.531  10.959  0.00  0.00    +0.000 A 
ATOM     22  C   UNL     1       6.838   2.546  11.483  0.00  0.00    +0.000 A 
ATOM     23  F   UNL     1       7.811   1.873  10.854  0.00  0.00    +0.000 F 
ATOM     24  C   UNL     1       7.132   3.243  12.648  0.00  0.00    +0.000 A 
ATOM     25  C   UNL     1       6.134   3.963  13.311  0.00  0.00    +0.000 A 
ATOM     26  C   UNL     1       4.826   3.925  12.801  0.00  0.00    +0.000 A 
ENDBRANCH   1  25
TORSDOF 2
ENDMDL
MODEL 7
REMARK VINA RESULT:      -7.3      1.314      2.128
REMARK  Name = 
REMARK  3 active torsions:
REMARK  status: ('A' for Active; 'I' for Inactive)
REMARK    1  A    between atoms: C_1  and  C_2
REMARK    2  A    between atoms: C_7  and  N_8
REMARK    3  A    between atoms: C_15  and  C_16
REMARK                            x       y       z     vdW  Elec       q    Type
REMARK                         _______ _______ _______ _____ _____    ______ ____
ROOT
ATOM      1  N   UNL     1       6.206   4.798  14.554  0.00  0.00    +0.000 N 
ATOM      2  C   UNL     1       6.256   4.293  15.836  0.00  0.00    +0.000 C 
ATOM      3  O   UNL     1       6.119   3.101  16.107  0.00  0.00    +0.000 OA
ATOM      4  N   UNL     1       6.499   5.204  16.842  0.00  0.00    +0.000 N 
ATOM      5  C   UNL     1       6.831   6.615  16.764  0.00  0.00    +0.000 C 
ATOM      6  C   UNL     1       7.715   6.846  17.979  0.00  0.00    +0.000 C 
ATOM      7  C   UNL     1       7.169   5.888  19.031  0.00  0.00    +0.000 C 
ATOM      8  C   UNL     1       6.544   4.735  18.229  0.00  0.00    +0.000 C 
ATOM      9  H   UNL     1       6.628   5.695  14.396  0.00  0.00    +0.000 HD
ENDROOT
BRANCH   8  10
ATOM     10  C   UNL     1       5.169   4.360  18.765  0.00  0.00    +0.000 A 
ATOM     11  C   UNL     1       4.811   2.996  18.900  0.00  0.00    +0.000 A 
ATOM     12  C   UNL     1       3.563   2.620  19.410  0.00  0.00    +0.000 A 
ATOM     13  C   UNL     1       2.691   3.623  19.775  0.00  0.00    +0.000 A 
ATOM     14  C   UNL     1       3.018   4.949  19.635  0.00  0.00    +0.000 A 
ATOM     15  C   UNL     1       4.236   5.348  19.129  0.00  0.00    +0.000 A 
ATOM     16  O   UNL     1       2.025   5.780  20.048  0.00  0.00    +0.000 OA
ATOM     17  C   UNL     1       1.029   4.821  20.458  0.00  0.00    +0.000 C 
ATOM     18  O   UNL     1       1.447   3.450  20.297  0.00  0.00    +0.000 OA
ENDBRANCH   8  10
BRANCH   1  25
ATOM     19  C   UNL     1       7.646   1.788  10.888  0.00  0.00    +0.000 C 
ATOM     20  C   UNL     1       6.568   2.552  11.595  0.00  0.00    +0.000 A 
ATOM     21  C   UNL     1       5.248   2.491  11.136  0.00  0.00    +0.000 A 
ATOM     22  C   UNL     1       4.260   3.214  11.786  0.00  0.00    +0.000 A 
ATOM     23  F   UNL     1       3.001   3.163  11.331  0.00  0.00    +0.000 F 
ATOM     24  C   UNL     1       4.553   3.992  12.899  0.00  0.00    +0.000 A 
ATOM     25  C   UNL     1       5.857   4.047  13.399  0.00  0.00    +0.000 A 
ATOM     26  C   UNL     1       6.866   3.341  12.724  0.00  0.00    +0.000 A 
ENDBRANCH   1  25
TORSDOF 2
ENDMDL
MODEL 8
REMARK VINA RESULT:      -7.3      1.341      2.196
REMARK  Name = 
REMARK  3 active torsions:
REMARK  status: ('A' for Active; 'I' for Inactive)
REMARK    1  A    between atoms: C_1  and  C_2
REMARK    2  A    between atoms: C_7  and  N_8
REMARK    3  A    between atoms: C_15  and  C_16
REMARK                            x       y       z     vdW  Elec       q    Type
REMARK                         _______ _______ _______ _____ _____    ______ ____
ROOT
ATOM      1  N   UNL     1       5.771   4.675  14.325  0.00  0.00    +0.000 N 
ATOM      2  C   UNL     1       5.908   4.148  15.591  0.00  0.00    +0.000 C 
ATOM      3  O   UNL     1       5.991   2.942  15.825  0.00  0.00    +0.000 OA
ATOM      4  N   UNL     1       5.978   5.055  16.627  0.00  0.00    +0.000 N 
ATOM      5  C   UNL     1       6.047   6.504  16.595  0.00  0.00    +0.000 C 
ATOM      6  C   UNL     1       6.871   6.855  17.825  0.00  0.00    +0.000 C 
ATOM      7  C   UNL     1       6.505   5.781  18.842  0.00  0.00    +0.000 C 
ATOM      8  C   UNL     1       6.103   4.558  17.999  0.00  0.00    +0.000 C 
ATOM      9  H   UNL     1       6.023   5.638  14.199  0.00  0.00    +0.000 HD
ENDROOT
BRANCH   8  10
ATOM     10  C   UNL     1       4.818   3.922  18.511  0.00  0.00    +0.000 A 
ATOM     11  C   UNL     1       4.840   3.136  19.689  0.00  0.00    +0.000 A 
ATOM     12  C   UNL     1       3.671   2.557  20.197  0.00  0.00    +0.000 A 
ATOM     13  C   UNL     1       2.496   2.775  19.510  0.00  0.00    +0.000 A 
ATOM     14  C   UNL     1       2.463   3.522  18.359  0.00  0.00    +0.000 A 
ATOM     15  C   UNL     1       3.599   4.098  17.832  0.00  0.00    +0.000 A 
ATOM     16  O   UNL     1       1.213   3.618  17.833  0.00  0.00    +0.000 OA
ATOM     17  C   UNL     1       0.463   2.836  18.784  0.00  0.00    +0.000 C 
ATOM     18  O   UNL     1       1.268   2.305  19.857  0.00  0.00    +0.000 OA
ENDBRANCH   8  10
BRANCH   1  25
ATOM     19  C   UNL     1       7.678   1.691  10.856  0.00  0.00    +0.000 C 
ATOM     20  C   UNL     1       6.510   2.428  11.438  0.00  0.00    +0.000 A 
ATOM     21  C   UNL     1       5.249   2.328  10.841  0.00  0.00    +0.000 A 
ATOM     22  C   UNL     1       4.177   3.026  11.377  0.00  0.00    +0.000 A 
ATOM     23  F   UNL     1       2.976   2.938  10.789  0.00  0.00    +0.000 F 
ATOM     24  C   UNL     1       4.328   3.817  12.509  0.00  0.00    +0.000 A 
ATOM     25  C   UNL     1       5.569   3.910  13.145  0.00  0.00    +0.000 A 
ATOM     26  C   UNL     1       6.663   3.229  12.587  0.00  0.00    +0.000 A 
ENDBRANCH   1  25
TORSDOF 2
ENDMDL
MODEL 9
REMARK VINA RESULT:      -7.3      4.235      8.007
REMARK  Name = 
REMARK  3 active torsions:
REMARK  status: ('A' for Active; 'I' for Inactive)
REMARK    1  A    between atoms: C_1  and  C_2
REMARK    2  A    between atoms: C_7  and  N_8
REMARK    3  A    between atoms: C_15  and  C_16
REMARK                            x       y       z     vdW  Elec       q    Type
REMARK                         _______ _______ _______ _____ _____    ______ ____
ROOT
ATOM      1  N   UNL     1       1.955   6.285  20.176  0.00  0.00    +0.000 N 
ATOM      2  C   UNL     1       3.205   5.797  19.865  0.00  0.00    +0.000 C 
ATOM      3  O   UNL     1       4.174   6.511  19.607  0.00  0.00    +0.000 OA
ATOM      4  N   UNL     1       3.347   4.425  19.877  0.00  0.00    +0.000 N 
ATOM      5  C   UNL     1       2.410   3.394  20.282  0.00  0.00    +0.000 C 
ATOM      6  C   UNL     1       3.301   2.288  20.826  0.00  0.00    +0.000 C 
ATOM      7  C   UNL     1       4.565   2.372  19.980  0.00  0.00    +0.000 C 
ATOM      8  C   UNL     1       4.646   3.842  19.534  0.00  0.00    +0.000 C 
ATOM      9  H   UNL     1       1.330   5.671  20.666  0.00  0.00    +0.000 HD
ENDROOT
BRANCH   8  10
ATOM     10  C   UNL     1       4.969   3.962  18.051  0.00  0.00    +0.000 A 
ATOM     11  C   UNL     1       3.994   3.609  17.086  0.00  0.00    +0.000 A 
ATOM     12  C   UNL     1       4.253   3.728  15.715  0.00  0.00    +0.000 A 
ATOM     13  C   UNL     1       5.491   4.200  15.335  0.00  0.00    +0.000 A 
ATOM     14  C   UNL     1       6.451   4.530  16.259  0.00  0.00    +0.000 A 
ATOM     15  C   UNL     1       6.226   4.416  17.614  0.00  0.00    +0.000 A 
ATOM     16  O   UNL     1       7.601   4.972  15.685  0.00  0.00    +0.000 OA
ATOM     17  C   UNL     1       7.256   4.872  14.289  0.00  0.00    +0.000 C 
ATOM     18  O   UNL     1       5.916   4.392  14.058  0.00  0.00    +0.000 OA
ENDBRANCH   8  10
BRANCH   1  25
ATOM     19  C   UNL     1      -0.044  10.223  22.428  0.00  0.00    +0.000 C 
ATOM     20  C   UNL     1       0.599   9.600  21.226  0.00  0.00    +0.000 A 
ATOM     21  C   UNL     1       0.846  10.370  20.085  0.00  0.00    +0.000 A 
ATOM     22  C   UNL     1       1.427   9.782  18.972  0.00  0.00    +0.000 A 
ATOM     23  F   UNL     1       1.646  10.522  17.877  0.00  0.00    +0.000 F 
ATOM     24  C   UNL     1       1.783   8.439  18.971  0.00  0.00    +0.000 A 
ATOM     25  C   UNL     1       1.577   7.653  20.109  0.00  0.00    +0.000 A 
ATOM     26  C   UNL     1       0.960   8.238  21.227  0.00  0.00    +0.000 A 
ENDBRANCH   1  25
TORSDOF 2
ENDMDL
