MODEL 1
REMARK VINA RESULT:      -8.7      0.000      0.000
REMARK  Name = 
REMARK  3 active torsions:
REMARK  status: ('A' for Active; 'I' for Inactive)
REMARK    1  A    between atoms: C_1  and  C_2
REMARK    2  A    between atoms: N_4  and  S_5
REMARK    3  A    between atoms: S_5  and  C_8
REMARK                            x       y       z     vdW  Elec       q    Type
REMARK                         _______ _______ _______ _____ _____    ______ ____
ROOT
ATOM      1  S   UNL     1       3.411   4.382  18.848  0.00  0.00    +0.000 S 
ATOM      2  O   UNL     1       2.609   3.756  17.817  0.00  0.00    +0.000 OA
ATOM      3  O   UNL     1       3.464   3.807  20.177  0.00  0.00    +0.000 OA
ENDROOT
BRANCH   1   4
ATOM      4  C   UNL     1       2.775   6.036  19.057  0.00  0.00    +0.000 A 
ATOM      5  C   UNL     1       2.874   6.968  17.995  0.00  0.00    +0.000 A 
ATOM      6  C   UNL     1       2.274   8.229  18.098  0.00  0.00    +0.000 A 
ATOM      7  C   UNL     1       1.689   8.528  19.306  0.00  0.00    +0.000 A 
ATOM      8  N   UNL     1       1.191   9.706  19.782  0.00  0.00    +0.000 N 
ATOM      9  C   UNL     1       1.066   9.574  21.145  0.00  0.00    +0.000 A 
ATOM     10  O   UNL     1       0.873  10.498  21.919  0.00  0.00    +0.000 OA
ATOM     11  O   UNL     1       1.228   8.242  21.539  0.00  0.00    +0.000 OA
ATOM     12  C   UNL     1       1.657   7.649  20.365  0.00  0.00    +0.000 A 
ATOM     13  C   UNL     1       2.106   6.358  20.244  0.00  0.00    +0.000 A 
ATOM     14  H   UNL     1       0.557  10.306  19.276  0.00  0.00    +0.000 HD
ENDBRANCH   1   4
BRANCH   1  18
ATOM     15  C   UNL     1       7.812   6.827  18.363  0.00  0.00    +0.000 C 
ATOM     16  C   UNL     1       7.260   5.409  18.314  0.00  0.00    +0.000 C 
ATOM     17  C   UNL     1       5.996   5.230  19.189  0.00  0.00    +0.000 C 
ATOM     18  N   UNL     1       4.980   4.578  18.317  0.00  0.00    +0.000 N 
ATOM     19  C   UNL     1       5.420   4.633  16.974  0.00  0.00    +0.000 A 
ATOM     20  C   UNL     1       4.783   4.237  15.803  0.00  0.00    +0.000 A 
ATOM     21  C   UNL     1       5.512   4.248  14.610  0.00  0.00    +0.000 A 
ATOM     22  C   UNL     1       6.861   4.649  14.584  0.00  0.00    +0.000 A 
ATOM     23  C   UNL     1       7.495   5.057  15.746  0.00  0.00    +0.000 A 
ATOM     24  C   UNL     1       6.755   5.064  16.929  0.00  0.00    +0.000 A 
ENDBRANCH   1  18
TORSDOF 2
ENDMDL
MODEL 2
REMARK VINA RESULT:      -8.5      1.356      1.716
REMARK  Name = 
REMARK  3 active torsions:
REMARK  status: ('A' for Active; 'I' for Inactive)
REMARK    1  A    between atoms: C_1  and  C_2
REMARK    2  A    between atoms: N_4  and  S_5
REMARK    3  A    between atoms: S_5  and  C_8
REMARK                            x       y       z     vdW  Elec       q    Type
REMARK                         _______ _______ _______ _____ _____    ______ ____
ROOT
ATOM      1  S   UNL     1       3.738   3.729  18.679  0.00  0.00    +0.000 S 
ATOM      2  O   UNL     1       2.950   3.143  17.614  0.00  0.00    +0.000 OA
ATOM      3  O   UNL     1       3.926   3.009  19.923  0.00  0.00    +0.000 OA
ENDROOT
BRANCH   1   4
ATOM      4  C   UNL     1       2.945   5.265  19.119  0.00  0.00    +0.000 A 
ATOM      5  C   UNL     1       2.259   5.374  20.352  0.00  0.00    +0.000 A 
ATOM      6  C   UNL     1       1.735   6.605  20.768  0.00  0.00    +0.000 A 
ATOM      7  C   UNL     1       1.841   7.644  19.873  0.00  0.00    +0.000 A 
ATOM      8  N   UNL     1       1.287   8.892  19.894  0.00  0.00    +0.000 N 
ATOM      9  C   UNL     1       1.387   9.403  18.622  0.00  0.00    +0.000 A 
ATOM     10  O   UNL     1       0.795  10.393  18.221  0.00  0.00    +0.000 OA
ATOM     11  O   UNL     1       2.230   8.619  17.829  0.00  0.00    +0.000 OA
ATOM     12  C   UNL     1       2.444   7.520  18.642  0.00  0.00    +0.000 A 
ATOM     13  C   UNL     1       3.093   6.369  18.270  0.00  0.00    +0.000 A 
ATOM     14  H   UNL     1       1.307   9.514  20.689  0.00  0.00    +0.000 HD
ENDBRANCH   1   4
BRANCH   1  18
ATOM     15  C   UNL     1       7.795   6.721  18.261  0.00  0.00    +0.000 C 
ATOM     16  C   UNL     1       7.410   5.256  18.099  0.00  0.00    +0.000 C 
ATOM     17  C   UNL     1       6.220   4.848  19.000  0.00  0.00    +0.000 C 
ATOM     18  N   UNL     1       5.246   4.159  18.110  0.00  0.00    +0.000 N 
ATOM     19  C   UNL     1       5.610   4.387  16.762  0.00  0.00    +0.000 A 
ATOM     20  C   UNL     1       4.966   4.023  15.585  0.00  0.00    +0.000 A 
ATOM     21  C   UNL     1       5.630   4.229  14.371  0.00  0.00    +0.000 A 
ATOM     22  C   UNL     1       6.920   4.791  14.331  0.00  0.00    +0.000 A 
ATOM     23  C   UNL     1       7.558   5.167  15.502  0.00  0.00    +0.000 A 
ATOM     24  C   UNL     1       6.882   4.978  16.708  0.00  0.00    +0.000 A 
ENDBRANCH   1  18
TORSDOF 2
ENDMDL
MODEL 3
REMARK VINA RESULT:      -8.2      3.355      6.024
REMARK  Name = 
REMARK  3 active torsions:
REMARK  status: ('A' for Active; 'I' for Inactive)
REMARK    1  A    between atoms: C_1  and  C_2
REMARK    2  A    between atoms: N_4  and  S_5
REMARK    3  A    between atoms: S_5  and  C_8
REMARK                            x       y       z     vdW  Elec       q    Type
REMARK                         _______ _______ _______ _____ _____    ______ ____
ROOT
ATOM      1  S   UNL     1       4.945   4.414  16.817  0.00  0.00    +0.000 S 
ATOM      2  O   UNL     1       5.666   3.243  16.365  0.00  0.00    +0.000 OA
ATOM      3  O   UNL     1       4.213   5.228  15.866  0.00  0.00    +0.000 OA
ENDROOT
BRANCH   1   4
ATOM      4  C   UNL     1       6.147   5.500  17.566  0.00  0.00    +0.000 A 
ATOM      5  C   UNL     1       6.817   5.099  18.747  0.00  0.00    +0.000 A 
ATOM      6  C   UNL     1       7.848   5.883  19.279  0.00  0.00    +0.000 A 
ATOM      7  C   UNL     1       8.086   7.083  18.652  0.00  0.00    +0.000 A 
ATOM      8  N   UNL     1       8.876   8.134  19.019  0.00  0.00    +0.000 N 
ATOM      9  C   UNL     1       8.488   9.217  18.267  0.00  0.00    +0.000 A 
ATOM     10  O   UNL     1       8.815  10.373  18.490  0.00  0.00    +0.000 OA
ATOM     11  O   UNL     1       7.634   8.831  17.230  0.00  0.00    +0.000 OA
ATOM     12  C   UNL     1       7.385   7.507  17.546  0.00  0.00    +0.000 A 
ATOM     13  C   UNL     1       6.472   6.697  16.917  0.00  0.00    +0.000 A 
ATOM     14  H   UNL     1       9.836   8.051  19.322  0.00  0.00    +0.000 HD
ENDBRANCH   1   4
BRANCH   1  18
ATOM     15  C   UNL     1       0.905   2.123  18.821  0.00  0.00    +0.000 C 
ATOM     16  C   UNL     1       2.256   2.680  19.249  0.00  0.00    +0.000 C 
ATOM     17  C   UNL     1       3.306   2.639  18.114  0.00  0.00    +0.000 C 
ATOM     18  N   UNL     1       3.895   4.005  18.047  0.00  0.00    +0.000 N 
ATOM     19  C   UNL     1       3.100   4.889  18.812  0.00  0.00    +0.000 A 
ATOM     20  C   UNL     1       3.198   6.266  18.982  0.00  0.00    +0.000 A 
ATOM     21  C   UNL     1       2.377   6.880  19.934  0.00  0.00    +0.000 A 
ATOM     22  C   UNL     1       1.468   6.132  20.705  0.00  0.00    +0.000 A 
ATOM     23  C   UNL     1       1.359   4.762  20.529  0.00  0.00    +0.000 A 
ATOM     24  C   UNL     1       2.166   4.158  19.564  0.00  0.00    +0.000 A 
ENDBRANCH   1  18
TORSDOF 2
ENDMDL
MODEL 4
REMARK VINA RESULT:      -8.1      2.279      6.490
REMARK  Name = 
REMARK  3 active torsions:
REMARK  status: ('A' for Active; 'I' for Inactive)
REMARK    1  A    between atoms: C_1  and  C_2
REMARK    2  A    between atoms: N_4  and  S_5
REMARK    3  A    between atoms: S_5  and  C_8
REMARK                            x       y       z     vdW  Elec       q    Type
REMARK                         _______ _______ _______ _____ _____    ______ ____
ROOT
ATOM      1  S   UNL     1       2.462   4.766  19.335  0.00  0.00    +0.000 S 
ATOM      2  O   UNL     1       2.615   3.848  20.445  0.00  0.00    +0.000 OA
ATOM      3  O   UNL     1       1.516   4.474  18.276  0.00  0.00    +0.000 OA
ENDROOT
BRANCH   1   4
ATOM      4  C   UNL     1       4.058   4.884  18.545  0.00  0.00    +0.000 A 
ATOM      5  C   UNL     1       5.197   5.232  19.310  0.00  0.00    +0.000 A 
ATOM      6  C   UNL     1       6.473   5.211  18.734  0.00  0.00    +0.000 A 
ATOM      7  C   UNL     1       6.528   4.939  17.387  0.00  0.00    +0.000 A 
ATOM      8  N   UNL     1       7.570   5.020  16.508  0.00  0.00    +0.000 N 
ATOM      9  C   UNL     1       7.035   5.007  15.242  0.00  0.00    +0.000 A 
ATOM     10  O   UNL     1       7.647   5.294  14.224  0.00  0.00    +0.000 OA
ATOM     11  O   UNL     1       5.682   4.657  15.269  0.00  0.00    +0.000 OA
ATOM     12  C   UNL     1       5.412   4.673  16.626  0.00  0.00    +0.000 A 
ATOM     13  C   UNL     1       4.169   4.542  17.192  0.00  0.00    +0.000 A 
ATOM     14  H   UNL     1       8.487   4.631  16.670  0.00  0.00    +0.000 HD
ENDBRANCH   1   4
BRANCH   1  18
ATOM     15  C   UNL     1      -0.319   8.302  21.647  0.00  0.00    +0.000 C 
ATOM     16  C   UNL     1       1.136   8.010  21.302  0.00  0.00    +0.000 C 
ATOM     17  C   UNL     1       1.432   6.495  21.197  0.00  0.00    +0.000 C 
ATOM     18  N   UNL     1       2.136   6.301  19.899  0.00  0.00    +0.000 N 
ATOM     19  C   UNL     1       2.014   7.480  19.127  0.00  0.00    +0.000 A 
ATOM     20  C   UNL     1       2.428   7.748  17.827  0.00  0.00    +0.000 A 
ATOM     21  C   UNL     1       2.332   9.061  17.354  0.00  0.00    +0.000 A 
ATOM     22  C   UNL     1       1.829  10.094  18.167  0.00  0.00    +0.000 A 
ATOM     23  C   UNL     1       1.404   9.827  19.458  0.00  0.00    +0.000 A 
ATOM     24  C   UNL     1       1.483   8.511  19.917  0.00  0.00    +0.000 A 
ENDBRANCH   1  18
TORSDOF 2
ENDMDL
MODEL 5
REMARK VINA RESULT:      -8.0      3.483      5.814
REMARK  Name = 
REMARK  3 active torsions:
REMARK  status: ('A' for Active; 'I' for Inactive)
REMARK    1  A    between atoms: C_1  and  C_2
REMARK    2  A    between atoms: N_4  and  S_5
REMARK    3  A    between atoms: S_5  and  C_8
REMARK                            x       y       z     vdW  Elec       q    Type
REMARK                         _______ _______ _______ _____ _____    ______ ____
ROOT
ATOM      1  S   UNL     1       5.169   4.754  16.431  0.00  0.00    +0.000 S 
ATOM      2  O   UNL     1       5.654   3.394  16.541  0.00  0.00    +0.000 OA
ATOM      3  O   UNL     1       5.013   5.366  15.125  0.00  0.00    +0.000 OA
ENDROOT
BRANCH   1   4
ATOM      4  C   UNL     1       6.326   5.784  17.317  0.00  0.00    +0.000 A 
ATOM      5  C   UNL     1       6.927   5.305  18.506  0.00  0.00    +0.000 A 
ATOM      6  C   UNL     1       7.925   6.049  19.147  0.00  0.00    +0.000 A 
ATOM      7  C   UNL     1       8.198   7.287  18.615  0.00  0.00    +0.000 A 
ATOM      8  N   UNL     1       8.965   8.309  19.096  0.00  0.00    +0.000 N 
ATOM      9  C   UNL     1       8.621   9.440  18.395  0.00  0.00    +0.000 A 
ATOM     10  O   UNL     1       8.934  10.578  18.711  0.00  0.00    +0.000 OA
ATOM     11  O   UNL     1       7.828   9.125  17.287  0.00  0.00    +0.000 OA
ATOM     12  C   UNL     1       7.561   7.785  17.501  0.00  0.00    +0.000 A 
ATOM     13  C   UNL     1       6.687   7.021  16.768  0.00  0.00    +0.000 A 
ATOM     14  H   UNL     1       9.906   8.203  19.447  0.00  0.00    +0.000 HD
ENDBRANCH   1   4
BRANCH   1  18
ATOM     15  C   UNL     1       2.125   6.544  20.052  0.00  0.00    +0.000 C 
ATOM     16  C   UNL     1       2.043   5.968  18.645  0.00  0.00    +0.000 C 
ATOM     17  C   UNL     1       3.322   6.233  17.815  0.00  0.00    +0.000 C 
ATOM     18  N   UNL     1       3.722   4.917  17.244  0.00  0.00    +0.000 N 
ATOM     19  C   UNL     1       2.991   3.892  17.887  0.00  0.00    +0.000 A 
ATOM     20  C   UNL     1       3.078   2.510  17.758  0.00  0.00    +0.000 A 
ATOM     21  C   UNL     1       2.116   1.719  18.394  0.00  0.00    +0.000 A 
ATOM     22  C   UNL     1       1.081   2.298  19.151  0.00  0.00    +0.000 A 
ATOM     23  C   UNL     1       0.999   3.673  19.293  0.00  0.00    +0.000 A 
ATOM     24  C   UNL     1       1.974   4.456  18.673  0.00  0.00    +0.000 A 
ENDBRANCH   1  18
TORSDOF 2
ENDMDL
MODEL 6
REMARK VINA RESULT:      -7.5      3.216      6.808
REMARK  Name = 
REMARK  3 active torsions:
REMARK  status: ('A' for Active; 'I' for Inactive)
REMARK    1  A    between atoms: C_1  and  C_2
REMARK    2  A    between atoms: N_4  and  S_5
REMARK    3  A    between atoms: S_5  and  C_8
REMARK                            x       y       z     vdW  Elec       q    Type
REMARK                         _______ _______ _______ _____ _____    ______ ____
ROOT
ATOM      1  S   UNL     1       3.464   2.725  17.415  0.00  0.00    +0.000 S 
ATOM      2  O   UNL     1       3.896   1.354  17.592  0.00  0.00    +0.000 OA
ATOM      3  O   UNL     1       2.332   3.024  16.559  0.00  0.00    +0.000 OA
ENDROOT
BRANCH   1   4
ATOM      4  C   UNL     1       4.847   3.614  16.723  0.00  0.00    +0.000 A 
ATOM      5  C   UNL     1       5.634   4.447  17.554  0.00  0.00    +0.000 A 
ATOM      6  C   UNL     1       6.793   5.056  17.057  0.00  0.00    +0.000 A 
ATOM      7  C   UNL     1       7.048   4.876  15.717  0.00  0.00    +0.000 A 
ATOM      8  N   UNL     1       7.971   5.467  14.903  0.00  0.00    +0.000 N 
ATOM      9  C   UNL     1       7.581   5.230  13.607  0.00  0.00    +0.000 A 
ATOM     10  O   UNL     1       8.036   5.799  12.627  0.00  0.00    +0.000 OA
ATOM     11  O   UNL     1       6.563   4.272  13.554  0.00  0.00    +0.000 OA
ATOM     12  C   UNL     1       6.243   4.124  14.892  0.00  0.00    +0.000 A 
ATOM     13  C   UNL     1       5.185   3.399  15.381  0.00  0.00    +0.000 A 
ATOM     14  H   UNL     1       8.951   5.563  15.123  0.00  0.00    +0.000 HD
ENDBRANCH   1   4
BRANCH   1  18
ATOM     15  C   UNL     1       1.297   3.119  21.968  0.00  0.00    +0.000 C 
ATOM     16  C   UNL     1       2.555   3.569  21.238  0.00  0.00    +0.000 C 
ATOM     17  C   UNL     1       2.971   2.596  20.109  0.00  0.00    +0.000 C 
ATOM     18  N   UNL     1       3.181   3.435  18.897  0.00  0.00    +0.000 N 
ATOM     19  C   UNL     1       2.653   4.726  19.132  0.00  0.00    +0.000 A 
ATOM     20  C   UNL     1       2.539   5.818  18.278  0.00  0.00    +0.000 A 
ATOM     21  C   UNL     1       2.126   7.043  18.814  0.00  0.00    +0.000 A 
ATOM     22  C   UNL     1       1.829   7.176  20.183  0.00  0.00    +0.000 A 
ATOM     23  C   UNL     1       1.929   6.087  21.033  0.00  0.00    +0.000 A 
ATOM     24  C   UNL     1       2.322   4.864  20.489  0.00  0.00    +0.000 A 
ENDBRANCH   1  18
TORSDOF 2
ENDMDL
MODEL 7
REMARK VINA RESULT:      -7.3      1.255      2.685
REMARK  Name = 
REMARK  3 active torsions:
REMARK  status: ('A' for Active; 'I' for Inactive)
REMARK    1  A    between atoms: C_1  and  C_2
REMARK    2  A    between atoms: N_4  and  S_5
REMARK    3  A    between atoms: S_5  and  C_8
REMARK                            x       y       z     vdW  Elec       q    Type
REMARK                         _______ _______ _______ _____ _____    ______ ____
ROOT
ATOM      1  S   UNL     1       2.707   4.273  18.294  0.00  0.00    +0.000 S 
ATOM      2  O   UNL     1       1.650   3.910  17.373  0.00  0.00    +0.000 OA
ATOM      3  O   UNL     1       3.109   3.351  19.339  0.00  0.00    +0.000 OA
ENDROOT
BRANCH   1   4
ATOM      4  C   UNL     1       2.171   5.755  19.131  0.00  0.00    +0.000 A 
ATOM      5  C   UNL     1       1.727   5.684  20.473  0.00  0.00    +0.000 A 
ATOM      6  C   UNL     1       1.418   6.851  21.182  0.00  0.00    +0.000 A 
ATOM      7  C   UNL     1       1.476   8.028  20.472  0.00  0.00    +0.000 A 
ATOM      8  N   UNL     1       1.070   9.287  20.810  0.00  0.00    +0.000 N 
ATOM      9  C   UNL     1       1.000  10.017  19.647  0.00  0.00    +0.000 A 
ATOM     10  O   UNL     1       0.456  11.105  19.538  0.00  0.00    +0.000 OA
ATOM     11  O   UNL     1       1.603   9.333  18.586  0.00  0.00    +0.000 OA
ATOM     12  C   UNL     1       1.838   8.090  19.146  0.00  0.00    +0.000 A 
ATOM     13  C   UNL     1       2.285   6.984  18.468  0.00  0.00    +0.000 A 
ATOM     14  H   UNL     1       1.295   9.748  21.679  0.00  0.00    +0.000 HD
ENDBRANCH   1   4
BRANCH   1  18
ATOM     15  C   UNL     1       6.386   3.649  14.880  0.00  0.00    +0.000 C 
ATOM     16  C   UNL     1       5.661   4.769  15.614  0.00  0.00    +0.000 C 
ATOM     17  C   UNL     1       4.214   4.386  16.006  0.00  0.00    +0.000 C 
ATOM     18  N   UNL     1       4.078   4.714  17.452  0.00  0.00    +0.000 N 
ATOM     19  C   UNL     1       5.361   4.964  17.992  0.00  0.00    +0.000 A 
ATOM     20  C   UNL     1       5.748   5.224  19.302  0.00  0.00    +0.000 A 
ATOM     21  C   UNL     1       7.073   5.604  19.543  0.00  0.00    +0.000 A 
ATOM     22  C   UNL     1       8.000   5.721  18.491  0.00  0.00    +0.000 A 
ATOM     23  C   UNL     1       7.620   5.450  17.186  0.00  0.00    +0.000 A 
ATOM     24  C   UNL     1       6.303   5.052  16.955  0.00  0.00    +0.000 A 
ENDBRANCH   1  18
TORSDOF 2
ENDMDL
MODEL 8
REMARK VINA RESULT:      -7.3      3.893      8.551
REMARK  Name = 
REMARK  3 active torsions:
REMARK  status: ('A' for Active; 'I' for Inactive)
REMARK    1  A    between atoms: C_1  and  C_2
REMARK    2  A    between atoms: N_4  and  S_5
REMARK    3  A    between atoms: S_5  and  C_8
REMARK                            x       y       z     vdW  Elec       q    Type
REMARK                         _______ _______ _______ _____ _____    ______ ____
ROOT
ATOM      1  S   UNL     1       0.593  10.808  19.439  0.00  0.00    +0.000 S 
ATOM      2  O   UNL     1       1.329  11.787  18.666  0.00  0.00    +0.000 OA
ATOM      3  O   UNL     1       0.465  10.963  20.875  0.00  0.00    +0.000 OA
ENDROOT
BRANCH   1   4
ATOM      4  C   UNL     1       1.407   9.240  19.188  0.00  0.00    +0.000 A 
ATOM      5  C   UNL     1       2.109   8.997  17.983  0.00  0.00    +0.000 A 
ATOM      6  C   UNL     1       2.854   7.822  17.820  0.00  0.00    +0.000 A 
ATOM      7  C   UNL     1       2.772   6.902  18.840  0.00  0.00    +0.000 A 
ATOM      8  N   UNL     1       3.217   5.614  18.909  0.00  0.00    +0.000 N 
ATOM      9  C   UNL     1       2.574   5.018  19.967  0.00  0.00    +0.000 A 
ATOM     10  O   UNL     1       2.552   3.816  20.182  0.00  0.00    +0.000 OA
ATOM     11  O   UNL     1       1.910   5.966  20.752  0.00  0.00    +0.000 OA
ATOM     12  C   UNL     1       2.029   7.107  19.980  0.00  0.00    +0.000 A 
ATOM     13  C   UNL     1       1.410   8.306  20.232  0.00  0.00    +0.000 A 
ATOM     14  H   UNL     1       4.147   5.315  18.654  0.00  0.00    +0.000 HD
ENDBRANCH   1   4
BRANCH   1  18
ATOM     15  C   UNL     1      -2.850  10.596  15.739  0.00  0.00    +0.000 C 
ATOM     16  C   UNL     1      -2.637  10.086  17.158  0.00  0.00    +0.000 C 
ATOM     17  C   UNL     1      -1.140   9.913  17.512  0.00  0.00    +0.000 C 
ATOM     18  N   UNL     1      -0.940  10.613  18.811  0.00  0.00    +0.000 N 
ATOM     19  C   UNL     1      -2.077  11.407  19.088  0.00  0.00    +0.000 A 
ATOM     20  C   UNL     1      -2.319  12.297  20.129  0.00  0.00    +0.000 A 
ATOM     21  C   UNL     1      -3.603  12.835  20.262  0.00  0.00    +0.000 A 
ATOM     22  C   UNL     1      -4.634  12.491  19.368  0.00  0.00    +0.000 A 
ATOM     23  C   UNL     1      -4.392  11.615  18.321  0.00  0.00    +0.000 A 
ATOM     24  C   UNL     1      -3.104  11.098  18.182  0.00  0.00    +0.000 A 
ENDBRANCH   1  18
TORSDOF 2
ENDMDL
MODEL 9
REMARK VINA RESULT:      -7.3      2.383      6.278
REMARK  Name = 
REMARK  3 active torsions:
REMARK  status: ('A' for Active; 'I' for Inactive)
REMARK    1  A    between atoms: C_1  and  C_2
REMARK    2  A    between atoms: N_4  and  S_5
REMARK    3  A    between atoms: S_5  and  C_8
REMARK                            x       y       z     vdW  Elec       q    Type
REMARK                         _______ _______ _______ _____ _____    ______ ____
ROOT
ATOM      1  S   UNL     1       1.955   4.883  20.384  0.00  0.00    +0.000 S 
ATOM      2  O   UNL     1       2.394   4.324  21.646  0.00  0.00    +0.000 OA
ATOM      3  O   UNL     1       0.756   4.378  19.744  0.00  0.00    +0.000 OA
ENDROOT
BRANCH   1   4
ATOM      4  C   UNL     1       3.279   4.618  19.218  0.00  0.00    +0.000 A 
ATOM      5  C   UNL     1       3.001   4.033  17.959  0.00  0.00    +0.000 A 
ATOM      6  C   UNL     1       4.004   3.929  16.986  0.00  0.00    +0.000 A 
ATOM      7  C   UNL     1       5.264   4.327  17.367  0.00  0.00    +0.000 A 
ATOM      8  N   UNL     1       6.466   4.188  16.734  0.00  0.00    +0.000 N 
ATOM      9  C   UNL     1       7.446   4.408  17.672  0.00  0.00    +0.000 A 
ATOM     10  O   UNL     1       8.628   4.142  17.520  0.00  0.00    +0.000 OA
ATOM     11  O   UNL     1       6.909   4.945  18.846  0.00  0.00    +0.000 OA
ATOM     12  C   UNL     1       5.550   4.829  18.616  0.00  0.00    +0.000 A 
ATOM     13  C   UNL     1       4.563   5.078  19.537  0.00  0.00    +0.000 A 
ATOM     14  H   UNL     1       6.634   4.422  15.767  0.00  0.00    +0.000 HD
ENDBRANCH   1   4
BRANCH   1  18
ATOM     15  C   UNL     1      -0.435   9.193  21.520  0.00  0.00    +0.000 C 
ATOM     16  C   UNL     1       0.981   8.659  21.356  0.00  0.00    +0.000 C 
ATOM     17  C   UNL     1       1.090   7.147  21.665  0.00  0.00    +0.000 C 
ATOM     18  N   UNL     1       1.804   6.539  20.509  0.00  0.00    +0.000 N 
ATOM     19  C   UNL     1       1.855   7.477  19.452  0.00  0.00    +0.000 A 
ATOM     20  C   UNL     1       2.339   7.344  18.155  0.00  0.00    +0.000 A 
ATOM     21  C   UNL     1       2.422   8.487  17.353  0.00  0.00    +0.000 A 
ATOM     22  C   UNL     1       2.026   9.747  17.837  0.00  0.00    +0.000 A 
ATOM     23  C   UNL     1       1.531   9.882  19.124  0.00  0.00    +0.000 A 
ATOM     24  C   UNL     1       1.432   8.734  19.912  0.00  0.00    +0.000 A 
ENDBRANCH   1  18
TORSDOF 2
ENDMDL
