MODEL 1
REMARK VINA RESULT:      -8.6      0.000      0.000
REMARK  Name = 
REMARK  8 active torsions:
REMARK  status: ('A' for Active; 'I' for Inactive)
REMARK    1  A    between atoms: C_1  and  C_2
REMARK    2  A    between atoms: C_4  and  C_5
REMARK    3  A    between atoms: C_5  and  O_6
REMARK    4  A    between atoms: O_6  and  C_7
REMARK    5  A    between atoms: C_10  and  C_11
REMARK    6  A    between atoms: N_13  and  C_14
REMARK    7  A    between atoms: C_14  and  C_15
REMARK    8  A    between atoms: C_15  and  C_16
REMARK                            x       y       z     vdW  Elec       q    Type
REMARK                         _______ _______ _______ _____ _____    ______ ____
ROOT
ATOM      1  C   UNL     1       2.619   5.792  19.581  0.00  0.00    +0.000 C 
ATOM      2  O   UNL     1       3.010   5.428  20.701  0.00  0.00    +0.000 OA
ATOM      3  N   UNL     1       2.661   4.963  18.478  0.00  0.00    +0.000 N 
ATOM      4  H   UNL     1       2.527   5.385  17.561  0.00  0.00    +0.000 HD
ENDROOT
BRANCH   1   8
ATOM      5  C   UNL     1       1.074   9.785  18.952  0.00  0.00    +0.000 A 
ATOM      6  C   UNL     1       1.694   9.080  17.917  0.00  0.00    +0.000 A 
ATOM      7  C   UNL     1       2.188   7.786  18.130  0.00  0.00    +0.000 A 
ATOM      8  C   UNL     1       2.084   7.176  19.389  0.00  0.00    +0.000 A 
ATOM      9  C   UNL     1       1.513   7.910  20.441  0.00  0.00    +0.000 A 
ATOM     10  C   UNL     1       1.016   9.199  20.222  0.00  0.00    +0.000 A 
BRANCH   5  11
ATOM     11  O   UNL     1       0.575  11.019  18.626  0.00  0.00    +0.000 OA
BRANCH  11  12
ATOM     12  C   UNL     1      -0.663  11.365  19.267  0.00  0.00    +0.000 C 
BRANCH  12  16
ATOM     13  C   UNL     1      -2.934  10.219  15.019  0.00  0.00    +0.000 C 
ATOM     14  C   UNL     1      -2.785  10.720  16.413  0.00  0.00    +0.000 A 
ATOM     15  N   UNL     1      -1.656  10.713  17.091  0.00  0.00    +0.000 NA
ATOM     16  C   UNL     1      -1.849  11.267  18.353  0.00  0.00    +0.000 A 
ATOM     17  C   UNL     1      -3.146  11.674  18.606  0.00  0.00    +0.000 A 
ATOM     18  S   UNL     1      -4.139  11.372  17.243  0.00  0.00    +0.000 S 
ENDBRANCH  12  16
ENDBRANCH  11  12
ENDBRANCH   5  11
ENDBRANCH   1   8
BRANCH   3  19
ATOM     19  C   UNL     1       3.147   3.572  18.532  0.00  0.00    +0.000 C 
BRANCH  19  20
ATOM     20  C   UNL     1       3.930   3.247  17.257  0.00  0.00    +0.000 C 
BRANCH  20  21
ATOM     21  C   UNL     1       5.187   3.961  16.810  0.00  0.00    +0.000 A 
ATOM     22  C   UNL     1       5.528   3.722  15.451  0.00  0.00    +0.000 A 
ATOM     23  C   UNL     1       6.553   4.410  14.816  0.00  0.00    +0.000 A 
ATOM     24  C   UNL     1       7.134   5.470  15.480  0.00  0.00    +0.000 A 
ATOM     25  C   UNL     1       6.817   5.702  16.812  0.00  0.00    +0.000 A 
ATOM     26  C   UNL     1       7.440   6.752  17.466  0.00  0.00    +0.000 A 
ATOM     27  C   UNL     1       7.893   6.500  18.725  0.00  0.00    +0.000 A 
ATOM     28  C   UNL     1       7.199   5.535  19.432  0.00  0.00    +0.000 A 
ATOM     29  N   UNL     1       6.153   4.809  18.895  0.00  0.00    +0.000 NA
ATOM     30  C   UNL     1       6.008   4.821  17.560  0.00  0.00    +0.000 A 
ENDBRANCH  20  21
ENDBRANCH  19  20
ENDBRANCH   3  19
TORSDOF 7
ENDMDL
MODEL 2
REMARK VINA RESULT:      -8.5      4.580      8.087
REMARK  Name = 
REMARK  8 active torsions:
REMARK  status: ('A' for Active; 'I' for Inactive)
REMARK    1  A    between atoms: C_1  and  C_2
REMARK    2  A    between atoms: C_4  and  C_5
REMARK    3  A    between atoms: C_5  and  O_6
REMARK    4  A    between atoms: O_6  and  C_7
REMARK    5  A    between atoms: C_10  and  C_11
REMARK    6  A    between atoms: N_13  and  C_14
REMARK    7  A    between atoms: C_14  and  C_15
REMARK    8  A    between atoms: C_15  and  C_16
REMARK                            x       y       z     vdW  Elec       q    Type
REMARK                         _______ _______ _______ _____ _____    ______ ____
ROOT
ATOM      1  C   UNL     1       5.755   4.384  18.246  0.00  0.00    +0.000 C 
ATOM      2  O   UNL     1       5.755   3.793  19.336  0.00  0.00    +0.000 OA
ATOM      3  N   UNL     1       5.131   3.870  17.126  0.00  0.00    +0.000 N 
ATOM      4  H   UNL     1       5.347   4.294  16.226  0.00  0.00    +0.000 HD
ENDROOT
BRANCH   1   8
ATOM      5  C   UNL     1       7.842   8.157  17.879  0.00  0.00    +0.000 A 
ATOM      6  C   UNL     1       8.278   7.177  18.773  0.00  0.00    +0.000 A 
ATOM      7  C   UNL     1       7.597   5.957  18.882  0.00  0.00    +0.000 A 
ATOM      8  C   UNL     1       6.457   5.699  18.107  0.00  0.00    +0.000 A 
ATOM      9  C   UNL     1       5.987   6.710  17.254  0.00  0.00    +0.000 A 
ATOM     10  C   UNL     1       6.674   7.923  17.144  0.00  0.00    +0.000 A 
BRANCH   5  11
ATOM     11  O   UNL     1       8.609   9.291  17.807  0.00  0.00    +0.000 OA
BRANCH  11  12
ATOM     12  C   UNL     1       9.109   9.771  19.065  0.00  0.00    +0.000 C 
BRANCH  12  16
ATOM     13  C   UNL     1      10.589  14.182  20.760  0.00  0.00    +0.000 C 
ATOM     14  C   UNL     1      10.429  13.054  19.801  0.00  0.00    +0.000 A 
ATOM     15  N   UNL     1       9.795  11.932  20.069  0.00  0.00    +0.000 NA
ATOM     16  C   UNL     1       9.807  11.095  18.957  0.00  0.00    +0.000 A 
ATOM     17  C   UNL     1      10.474  11.610  17.861  0.00  0.00    +0.000 A 
ATOM     18  S   UNL     1      11.087  13.170  18.219  0.00  0.00    +0.000 S 
ENDBRANCH  12  16
ENDBRANCH  11  12
ENDBRANCH   5  11
ENDBRANCH   1   8
BRANCH   3  19
ATOM     19  C   UNL     1       4.390   2.596  17.129  0.00  0.00    +0.000 C 
BRANCH  19  20
ATOM     20  C   UNL     1       2.884   2.871  17.137  0.00  0.00    +0.000 C 
BRANCH  20  21
ATOM     21  C   UNL     1       2.141   3.576  18.250  0.00  0.00    +0.000 A 
ATOM     22  C   UNL     1       1.252   2.732  18.969  0.00  0.00    +0.000 A 
ATOM     23  C   UNL     1       0.603   3.154  20.121  0.00  0.00    +0.000 A 
ATOM     24  C   UNL     1       0.969   4.366  20.667  0.00  0.00    +0.000 A 
ATOM     25  C   UNL     1       1.826   5.204  19.965  0.00  0.00    +0.000 A 
ATOM     26  C   UNL     1       2.151   6.430  20.519  0.00  0.00    +0.000 A 
ATOM     27  C   UNL     1       2.137   7.501  19.678  0.00  0.00    +0.000 A 
ATOM     28  C   UNL     1       2.413   7.225  18.350  0.00  0.00    +0.000 A 
ATOM     29  N   UNL     1       2.626   5.947  17.871  0.00  0.00    +0.000 NA
ATOM     30  C   UNL     1       2.250   4.920  18.649  0.00  0.00    +0.000 A 
ENDBRANCH  20  21
ENDBRANCH  19  20
ENDBRANCH   3  19
TORSDOF 7
ENDMDL
MODEL 3
REMARK VINA RESULT:      -8.4      0.964      1.189
REMARK  Name = 
REMARK  8 active torsions:
REMARK  status: ('A' for Active; 'I' for Inactive)
REMARK    1  A    between atoms: C_1  and  C_2
REMARK    2  A    between atoms: C_4  and  C_5
REMARK    3  A    between atoms: C_5  and  O_6
REMARK    4  A    between atoms: O_6  and  C_7
REMARK    5  A    between atoms: C_10  and  C_11
REMARK    6  A    between atoms: N_13  and  C_14
REMARK    7  A    between atoms: C_14  and  C_15
REMARK    8  A    between atoms: C_15  and  C_16
REMARK                            x       y       z     vdW  Elec       q    Type
REMARK                         _______ _______ _______ _____ _____    ______ ____
ROOT
ATOM      1  C   UNL     1       2.538   5.361  19.646  0.00  0.00    +0.000 C 
ATOM      2  O   UNL     1       2.763   4.959  20.797  0.00  0.00    +0.000 OA
ATOM      3  N   UNL     1       2.650   4.541  18.540  0.00  0.00    +0.000 N 
ATOM      4  H   UNL     1       2.659   4.980  17.622  0.00  0.00    +0.000 HD
ENDROOT
BRANCH   1   8
ATOM      5  C   UNL     1       1.383   9.465  18.905  0.00  0.00    +0.000 A 
ATOM      6  C   UNL     1       1.970   8.690  17.903  0.00  0.00    +0.000 A 
ATOM      7  C   UNL     1       2.338   7.361  18.152  0.00  0.00    +0.000 A 
ATOM      8  C   UNL     1       2.137   6.784  19.415  0.00  0.00    +0.000 A 
ATOM      9  C   UNL     1       1.601   7.585  20.436  0.00  0.00    +0.000 A 
ATOM     10  C   UNL     1       1.230   8.909  20.181  0.00  0.00    +0.000 A 
BRANCH   5  11
ATOM     11  O   UNL     1       1.008  10.733  18.545  0.00  0.00    +0.000 OA
BRANCH  11  12
ATOM     12  C   UNL     1      -0.200  11.210  19.158  0.00  0.00    +0.000 C 
BRANCH  12  16
ATOM     13  C   UNL     1      -4.918  11.937  17.842  0.00  0.00    +0.000 C 
ATOM     14  C   UNL     1      -3.547  11.358  17.801  0.00  0.00    +0.000 A 
ATOM     15  N   UNL     1      -2.567  11.707  18.608  0.00  0.00    +0.000 NA
ATOM     16  C   UNL     1      -1.423  10.967  18.323  0.00  0.00    +0.000 A 
ATOM     17  C   UNL     1      -1.567  10.070  17.281  0.00  0.00    +0.000 A 
ATOM     18  S   UNL     1      -3.160  10.143  16.652  0.00  0.00    +0.000 S 
ENDBRANCH  12  16
ENDBRANCH  11  12
ENDBRANCH   5  11
ENDBRANCH   1   8
BRANCH   3  19
ATOM     19  C   UNL     1       3.018   3.116  18.628  0.00  0.00    +0.000 C 
BRANCH  19  20
ATOM     20  C   UNL     1       4.337   2.876  17.888  0.00  0.00    +0.000 C 
BRANCH  20  21
ATOM     21  C   UNL     1       5.118   3.940  17.149  0.00  0.00    +0.000 A 
ATOM     22  C   UNL     1       4.888   3.948  15.746  0.00  0.00    +0.000 A 
ATOM     23  C   UNL     1       5.389   4.946  14.922  0.00  0.00    +0.000 A 
ATOM     24  C   UNL     1       5.979   6.044  15.514  0.00  0.00    +0.000 A 
ATOM     25  C   UNL     1       6.221   6.038  16.882  0.00  0.00    +0.000 A 
ATOM     26  C   UNL     1       6.845   7.137  17.446  0.00  0.00    +0.000 A 
ATOM     27  C   UNL     1       7.831   6.879  18.349  0.00  0.00    +0.000 A 
ATOM     28  C   UNL     1       7.707   5.694  19.052  0.00  0.00    +0.000 A 
ATOM     29  N   UNL     1       6.695   4.781  18.824  0.00  0.00    +0.000 NA
ATOM     30  C   UNL     1       5.996   4.899  17.684  0.00  0.00    +0.000 A 
ENDBRANCH  20  21
ENDBRANCH  19  20
ENDBRANCH   3  19
TORSDOF 7
ENDMDL
MODEL 4
REMARK VINA RESULT:      -8.2      2.760      3.452
REMARK  Name = 
REMARK  8 active torsions:
REMARK  status: ('A' for Active; 'I' for Inactive)
REMARK    1  A    between atoms: C_1  and  C_2
REMARK    2  A    between atoms: C_4  and  C_5
REMARK    3  A    between atoms: C_5  and  O_6
REMARK    4  A    between atoms: O_6  and  C_7
REMARK    5  A    between atoms: C_10  and  C_11
REMARK    6  A    between atoms: N_13  and  C_14
REMARK    7  A    between atoms: C_14  and  C_15
REMARK    8  A    between atoms: C_15  and  C_16
REMARK                            x       y       z     vdW  Elec       q    Type
REMARK                         _______ _______ _______ _____ _____    ______ ____
ROOT
ATOM      1  C   UNL     1       2.284   5.801  19.634  0.00  0.00    +0.000 C 
ATOM      2  O   UNL     1       2.442   5.461  20.817  0.00  0.00    +0.000 OA
ATOM      3  N   UNL     1       2.363   4.901  18.589  0.00  0.00    +0.000 N 
ATOM      4  H   UNL     1       2.435   5.275  17.645  0.00  0.00    +0.000 HD
ENDROOT
BRANCH   1   8
ATOM      5  C   UNL     1       1.466   9.953  18.733  0.00  0.00    +0.000 A 
ATOM      6  C   UNL     1       1.132   9.406  19.974  0.00  0.00    +0.000 A 
ATOM      7  C   UNL     1       1.404   8.061  20.257  0.00  0.00    +0.000 A 
ATOM      8  C   UNL     1       2.004   7.232  19.298  0.00  0.00    +0.000 A 
ATOM      9  C   UNL     1       2.283   7.770  18.031  0.00  0.00    +0.000 A 
ATOM     10  C   UNL     1       2.016   9.115  17.756  0.00  0.00    +0.000 A 
BRANCH   5  11
ATOM     11  O   UNL     1       1.210  11.291  18.575  0.00  0.00    +0.000 OA
BRANCH  11  12
ATOM     12  C   UNL     1       1.232  12.063  19.787  0.00  0.00    +0.000 C 
BRANCH  12  16
ATOM     13  C   UNL     1       3.764  15.533  17.324  0.00  0.00    +0.000 C 
ATOM     14  C   UNL     1       3.178  14.820  18.492  0.00  0.00    +0.000 A 
ATOM     15  N   UNL     1       2.439  13.734  18.408  0.00  0.00    +0.000 NA
ATOM     16  C   UNL     1       2.064  13.307  19.679  0.00  0.00    +0.000 A 
ATOM     17  C   UNL     1       2.529  14.103  20.709  0.00  0.00    +0.000 A 
ATOM     18  S   UNL     1       3.456  15.401  20.084  0.00  0.00    +0.000 S 
ENDBRANCH  12  16
ENDBRANCH  11  12
ENDBRANCH   5  11
ENDBRANCH   1   8
BRANCH   3  19
ATOM     19  C   UNL     1       2.615   3.461  18.782  0.00  0.00    +0.000 C 
BRANCH  19  20
ATOM     20  C   UNL     1       4.088   3.151  18.501  0.00  0.00    +0.000 C 
BRANCH  20  21
ATOM     21  C   UNL     1       4.998   3.994  17.635  0.00  0.00    +0.000 A 
ATOM     22  C   UNL     1       4.827   3.773  16.241  0.00  0.00    +0.000 A 
ATOM     23  C   UNL     1       5.455   4.562  15.287  0.00  0.00    +0.000 A 
ATOM     24  C   UNL     1       6.124   5.690  15.713  0.00  0.00    +0.000 A 
ATOM     25  C   UNL     1       6.308   5.906  17.073  0.00  0.00    +0.000 A 
ATOM     26  C   UNL     1       7.012   7.029  17.474  0.00  0.00    +0.000 A 
ATOM     27  C   UNL     1       7.931   6.849  18.463  0.00  0.00    +0.000 A 
ATOM     28  C   UNL     1       7.664   5.823  19.352  0.00  0.00    +0.000 A 
ATOM     29  N   UNL     1       6.578   4.977  19.227  0.00  0.00    +0.000 NA
ATOM     30  C   UNL     1       5.941   4.951  18.045  0.00  0.00    +0.000 A 
ENDBRANCH  20  21
ENDBRANCH  19  20
ENDBRANCH   3  19
TORSDOF 7
ENDMDL
MODEL 5
REMARK VINA RESULT:      -8.1      2.615      3.217
REMARK  Name = 
REMARK  8 active torsions:
REMARK  status: ('A' for Active; 'I' for Inactive)
REMARK    1  A    between atoms: C_1  and  C_2
REMARK    2  A    between atoms: C_4  and  C_5
REMARK    3  A    between atoms: C_5  and  O_6
REMARK    4  A    between atoms: O_6  and  C_7
REMARK    5  A    between atoms: C_10  and  C_11
REMARK    6  A    between atoms: N_13  and  C_14
REMARK    7  A    between atoms: C_14  and  C_15
REMARK    8  A    between atoms: C_15  and  C_16
REMARK                            x       y       z     vdW  Elec       q    Type
REMARK                         _______ _______ _______ _____ _____    ______ ____
ROOT
ATOM      1  C   UNL     1       2.720   5.423  19.356  0.00  0.00    +0.000 C 
ATOM      2  O   UNL     1       3.260   5.047  20.408  0.00  0.00    +0.000 OA
ATOM      3  N   UNL     1       2.469   4.562  18.305  0.00  0.00    +0.000 N 
ATOM      4  H   UNL     1       2.224   4.970  17.405  0.00  0.00    +0.000 HD
ENDROOT
BRANCH   1   8
ATOM      5  C   UNL     1       1.584   9.561  18.797  0.00  0.00    +0.000 A 
ATOM      6  C   UNL     1       2.247   8.854  17.792  0.00  0.00    +0.000 A 
ATOM      7  C   UNL     1       2.608   7.513  17.982  0.00  0.00    +0.000 A 
ATOM      8  C   UNL     1       2.324   6.856  19.188  0.00  0.00    +0.000 A 
ATOM      9  C   UNL     1       1.711   7.588  20.218  0.00  0.00    +0.000 A 
ATOM     10  C   UNL     1       1.347   8.924  20.021  0.00  0.00    +0.000 A 
BRANCH   5  11
ATOM     11  O   UNL     1       1.225  10.848  18.493  0.00  0.00    +0.000 OA
BRANCH  11  12
ATOM     12  C   UNL     1       0.937  11.685  19.624  0.00  0.00    +0.000 C 
BRANCH  12  16
ATOM     13  C   UNL     1       4.427  14.770  17.943  0.00  0.00    +0.000 C 
ATOM     14  C   UNL     1       3.337  14.267  18.823  0.00  0.00    +0.000 A 
ATOM     15  N   UNL     1       2.698  13.130  18.644  0.00  0.00    +0.000 NA
ATOM     16  C   UNL     1       1.754  12.944  19.649  0.00  0.00    +0.000 A 
ATOM     17  C   UNL     1       1.693  13.971  20.572  0.00  0.00    +0.000 A 
ATOM     18  S   UNL     1       2.841  15.184  20.188  0.00  0.00    +0.000 S 
ENDBRANCH  12  16
ENDBRANCH  11  12
ENDBRANCH   5  11
ENDBRANCH   1   8
BRANCH   3  19
ATOM     19  C   UNL     1       2.792   3.124  18.346  0.00  0.00    +0.000 C 
BRANCH  19  20
ATOM     20  C   UNL     1       4.232   2.903  17.877  0.00  0.00    +0.000 C 
BRANCH  20  21
ATOM     21  C   UNL     1       5.070   3.931  17.147  0.00  0.00    +0.000 A 
ATOM     22  C   UNL     1       4.899   3.911  15.737  0.00  0.00    +0.000 A 
ATOM     23  C   UNL     1       5.459   4.878  14.912  0.00  0.00    +0.000 A 
ATOM     24  C   UNL     1       6.050   5.975  15.504  0.00  0.00    +0.000 A 
ATOM     25  C   UNL     1       6.234   5.995  16.880  0.00  0.00    +0.000 A 
ATOM     26  C   UNL     1       6.861   7.092  17.446  0.00  0.00    +0.000 A 
ATOM     27  C   UNL     1       7.801   6.832  18.396  0.00  0.00    +0.000 A 
ATOM     28  C   UNL     1       7.618   5.667  19.120  0.00  0.00    +0.000 A 
ATOM     29  N   UNL     1       6.595   4.773  18.869  0.00  0.00    +0.000 NA
ATOM     30  C   UNL     1       5.948   4.881  17.698  0.00  0.00    +0.000 A 
ENDBRANCH  20  21
ENDBRANCH  19  20
ENDBRANCH   3  19
TORSDOF 7
ENDMDL
MODEL 6
REMARK VINA RESULT:      -8.1      2.173      2.975
REMARK  Name = 
REMARK  8 active torsions:
REMARK  status: ('A' for Active; 'I' for Inactive)
REMARK    1  A    between atoms: C_1  and  C_2
REMARK    2  A    between atoms: C_4  and  C_5
REMARK    3  A    between atoms: C_5  and  O_6
REMARK    4  A    between atoms: O_6  and  C_7
REMARK    5  A    between atoms: C_10  and  C_11
REMARK    6  A    between atoms: N_13  and  C_14
REMARK    7  A    between atoms: C_14  and  C_15
REMARK    8  A    between atoms: C_15  and  C_16
REMARK                            x       y       z     vdW  Elec       q    Type
REMARK                         _______ _______ _______ _____ _____    ______ ____
ROOT
ATOM      1  C   UNL     1       2.340   5.645  19.619  0.00  0.00    +0.000 C 
ATOM      2  O   UNL     1       2.646   5.228  20.746  0.00  0.00    +0.000 OA
ATOM      3  N   UNL     1       2.300   4.822  18.511  0.00  0.00    +0.000 N 
ATOM      4  H   UNL     1       2.251   5.261  17.594  0.00  0.00    +0.000 HD
ENDROOT
BRANCH   1   8
ATOM      5  C   UNL     1       1.368   9.833  19.120  0.00  0.00    +0.000 A 
ATOM      6  C   UNL     1       1.129   9.177  20.329  0.00  0.00    +0.000 A 
ATOM      7  C   UNL     1       1.450   7.821  20.481  0.00  0.00    +0.000 A 
ATOM      8  C   UNL     1       2.006   7.090  19.421  0.00  0.00    +0.000 A 
ATOM      9  C   UNL     1       2.189   7.739  18.188  0.00  0.00    +0.000 A 
ATOM     10  C   UNL     1       1.873   9.093  18.044  0.00  0.00    +0.000 A 
BRANCH   5  11
ATOM     11  O   UNL     1       1.072  11.170  19.091  0.00  0.00    +0.000 OA
BRANCH  11  12
ATOM     12  C   UNL     1       1.282  11.869  20.328  0.00  0.00    +0.000 C 
BRANCH  12  16
ATOM     13  C   UNL     1      -1.369  14.270  23.753  0.00  0.00    +0.000 C 
ATOM     14  C   UNL     1      -1.100  13.457  22.535  0.00  0.00    +0.000 A 
ATOM     15  N   UNL     1       0.101  13.134  22.104  0.00  0.00    +0.000 NA
ATOM     16  C   UNL     1       0.008  12.354  20.956  0.00  0.00    +0.000 A 
ATOM     17  C   UNL     1      -1.286  12.113  20.533  0.00  0.00    +0.000 A 
ATOM     18  S   UNL     1      -2.406  12.862  21.591  0.00  0.00    +0.000 S 
ENDBRANCH  12  16
ENDBRANCH  11  12
ENDBRANCH   5  11
ENDBRANCH   1   8
BRANCH   3  19
ATOM     19  C   UNL     1       2.589   3.377  18.569  0.00  0.00    +0.000 C 
BRANCH  19  20
ATOM     20  C   UNL     1       4.092   3.142  18.391  0.00  0.00    +0.000 C 
BRANCH  20  21
ATOM     21  C   UNL     1       5.006   4.002  17.547  0.00  0.00    +0.000 A 
ATOM     22  C   UNL     1       4.829   3.825  16.148  0.00  0.00    +0.000 A 
ATOM     23  C   UNL     1       5.461   4.636  15.215  0.00  0.00    +0.000 A 
ATOM     24  C   UNL     1       6.141   5.746  15.673  0.00  0.00    +0.000 A 
ATOM     25  C   UNL     1       6.332   5.919  17.038  0.00  0.00    +0.000 A 
ATOM     26  C   UNL     1       7.047   7.022  17.470  0.00  0.00    +0.000 A 
ATOM     27  C   UNL     1       7.968   6.805  18.449  0.00  0.00    +0.000 A 
ATOM     28  C   UNL     1       7.695   5.755  19.308  0.00  0.00    +0.000 A 
ATOM     29  N   UNL     1       6.601   4.923  19.162  0.00  0.00    +0.000 NA
ATOM     30  C   UNL     1       5.960   4.939  17.983  0.00  0.00    +0.000 A 
ENDBRANCH  20  21
ENDBRANCH  19  20
ENDBRANCH   3  19
TORSDOF 7
ENDMDL
MODEL 7
REMARK VINA RESULT:      -8.1      4.579      8.043
REMARK  Name = 
REMARK  8 active torsions:
REMARK  status: ('A' for Active; 'I' for Inactive)
REMARK    1  A    between atoms: C_1  and  C_2
REMARK    2  A    between atoms: C_4  and  C_5
REMARK    3  A    between atoms: C_5  and  O_6
REMARK    4  A    between atoms: O_6  and  C_7
REMARK    5  A    between atoms: C_10  and  C_11
REMARK    6  A    between atoms: N_13  and  C_14
REMARK    7  A    between atoms: C_14  and  C_15
REMARK    8  A    between atoms: C_15  and  C_16
REMARK                            x       y       z     vdW  Elec       q    Type
REMARK                         _______ _______ _______ _____ _____    ______ ____
ROOT
ATOM      1  C   UNL     1       5.560   4.104  18.316  0.00  0.00    +0.000 C 
ATOM      2  O   UNL     1       5.329   3.502  19.376  0.00  0.00    +0.000 OA
ATOM      3  N   UNL     1       5.057   3.683  17.101  0.00  0.00    +0.000 N 
ATOM      4  H   UNL     1       5.453   4.090  16.256  0.00  0.00    +0.000 HD
ENDROOT
BRANCH   1   8
ATOM      5  C   UNL     1       8.093   7.612  18.379  0.00  0.00    +0.000 A 
ATOM      6  C   UNL     1       8.279   6.573  19.294  0.00  0.00    +0.000 A 
ATOM      7  C   UNL     1       7.455   5.440  19.263  0.00  0.00    +0.000 A 
ATOM      8  C   UNL     1       6.419   5.330  18.323  0.00  0.00    +0.000 A 
ATOM      9  C   UNL     1       6.199   6.403  17.445  0.00  0.00    +0.000 A 
ATOM     10  C   UNL     1       7.027   7.529  17.476  0.00  0.00    +0.000 A 
BRANCH   5  11
ATOM     11  O   UNL     1       8.986   8.649  18.456  0.00  0.00    +0.000 OA
BRANCH  11  12
ATOM     12  C   UNL     1       8.435   9.950  18.191  0.00  0.00    +0.000 C 
BRANCH  12  16
ATOM     13  C   UNL     1      12.003  13.278  17.346  0.00  0.00    +0.000 C 
ATOM     14  C   UNL     1      10.963  12.533  18.106  0.00  0.00    +0.000 A 
ATOM     15  N   UNL     1      10.213  11.575  17.602  0.00  0.00    +0.000 NA
ATOM     16  C   UNL     1       9.356  11.070  18.576  0.00  0.00    +0.000 A 
ATOM     17  C   UNL     1       9.474  11.680  19.811  0.00  0.00    +0.000 A 
ATOM     18  S   UNL     1      10.680  12.896  19.761  0.00  0.00    +0.000 S 
ENDBRANCH  12  16
ENDBRANCH  11  12
ENDBRANCH   5  11
ENDBRANCH   1   8
BRANCH   3  19
ATOM     19  C   UNL     1       4.185   2.503  16.954  0.00  0.00    +0.000 C 
BRANCH  19  20
ATOM     20  C   UNL     1       2.717   2.938  16.982  0.00  0.00    +0.000 C 
BRANCH  20  21
ATOM     21  C   UNL     1       2.033   3.594  18.161  0.00  0.00    +0.000 A 
ATOM     22  C   UNL     1       1.160   2.726  18.872  0.00  0.00    +0.000 A 
ATOM     23  C   UNL     1       0.566   3.096  20.071  0.00  0.00    +0.000 A 
ATOM     24  C   UNL     1       0.976   4.272  20.663  0.00  0.00    +0.000 A 
ATOM     25  C   UNL     1       1.816   5.133  19.970  0.00  0.00    +0.000 A 
ATOM     26  C   UNL     1       2.185   6.324  20.573  0.00  0.00    +0.000 A 
ATOM     27  C   UNL     1       2.153   7.437  19.790  0.00  0.00    +0.000 A 
ATOM     28  C   UNL     1       2.369   7.228  18.439  0.00  0.00    +0.000 A 
ATOM     29  N   UNL     1       2.541   5.974  17.886  0.00  0.00    +0.000 NA
ATOM     30  C   UNL     1       2.181   4.913  18.625  0.00  0.00    +0.000 A 
ENDBRANCH  20  21
ENDBRANCH  19  20
ENDBRANCH   3  19
TORSDOF 7
ENDMDL
MODEL 8
REMARK VINA RESULT:      -8.1      2.078      2.431
REMARK  Name = 
REMARK  8 active torsions:
REMARK  status: ('A' for Active; 'I' for Inactive)
REMARK    1  A    between atoms: C_1  and  C_2
REMARK    2  A    between atoms: C_4  and  C_5
REMARK    3  A    between atoms: C_5  and  O_6
REMARK    4  A    between atoms: O_6  and  C_7
REMARK    5  A    between atoms: C_10  and  C_11
REMARK    6  A    between atoms: N_13  and  C_14
REMARK    7  A    between atoms: C_14  and  C_15
REMARK    8  A    between atoms: C_15  and  C_16
REMARK                            x       y       z     vdW  Elec       q    Type
REMARK                         _______ _______ _______ _____ _____    ______ ____
ROOT
ATOM      1  C   UNL     1       2.532   5.619  19.739  0.00  0.00    +0.000 C 
ATOM      2  O   UNL     1       2.659   5.114  20.864  0.00  0.00    +0.000 OA
ATOM      3  N   UNL     1       2.807   4.921  18.579  0.00  0.00    +0.000 N 
ATOM      4  H   UNL     1       2.887   5.451  17.713  0.00  0.00    +0.000 HD
ENDROOT
BRANCH   1   8
ATOM      5  C   UNL     1       1.199   9.724  19.418  0.00  0.00    +0.000 A 
ATOM      6  C   UNL     1       1.032   9.002  20.602  0.00  0.00    +0.000 A 
ATOM      7  C   UNL     1       1.469   7.674  20.696  0.00  0.00    +0.000 A 
ATOM      8  C   UNL     1       2.072   7.037  19.602  0.00  0.00    +0.000 A 
ATOM      9  C   UNL     1       2.185   7.746  18.396  0.00  0.00    +0.000 A 
ATOM     10  C   UNL     1       1.751   9.073  18.308  0.00  0.00    +0.000 A 
BRANCH   5  11
ATOM     11  O   UNL     1       0.789  11.031  19.445  0.00  0.00    +0.000 OA
BRANCH  11  12
ATOM     12  C   UNL     1       0.835  11.658  20.737  0.00  0.00    +0.000 C 
BRANCH  12  16
ATOM     13  C   UNL     1      -3.920  12.997  20.391  0.00  0.00    +0.000 C 
ATOM     14  C   UNL     1      -2.648  12.576  21.041  0.00  0.00    +0.000 A 
ATOM     15  N   UNL     1      -1.532  12.316  20.394  0.00  0.00    +0.000 NA
ATOM     16  C   UNL     1      -0.525  11.969  21.291  0.00  0.00    +0.000 A 
ATOM     17  C   UNL     1      -0.918  11.963  22.616  0.00  0.00    +0.000 A 
ATOM     18  S   UNL     1      -2.568  12.408  22.748  0.00  0.00    +0.000 S 
ENDBRANCH  12  16
ENDBRANCH  11  12
ENDBRANCH   5  11
ENDBRANCH   1   8
BRANCH   3  19
ATOM     19  C   UNL     1       3.250   3.515  18.570  0.00  0.00    +0.000 C 
BRANCH  19  20
ATOM     20  C   UNL     1       4.007   3.218  17.272  0.00  0.00    +0.000 C 
BRANCH  20  21
ATOM     21  C   UNL     1       5.246   3.951  16.809  0.00  0.00    +0.000 A 
ATOM     22  C   UNL     1       5.581   3.708  15.449  0.00  0.00    +0.000 A 
ATOM     23  C   UNL     1       6.588   4.409  14.800  0.00  0.00    +0.000 A 
ATOM     24  C   UNL     1       7.155   5.485  15.451  0.00  0.00    +0.000 A 
ATOM     25  C   UNL     1       6.845   5.721  16.784  0.00  0.00    +0.000 A 
ATOM     26  C   UNL     1       7.455   6.787  17.424  0.00  0.00    +0.000 A 
ATOM     27  C   UNL     1       7.923   6.553  18.681  0.00  0.00    +0.000 A 
ATOM     28  C   UNL     1       7.253   5.581  19.402  0.00  0.00    +0.000 A 
ATOM     29  N   UNL     1       6.215   4.832  18.879  0.00  0.00    +0.000 NA
ATOM     30  C   UNL     1       6.058   4.831  17.546  0.00  0.00    +0.000 A 
ENDBRANCH  20  21
ENDBRANCH  19  20
ENDBRANCH   3  19
TORSDOF 7
ENDMDL
MODEL 9
REMARK VINA RESULT:      -8.1      1.649      2.273
REMARK  Name = 
REMARK  8 active torsions:
REMARK  status: ('A' for Active; 'I' for Inactive)
REMARK    1  A    between atoms: C_1  and  C_2
REMARK    2  A    between atoms: C_4  and  C_5
REMARK    3  A    between atoms: C_5  and  O_6
REMARK    4  A    between atoms: O_6  and  C_7
REMARK    5  A    between atoms: C_10  and  C_11
REMARK    6  A    between atoms: N_13  and  C_14
REMARK    7  A    between atoms: C_14  and  C_15
REMARK    8  A    between atoms: C_15  and  C_16
REMARK                            x       y       z     vdW  Elec       q    Type
REMARK                         _______ _______ _______ _____ _____    ______ ____
ROOT
ATOM      1  C   UNL     1       2.348   5.325  20.149  0.00  0.00    +0.000 C 
ATOM      2  O   UNL     1       2.337   4.846  21.294  0.00  0.00    +0.000 OA
ATOM      3  N   UNL     1       2.708   4.585  19.041  0.00  0.00    +0.000 N 
ATOM      4  H   UNL     1       2.899   5.087  18.176  0.00  0.00    +0.000 HD
ENDROOT
BRANCH   1   8
ATOM      5  C   UNL     1       1.262   9.456  19.454  0.00  0.00    +0.000 A 
ATOM      6  C   UNL     1       1.893   8.700  18.464  0.00  0.00    +0.000 A 
ATOM      7  C   UNL     1       2.239   7.362  18.698  0.00  0.00    +0.000 A 
ATOM      8  C   UNL     1       1.970   6.757  19.934  0.00  0.00    +0.000 A 
ATOM      9  C   UNL     1       1.388   7.537  20.947  0.00  0.00    +0.000 A 
ATOM     10  C   UNL     1       1.040   8.870  20.706  0.00  0.00    +0.000 A 
BRANCH   5  11
ATOM     11  O   UNL     1       0.915  10.735  19.107  0.00  0.00    +0.000 OA
BRANCH  11  12
ATOM     12  C   UNL     1      -0.412  10.886  18.578  0.00  0.00    +0.000 C 
BRANCH  12  16
ATOM     13  C   UNL     1      -1.864  12.526  23.019  0.00  0.00    +0.000 C 
ATOM     14  C   UNL     1      -1.919  12.285  21.551  0.00  0.00    +0.000 A 
ATOM     15  N   UNL     1      -0.985  11.663  20.862  0.00  0.00    +0.000 NA
ATOM     16  C   UNL     1      -1.348  11.585  19.520  0.00  0.00    +0.000 A 
ATOM     17  C   UNL     1      -2.563  12.173  19.222  0.00  0.00    +0.000 A 
ATOM     18  S   UNL     1      -3.271  12.824  20.639  0.00  0.00    +0.000 S 
ENDBRANCH  12  16
ENDBRANCH  11  12
ENDBRANCH   5  11
ENDBRANCH   1   8
BRANCH   3  19
ATOM     19  C   UNL     1       3.085   3.161  19.109  0.00  0.00    +0.000 C 
BRANCH  19  20
ATOM     20  C   UNL     1       4.480   2.965  18.509  0.00  0.00    +0.000 C 
BRANCH  20  21
ATOM     21  C   UNL     1       5.177   3.956  17.602  0.00  0.00    +0.000 A 
ATOM     22  C   UNL     1       4.837   3.813  16.230  0.00  0.00    +0.000 A 
ATOM     23  C   UNL     1       5.250   4.725  15.268  0.00  0.00    +0.000 A 
ATOM     24  C   UNL     1       5.859   5.887  15.694  0.00  0.00    +0.000 A 
ATOM     25  C   UNL     1       6.208   6.029  17.031  0.00  0.00    +0.000 A 
ATOM     26  C   UNL     1       6.850   7.190  17.426  0.00  0.00    +0.000 A 
ATOM     27  C   UNL     1       7.909   7.043  18.269  0.00  0.00    +0.000 A 
ATOM     28  C   UNL     1       7.866   5.937  19.099  0.00  0.00    +0.000 A 
ATOM     29  N   UNL     1       6.860   4.991  19.049  0.00  0.00    +0.000 NA
ATOM     30  C   UNL     1       6.072   4.978  17.962  0.00  0.00    +0.000 A 
ENDBRANCH  20  21
ENDBRANCH  19  20
ENDBRANCH   3  19
TORSDOF 7
ENDMDL
