MODEL 1
REMARK VINA RESULT:      -9.9      0.000      0.000
REMARK  Name = 
REMARK  4 active torsions:
REMARK  status: ('A' for Active; 'I' for Inactive)
REMARK    1  A    between atoms: C_1  and  C_2
REMARK    2  A    between atoms: C_2  and  C_3
REMARK    3  A    between atoms: C_5  and  N_6
REMARK    4  A    between atoms: N_9  and  C_10
REMARK                            x       y       z     vdW  Elec       q    Type
REMARK                         _______ _______ _______ _____ _____    ______ ____
ROOT
ATOM      1  N   UNL     1       1.031   9.471  19.168  0.00  0.00    +0.000 N 
ATOM      2  C   UNL     1       1.777   8.699  18.308  0.00  0.00    +0.000 C 
ATOM      3  O   UNL     1       1.990   9.017  17.147  0.00  0.00    +0.000 OA
ATOM      4  N   UNL     1       2.237   7.535  18.904  0.00  0.00    +0.000 N 
ATOM      5  H   UNL     1       1.142   9.304  20.152  0.00  0.00    +0.000 HD
ATOM      6  H   UNL     1       1.519   7.093  19.461  0.00  0.00    +0.000 HD
ENDROOT
BRANCH   1  11
ATOM      7  C   UNL     1       0.035  13.024  21.838  0.00  0.00    +0.000 C 
ATOM      8  C   UNL     1      -0.282  11.875  20.870  0.00  0.00    +0.000 C 
ATOM      9  C   UNL     1      -0.332  10.575  21.689  0.00  0.00    +0.000 C 
ATOM     10  C   UNL     1       0.764  11.897  19.751  0.00  0.00    +0.000 C 
ATOM     11  C   UNL     1       0.527  10.776  18.735  0.00  0.00    +0.000 C 
ATOM     12  C   UNL     1      -0.947  10.733  18.396  0.00  0.00    +0.000 A 
ATOM     13  C   UNL     1      -1.395  10.041  17.260  0.00  0.00    +0.000 A 
ATOM     14  C   UNL     1      -2.746  10.063  16.917  0.00  0.00    +0.000 A 
ATOM     15  F   UNL     1      -3.157   9.405  15.825  0.00  0.00    +0.000 F 
ATOM     16  C   UNL     1      -3.671  10.765  17.679  0.00  0.00    +0.000 A 
ATOM     17  C   UNL     1      -3.241  11.449  18.813  0.00  0.00    +0.000 A 
ATOM     18  C   UNL     1      -1.892  11.423  19.177  0.00  0.00    +0.000 A 
ATOM     19  O   UNL     1      -1.585  12.125  20.317  0.00  0.00    +0.000 OA
ENDBRANCH   1  11
BRANCH   4  20
ATOM     20  C   UNL     1       3.053   6.664  18.143  0.00  0.00    +0.000 A 
ATOM     21  C   UNL     1       2.680   5.330  17.938  0.00  0.00    +0.000 A 
ATOM     22  C   UNL     1       3.541   4.444  17.285  0.00  0.00    +0.000 A 
ATOM     23  C   UNL     1       4.805   4.875  16.866  0.00  0.00    +0.000 A 
ATOM     24  C   UNL     1       5.175   6.215  17.084  0.00  0.00    +0.000 A 
ATOM     25  C   UNL     1       4.280   7.122  17.667  0.00  0.00    +0.000 A 
ATOM     26  C   UNL     1       6.573   6.658  16.825  0.00  0.00    +0.000 C 
ATOM     27  O   UNL     1       6.956   7.789  17.093  0.00  0.00    +0.000 OA
ATOM     28  N   UNL     1       7.435   5.719  16.307  0.00  0.00    +0.000 N 
ATOM     29  C   UNL     1       6.937   4.579  15.576  0.00  0.00    +0.000 C 
ATOM     30  C   UNL     1       5.795   3.884  16.307  0.00  0.00    +0.000 C 
ATOM     31  H   UNL     1       8.363   6.075  16.112  0.00  0.00    +0.000 HD
ENDBRANCH   4  20
TORSDOF 2
ENDMDL
MODEL 2
REMARK VINA RESULT:      -9.5      2.825      8.434
REMARK  Name = 
REMARK  4 active torsions:
REMARK  status: ('A' for Active; 'I' for Inactive)
REMARK    1  A    between atoms: C_1  and  C_2
REMARK    2  A    between atoms: C_2  and  C_3
REMARK    3  A    between atoms: C_5  and  N_6
REMARK    4  A    between atoms: N_9  and  C_10
REMARK                            x       y       z     vdW  Elec       q    Type
REMARK                         _______ _______ _______ _____ _____    ______ ____
ROOT
ATOM      1  N   UNL     1       3.288   6.813  17.933  0.00  0.00    +0.000 N 
ATOM      2  C   UNL     1       2.514   7.786  18.520  0.00  0.00    +0.000 C 
ATOM      3  O   UNL     1       2.233   7.783  19.710  0.00  0.00    +0.000 OA
ATOM      4  N   UNL     1       2.089   8.744  17.612  0.00  0.00    +0.000 N 
ATOM      5  H   UNL     1       3.710   7.030  17.048  0.00  0.00    +0.000 HD
ATOM      6  H   UNL     1       1.777   8.326  16.747  0.00  0.00    +0.000 HD
ENDROOT
BRANCH   1  11
ATOM      7  C   UNL     1       7.230   4.671  17.143  0.00  0.00    +0.000 C 
ATOM      8  C   UNL     1       5.704   4.779  17.280  0.00  0.00    +0.000 C 
ATOM      9  C   UNL     1       5.158   5.370  15.970  0.00  0.00    +0.000 C 
ATOM     10  C   UNL     1       5.399   5.597  18.537  0.00  0.00    +0.000 C 
ATOM     11  C   UNL     1       3.891   5.759  18.753  0.00  0.00    +0.000 C 
ATOM     12  C   UNL     1       3.223   4.419  18.538  0.00  0.00    +0.000 A 
ATOM     13  C   UNL     1       1.914   4.197  18.991  0.00  0.00    +0.000 A 
ATOM     14  C   UNL     1       1.330   2.939  18.850  0.00  0.00    +0.000 A 
ATOM     15  F   UNL     1       0.083   2.739  19.293  0.00  0.00    +0.000 F 
ATOM     16  C   UNL     1       2.024   1.884  18.269  0.00  0.00    +0.000 A 
ATOM     17  C   UNL     1       3.322   2.093  17.809  0.00  0.00    +0.000 A 
ATOM     18  C   UNL     1       3.913   3.353  17.930  0.00  0.00    +0.000 A 
ATOM     19  O   UNL     1       5.190   3.445  17.435  0.00  0.00    +0.000 OA
ENDBRANCH   1  11
BRANCH   4  20
ATOM     20  C   UNL     1       1.314   9.829  18.089  0.00  0.00    +0.000 A 
ATOM     21  C   UNL     1      -0.082   9.741  18.144  0.00  0.00    +0.000 A 
ATOM     22  C   UNL     1      -0.849  10.852  18.507  0.00  0.00    +0.000 A 
ATOM     23  C   UNL     1      -0.227  12.076  18.776  0.00  0.00    +0.000 A 
ATOM     24  C   UNL     1       1.176  12.157  18.710  0.00  0.00    +0.000 A 
ATOM     25  C   UNL     1       1.949  11.023  18.425  0.00  0.00    +0.000 A 
ATOM     26  C   UNL     1       1.856  13.479  18.804  0.00  0.00    +0.000 C 
ATOM     27  O   UNL     1       3.065  13.600  18.654  0.00  0.00    +0.000 OA
ATOM     28  N   UNL     1       1.053  14.574  19.026  0.00  0.00    +0.000 N 
ATOM     29  C   UNL     1      -0.243  14.431  19.645  0.00  0.00    +0.000 C 
ATOM     30  C   UNL     1      -1.060  13.312  19.010  0.00  0.00    +0.000 C 
ATOM     31  H   UNL     1       1.562  15.445  19.120  0.00  0.00    +0.000 HD
ENDBRANCH   4  20
TORSDOF 2
ENDMDL
MODEL 3
REMARK VINA RESULT:      -9.5      2.637      8.706
REMARK  Name = 
REMARK  4 active torsions:
REMARK  status: ('A' for Active; 'I' for Inactive)
REMARK    1  A    between atoms: C_1  and  C_2
REMARK    2  A    between atoms: C_2  and  C_3
REMARK    3  A    between atoms: C_5  and  N_6
REMARK    4  A    between atoms: N_9  and  C_10
REMARK                            x       y       z     vdW  Elec       q    Type
REMARK                         _______ _______ _______ _____ _____    ______ ____
ROOT
ATOM      1  N   UNL     1       3.229   6.937  18.091  0.00  0.00    +0.000 N 
ATOM      2  C   UNL     1       2.296   7.764  18.671  0.00  0.00    +0.000 C 
ATOM      3  O   UNL     1       1.894   7.611  19.815  0.00  0.00    +0.000 OA
ATOM      4  N   UNL     1       1.867   8.763  17.811  0.00  0.00    +0.000 N 
ATOM      5  H   UNL     1       3.715   7.284  17.283  0.00  0.00    +0.000 HD
ATOM      6  H   UNL     1       1.694   8.406  16.881  0.00  0.00    +0.000 HD
ENDROOT
BRANCH   1  11
ATOM      7  C   UNL     1       7.239   4.942  17.260  0.00  0.00    +0.000 C 
ATOM      8  C   UNL     1       5.710   5.000  17.384  0.00  0.00    +0.000 C 
ATOM      9  C   UNL     1       5.159   5.627  16.093  0.00  0.00    +0.000 C 
ATOM     10  C   UNL     1       5.368   5.759  18.670  0.00  0.00    +0.000 C 
ATOM     11  C   UNL     1       3.854   5.869  18.875  0.00  0.00    +0.000 C 
ATOM     12  C   UNL     1       3.228   4.520  18.601  0.00  0.00    +0.000 A 
ATOM     13  C   UNL     1       1.921   4.242  19.030  0.00  0.00    +0.000 A 
ATOM     14  C   UNL     1       1.375   2.975  18.833  0.00  0.00    +0.000 A 
ATOM     15  F   UNL     1       0.130   2.722  19.255  0.00  0.00    +0.000 F 
ATOM     16  C   UNL     1       2.106   1.965  18.219  0.00  0.00    +0.000 A 
ATOM     17  C   UNL     1       3.401   2.229  17.782  0.00  0.00    +0.000 A 
ATOM     18  C   UNL     1       3.954   3.499  17.959  0.00  0.00    +0.000 A 
ATOM     19  O   UNL     1       5.233   3.647  17.482  0.00  0.00    +0.000 OA
ENDBRANCH   1  11
BRANCH   4  20
ATOM     20  C   UNL     1       0.932   9.712  18.292  0.00  0.00    +0.000 A 
ATOM     21  C   UNL     1       1.253  10.549  19.368  0.00  0.00    +0.000 A 
ATOM     22  C   UNL     1       0.291  11.404  19.913  0.00  0.00    +0.000 A 
ATOM     23  C   UNL     1      -1.017  11.398  19.414  0.00  0.00    +0.000 A 
ATOM     24  C   UNL     1      -1.332  10.547  18.338  0.00  0.00    +0.000 A 
ATOM     25  C   UNL     1      -0.346   9.750  17.740  0.00  0.00    +0.000 A 
ATOM     26  C   UNL     1      -2.747  10.377  17.908  0.00  0.00    +0.000 C 
ATOM     27  O   UNL     1      -3.070   9.574  17.041  0.00  0.00    +0.000 OA
ATOM     28  N   UNL     1      -3.690  11.136  18.561  0.00  0.00    +0.000 N 
ATOM     29  C   UNL     1      -3.324  12.366  19.221  0.00  0.00    +0.000 C 
ATOM     30  C   UNL     1      -2.092  12.199  20.103  0.00  0.00    +0.000 C 
ATOM     31  H   UNL     1      -4.632  11.014  18.210  0.00  0.00    +0.000 HD
ENDBRANCH   4  20
TORSDOF 2
ENDMDL
MODEL 4
REMARK VINA RESULT:      -9.3      2.785      8.710
REMARK  Name = 
REMARK  4 active torsions:
REMARK  status: ('A' for Active; 'I' for Inactive)
REMARK    1  A    between atoms: C_1  and  C_2
REMARK    2  A    between atoms: C_2  and  C_3
REMARK    3  A    between atoms: C_5  and  N_6
REMARK    4  A    between atoms: N_9  and  C_10
REMARK                            x       y       z     vdW  Elec       q    Type
REMARK                         _______ _______ _______ _____ _____    ______ ____
ROOT
ATOM      1  N   UNL     1       3.226   6.827  18.782  0.00  0.00    +0.000 N 
ATOM      2  C   UNL     1       2.205   7.512  19.399  0.00  0.00    +0.000 C 
ATOM      3  O   UNL     1       1.694   7.141  20.446  0.00  0.00    +0.000 OA
ATOM      4  N   UNL     1       1.827   8.644  18.694  0.00  0.00    +0.000 N 
ATOM      5  H   UNL     1       3.778   7.328  18.110  0.00  0.00    +0.000 HD
ATOM      6  H   UNL     1       1.765   8.464  17.702  0.00  0.00    +0.000 HD
ENDROOT
BRANCH   1  11
ATOM      7  C   UNL     1       7.343   5.053  17.975  0.00  0.00    +0.000 C 
ATOM      8  C   UNL     1       5.807   5.071  17.972  0.00  0.00    +0.000 C 
ATOM      9  C   UNL     1       5.353   5.909  16.766  0.00  0.00    +0.000 C 
ATOM     10  C   UNL     1       5.338   5.589  19.335  0.00  0.00    +0.000 C 
ATOM     11  C   UNL     1       3.810   5.645  19.421  0.00  0.00    +0.000 C 
ATOM     12  C   UNL     1       3.244   4.358  18.862  0.00  0.00    +0.000 A 
ATOM     13  C   UNL     1       1.914   3.995  19.118  0.00  0.00    +0.000 A 
ATOM     14  C   UNL     1       1.420   2.776  18.657  0.00  0.00    +0.000 A 
ATOM     15  F   UNL     1       0.151   2.440  18.916  0.00  0.00    +0.000 F 
ATOM     16  C   UNL     1       2.227   1.897  17.944  0.00  0.00    +0.000 A 
ATOM     17  C   UNL     1       3.547   2.248  17.676  0.00  0.00    +0.000 A 
ATOM     18  C   UNL     1       4.050   3.474  18.119  0.00  0.00    +0.000 A 
ATOM     19  O   UNL     1       5.360   3.717  17.790  0.00  0.00    +0.000 OA
ENDBRANCH   1  11
BRANCH   4  20
ATOM     20  C   UNL     1       0.810   9.468  19.237  0.00  0.00    +0.000 A 
ATOM     21  C   UNL     1       0.097  10.355  18.422  0.00  0.00    +0.000 A 
ATOM     22  C   UNL     1      -0.825  11.246  18.979  0.00  0.00    +0.000 A 
ATOM     23  C   UNL     1      -1.011  11.287  20.365  0.00  0.00    +0.000 A 
ATOM     24  C   UNL     1      -0.284  10.397  21.178  0.00  0.00    +0.000 A 
ATOM     25  C   UNL     1       0.580   9.450  20.611  0.00  0.00    +0.000 A 
ATOM     26  C   UNL     1      -0.315  10.540  22.659  0.00  0.00    +0.000 C 
ATOM     27  O   UNL     1       0.379   9.848  23.393  0.00  0.00    +0.000 OA
ATOM     28  N   UNL     1      -1.132  11.522  23.171  0.00  0.00    +0.000 N 
ATOM     29  C   UNL     1      -2.259  12.016  22.417  0.00  0.00    +0.000 C 
ATOM     30  C   UNL     1      -1.883  12.354  20.979  0.00  0.00    +0.000 C 
ATOM     31  H   UNL     1      -1.149  11.556  24.183  0.00  0.00    +0.000 HD
ENDBRANCH   4  20
TORSDOF 2
ENDMDL
MODEL 5
REMARK VINA RESULT:      -9.3      2.558      8.533
REMARK  Name = 
REMARK  4 active torsions:
REMARK  status: ('A' for Active; 'I' for Inactive)
REMARK    1  A    between atoms: C_1  and  C_2
REMARK    2  A    between atoms: C_2  and  C_3
REMARK    3  A    between atoms: C_5  and  N_6
REMARK    4  A    between atoms: N_9  and  C_10
REMARK                            x       y       z     vdW  Elec       q    Type
REMARK                         _______ _______ _______ _____ _____    ______ ____
ROOT
ATOM      1  N   UNL     1       3.229   7.053  18.061  0.00  0.00    +0.000 N 
ATOM      2  C   UNL     1       2.283   7.821  18.698  0.00  0.00    +0.000 C 
ATOM      3  O   UNL     1       1.909   7.600  19.841  0.00  0.00    +0.000 OA
ATOM      4  N   UNL     1       1.806   8.847  17.897  0.00  0.00    +0.000 N 
ATOM      5  H   UNL     1       3.688   7.454  17.263  0.00  0.00    +0.000 HD
ATOM      6  H   UNL     1       1.626   8.531  16.954  0.00  0.00    +0.000 HD
ENDROOT
BRANCH   1  11
ATOM      7  C   UNL     1       7.255   5.190  17.025  0.00  0.00    +0.000 C 
ATOM      8  C   UNL     1       5.729   5.207  17.198  0.00  0.00    +0.000 C 
ATOM      9  C   UNL     1       5.125   5.874  15.951  0.00  0.00    +0.000 C 
ATOM     10  C   UNL     1       5.410   5.903  18.524  0.00  0.00    +0.000 C 
ATOM     11  C   UNL     1       3.902   5.968  18.780  0.00  0.00    +0.000 C 
ATOM     12  C   UNL     1       3.297   4.617  18.467  0.00  0.00    +0.000 A 
ATOM     13  C   UNL     1       2.011   4.291  18.923  0.00  0.00    +0.000 A 
ATOM     14  C   UNL     1       1.488   3.020  18.689  0.00  0.00    +0.000 A 
ATOM     15  F   UNL     1       0.263   2.721  19.137  0.00  0.00    +0.000 F 
ATOM     16  C   UNL     1       2.221   2.055  18.010  0.00  0.00    +0.000 A 
ATOM     17  C   UNL     1       3.496   2.367  17.546  0.00  0.00    +0.000 A 
ATOM     18  C   UNL     1       4.026   3.642  17.760  0.00  0.00    +0.000 A 
ATOM     19  O   UNL     1       5.286   3.840  17.252  0.00  0.00    +0.000 OA
ENDBRANCH   1  11
BRANCH   4  20
ATOM     20  C   UNL     1       0.853   9.742  18.442  0.00  0.00    +0.000 A 
ATOM     21  C   UNL     1      -0.453   9.789  17.940  0.00  0.00    +0.000 A 
ATOM     22  C   UNL     1      -1.357  10.750  18.402  0.00  0.00    +0.000 A 
ATOM     23  C   UNL     1      -0.948  11.703  19.342  0.00  0.00    +0.000 A 
ATOM     24  C   UNL     1       0.369  11.653  19.835  0.00  0.00    +0.000 A 
ATOM     25  C   UNL     1       1.250  10.639  19.431  0.00  0.00    +0.000 A 
ATOM     26  C   UNL     1       0.893  12.756  20.687  0.00  0.00    +0.000 C 
ATOM     27  O   UNL     1       2.060  12.795  21.054  0.00  0.00    +0.000 OA
ATOM     28  N   UNL     1       0.011  13.760  21.011  0.00  0.00    +0.000 N 
ATOM     29  C   UNL     1      -1.414  13.530  20.997  0.00  0.00    +0.000 C 
ATOM     30  C   UNL     1      -1.869  12.835  19.720  0.00  0.00    +0.000 C 
ATOM     31  H   UNL     1       0.400  14.468  21.622  0.00  0.00    +0.000 HD
ENDBRANCH   4  20
TORSDOF 2
ENDMDL
MODEL 6
REMARK VINA RESULT:      -9.2      2.175      3.022
REMARK  Name = 
REMARK  4 active torsions:
REMARK  status: ('A' for Active; 'I' for Inactive)
REMARK    1  A    between atoms: C_1  and  C_2
REMARK    2  A    between atoms: C_2  and  C_3
REMARK    3  A    between atoms: C_5  and  N_6
REMARK    4  A    between atoms: N_9  and  C_10
REMARK                            x       y       z     vdW  Elec       q    Type
REMARK                         _______ _______ _______ _____ _____    ______ ____
ROOT
ATOM      1  N   UNL     1       0.946   9.623  20.146  0.00  0.00    +0.000 N 
ATOM      2  C   UNL     1       1.534   8.573  19.481  0.00  0.00    +0.000 C 
ATOM      3  O   UNL     1       1.767   8.595  18.280  0.00  0.00    +0.000 OA
ATOM      4  N   UNL     1       1.812   7.504  20.318  0.00  0.00    +0.000 N 
ATOM      5  H   UNL     1       1.052   9.654  21.144  0.00  0.00    +0.000 HD
ATOM      6  H   UNL     1       1.046   7.315  20.950  0.00  0.00    +0.000 HD
ENDROOT
BRANCH   1  11
ATOM      7  C   UNL     1       0.116  13.688  22.025  0.00  0.00    +0.000 C 
ATOM      8  C   UNL     1      -0.236  12.419  21.236  0.00  0.00    +0.000 C 
ATOM      9  C   UNL     1      -0.528  11.303  22.253  0.00  0.00    +0.000 C 
ATOM     10  C   UNL     1       0.915  12.129  20.268  0.00  0.00    +0.000 C 
ATOM     11  C   UNL     1       0.650  10.870  19.437  0.00  0.00    +0.000 C 
ATOM     12  C   UNL     1      -0.775  10.913  18.931  0.00  0.00    +0.000 A 
ATOM     13  C   UNL     1      -1.183  10.073  17.884  0.00  0.00    +0.000 A 
ATOM     14  C   UNL     1      -2.479  10.167  17.378  0.00  0.00    +0.000 A 
ATOM     15  F   UNL     1      -2.852   9.365  16.374  0.00  0.00    +0.000 F 
ATOM     16  C   UNL     1      -3.386  11.087  17.890  0.00  0.00    +0.000 A 
ATOM     17  C   UNL     1      -2.996  11.921  18.934  0.00  0.00    +0.000 A 
ATOM     18  C   UNL     1      -1.705  11.827  19.460  0.00  0.00    +0.000 A 
ATOM     19  O   UNL     1      -1.436  12.692  20.492  0.00  0.00    +0.000 OA
ENDBRANCH   1  11
BRANCH   4  20
ATOM     20  C   UNL     1       2.456   6.368  19.771  0.00  0.00    +0.000 A 
ATOM     21  C   UNL     1       3.674   6.494  19.092  0.00  0.00    +0.000 A 
ATOM     22  C   UNL     1       4.249   5.390  18.455  0.00  0.00    +0.000 A 
ATOM     23  C   UNL     1       3.588   4.157  18.455  0.00  0.00    +0.000 A 
ATOM     24  C   UNL     1       2.360   4.042  19.133  0.00  0.00    +0.000 A 
ATOM     25  C   UNL     1       1.825   5.128  19.839  0.00  0.00    +0.000 A 
ATOM     26  C   UNL     1       1.542   2.805  18.996  0.00  0.00    +0.000 C 
ATOM     27  O   UNL     1       0.427   2.706  19.491  0.00  0.00    +0.000 OA
ATOM     28  N   UNL     1       2.080   1.785  18.246  0.00  0.00    +0.000 N 
ATOM     29  C   UNL     1       3.507   1.682  18.051  0.00  0.00    +0.000 C 
ATOM     30  C   UNL     1       4.126   3.011  17.636  0.00  0.00    +0.000 C 
ATOM     31  H   UNL     1       1.506   0.952  18.213  0.00  0.00    +0.000 HD
ENDBRANCH   4  20
TORSDOF 2
ENDMDL
MODEL 7
REMARK VINA RESULT:      -9.1      3.030      8.903
REMARK  Name = 
REMARK  4 active torsions:
REMARK  status: ('A' for Active; 'I' for Inactive)
REMARK    1  A    between atoms: C_1  and  C_2
REMARK    2  A    between atoms: C_2  and  C_3
REMARK    3  A    between atoms: C_5  and  N_6
REMARK    4  A    between atoms: N_9  and  C_10
REMARK                            x       y       z     vdW  Elec       q    Type
REMARK                         _______ _______ _______ _____ _____    ______ ____
ROOT
ATOM      1  N   UNL     1       2.798   6.447  19.410  0.00  0.00    +0.000 N 
ATOM      2  C   UNL     1       2.045   7.577  19.631  0.00  0.00    +0.000 C 
ATOM      3  O   UNL     1       1.626   8.282  18.724  0.00  0.00    +0.000 OA
ATOM      4  N   UNL     1       1.837   7.820  20.979  0.00  0.00    +0.000 N 
ATOM      5  H   UNL     1       2.855   5.778  20.156  0.00  0.00    +0.000 HD
ATOM      6  H   UNL     1       2.680   7.681  21.518  0.00  0.00    +0.000 HD
ENDROOT
BRANCH   1  11
ATOM      7  C   UNL     1       2.433   2.182  17.854  0.00  0.00    +0.000 C 
ATOM      8  C   UNL     1       3.181   3.467  18.238  0.00  0.00    +0.000 C 
ATOM      9  C   UNL     1       3.381   3.453  19.763  0.00  0.00    +0.000 C 
ATOM     10  C   UNL     1       2.382   4.658  17.701  0.00  0.00    +0.000 C 
ATOM     11  C   UNL     1       3.056   5.990  18.043  0.00  0.00    +0.000 C 
ATOM     12  C   UNL     1       4.536   5.874  17.751  0.00  0.00    +0.000 A 
ATOM     13  C   UNL     1       5.333   7.025  17.651  0.00  0.00    +0.000 A 
ATOM     14  C   UNL     1       6.681   6.914  17.315  0.00  0.00    +0.000 A 
ATOM     15  F   UNL     1       7.427   8.021  17.215  0.00  0.00    +0.000 F 
ATOM     16  C   UNL     1       7.261   5.676  17.068  0.00  0.00    +0.000 A 
ATOM     17  C   UNL     1       6.483   4.526  17.170  0.00  0.00    +0.000 A 
ATOM     18  C   UNL     1       5.135   4.622  17.522  0.00  0.00    +0.000 A 
ATOM     19  O   UNL     1       4.469   3.423  17.601  0.00  0.00    +0.000 OA
ENDBRANCH   1  11
BRANCH   4  20
ATOM     20  C   UNL     1       1.042   8.932  21.350  0.00  0.00    +0.000 A 
ATOM     21  C   UNL     1       0.593   9.084  22.667  0.00  0.00    +0.000 A 
ATOM     22  C   UNL     1      -0.283  10.119  23.004  0.00  0.00    +0.000 A 
ATOM     23  C   UNL     1      -0.753  10.990  22.014  0.00  0.00    +0.000 A 
ATOM     24  C   UNL     1      -0.303  10.825  20.691  0.00  0.00    +0.000 A 
ATOM     25  C   UNL     1       0.638   9.836  20.370  0.00  0.00    +0.000 A 
ATOM     26  C   UNL     1      -0.923  11.607  19.585  0.00  0.00    +0.000 C 
ATOM     27  O   UNL     1      -0.626  11.421  18.412  0.00  0.00    +0.000 OA
ATOM     28  N   UNL     1      -1.884  12.525  19.939  0.00  0.00    +0.000 N 
ATOM     29  C   UNL     1      -1.925  13.080  21.270  0.00  0.00    +0.000 C 
ATOM     30  C   UNL     1      -1.820  12.004  22.344  0.00  0.00    +0.000 C 
ATOM     31  H   UNL     1      -2.250  13.058  19.160  0.00  0.00    +0.000 HD
ENDBRANCH   4  20
TORSDOF 2
ENDMDL
MODEL 8
REMARK VINA RESULT:      -8.9      6.155      8.981
REMARK  Name = 
REMARK  4 active torsions:
REMARK  status: ('A' for Active; 'I' for Inactive)
REMARK    1  A    between atoms: C_1  and  C_2
REMARK    2  A    between atoms: C_2  and  C_3
REMARK    3  A    between atoms: C_5  and  N_6
REMARK    4  A    between atoms: N_9  and  C_10
REMARK                            x       y       z     vdW  Elec       q    Type
REMARK                         _______ _______ _______ _____ _____    ______ ____
ROOT
ATOM      1  N   UNL     1       6.907   7.050  17.221  0.00  0.00    +0.000 N 
ATOM      2  C   UNL     1       7.817   7.738  17.989  0.00  0.00    +0.000 C 
ATOM      3  O   UNL     1       8.480   7.206  18.868  0.00  0.00    +0.000 OA
ATOM      4  N   UNL     1       7.879   9.083  17.660  0.00  0.00    +0.000 N 
ATOM      5  H   UNL     1       6.626   7.469  16.353  0.00  0.00    +0.000 HD
ATOM      6  H   UNL     1       6.959   9.477  17.523  0.00  0.00    +0.000 HD
ENDROOT
BRANCH   1  11
ATOM      7  C   UNL     1       6.421   3.995  13.877  0.00  0.00    +0.000 C 
ATOM      8  C   UNL     1       5.972   4.806  15.102  0.00  0.00    +0.000 C 
ATOM      9  C   UNL     1       5.537   6.196  14.608  0.00  0.00    +0.000 C 
ATOM     10  C   UNL     1       7.121   4.808  16.115  0.00  0.00    +0.000 C 
ATOM     11  C   UNL     1       6.761   5.601  17.375  0.00  0.00    +0.000 C 
ATOM     12  C   UNL     1       5.365   5.213  17.810  0.00  0.00    +0.000 A 
ATOM     13  C   UNL     1       4.911   5.523  19.101  0.00  0.00    +0.000 A 
ATOM     14  C   UNL     1       3.649   5.103  19.518  0.00  0.00    +0.000 A 
ATOM     15  F   UNL     1       3.233   5.399  20.755  0.00  0.00    +0.000 F 
ATOM     16  C   UNL     1       2.820   4.371  18.676  0.00  0.00    +0.000 A 
ATOM     17  C   UNL     1       3.256   4.062  17.390  0.00  0.00    +0.000 A 
ATOM     18  C   UNL     1       4.512   4.491  16.955  0.00  0.00    +0.000 A 
ATOM     19  O   UNL     1       4.831   4.137  15.667  0.00  0.00    +0.000 OA
ENDBRANCH   1  11
BRANCH   4  20
ATOM     20  C   UNL     1       8.806   9.904  18.347  0.00  0.00    +0.000 A 
ATOM     21  C   UNL     1       8.863   9.903  19.746  0.00  0.00    +0.000 A 
ATOM     22  C   UNL     1       9.698  10.796  20.424  0.00  0.00    +0.000 A 
ATOM     23  C   UNL     1      10.453  11.731  19.707  0.00  0.00    +0.000 A 
ATOM     24  C   UNL     1      10.384  11.730  18.301  0.00  0.00    +0.000 A 
ATOM     25  C   UNL     1       9.608  10.781  17.621  0.00  0.00    +0.000 A 
ATOM     26  C   UNL     1      11.023  12.825  17.519  0.00  0.00    +0.000 C 
ATOM     27  O   UNL     1      10.901  12.911  16.304  0.00  0.00    +0.000 OA
ATOM     28  N   UNL     1      11.725  13.768  18.233  0.00  0.00    +0.000 N 
ATOM     29  C   UNL     1      12.261  13.463  19.538  0.00  0.00    +0.000 C 
ATOM     30  C   UNL     1      11.229  12.797  20.439  0.00  0.00    +0.000 C 
ATOM     31  H   UNL     1      12.173  14.470  17.656  0.00  0.00    +0.000 HD
ENDBRANCH   4  20
TORSDOF 2
ENDMDL
MODEL 9
REMARK VINA RESULT:      -8.9      1.048      1.077
REMARK  Name = 
REMARK  4 active torsions:
REMARK  status: ('A' for Active; 'I' for Inactive)
REMARK    1  A    between atoms: C_1  and  C_2
REMARK    2  A    between atoms: C_2  and  C_3
REMARK    3  A    between atoms: C_5  and  N_6
REMARK    4  A    between atoms: N_9  and  C_10
REMARK                            x       y       z     vdW  Elec       q    Type
REMARK                         _______ _______ _______ _____ _____    ______ ____
ROOT
ATOM      1  N   UNL     1       0.883   9.129  19.087  0.00  0.00    +0.000 N 
ATOM      2  C   UNL     1       1.935   8.435  18.537  0.00  0.00    +0.000 C 
ATOM      3  O   UNL     1       2.558   8.835  17.564  0.00  0.00    +0.000 OA
ATOM      4  N   UNL     1       2.188   7.244  19.201  0.00  0.00    +0.000 N 
ATOM      5  H   UNL     1       0.619   8.899  20.028  0.00  0.00    +0.000 HD
ATOM      6  H   UNL     1       1.334   6.748  19.416  0.00  0.00    +0.000 HD
ENDROOT
BRANCH   1  11
ATOM      7  C   UNL     1       0.229  12.929  21.513  0.00  0.00    +0.000 C 
ATOM      8  C   UNL     1      -0.194  11.758  20.613  0.00  0.00    +0.000 C 
ATOM      9  C   UNL     1      -0.386  10.525  21.510  0.00  0.00    +0.000 C 
ATOM     10  C   UNL     1       0.860  11.602  19.513  0.00  0.00    +0.000 C 
ATOM     11  C   UNL     1       0.520  10.449  18.565  0.00  0.00    +0.000 C 
ATOM     12  C   UNL     1      -0.947  10.534  18.204  0.00  0.00    +0.000 A 
ATOM     13  C   UNL     1      -1.451   9.821  17.106  0.00  0.00    +0.000 A 
ATOM     14  C   UNL     1      -2.789   9.958  16.739  0.00  0.00    +0.000 A 
ATOM     15  F   UNL     1      -3.255   9.278  15.684  0.00  0.00    +0.000 F 
ATOM     16  C   UNL     1      -3.645  10.798  17.441  0.00  0.00    +0.000 A 
ATOM     17  C   UNL     1      -3.159  11.506  18.537  0.00  0.00    +0.000 A 
ATOM     18  C   UNL     1      -1.824  11.366  18.925  0.00  0.00    +0.000 A 
ATOM     19  O   UNL     1      -1.459  12.104  20.023  0.00  0.00    +0.000 OA
ENDBRANCH   1  11
BRANCH   4  20
ATOM     20  C   UNL     1       3.273   6.445  18.763  0.00  0.00    +0.000 A 
ATOM     21  C   UNL     1       3.953   5.611  19.659  0.00  0.00    +0.000 A 
ATOM     22  C   UNL     1       5.093   4.912  19.251  0.00  0.00    +0.000 A 
ATOM     23  C   UNL     1       5.588   5.075  17.953  0.00  0.00    +0.000 A 
ATOM     24  C   UNL     1       4.903   5.922  17.062  0.00  0.00    +0.000 A 
ATOM     25  C   UNL     1       3.715   6.559  17.447  0.00  0.00    +0.000 A 
ATOM     26  C   UNL     1       5.502   6.264  15.743  0.00  0.00    +0.000 C 
ATOM     27  O   UNL     1       4.983   7.072  14.984  0.00  0.00    +0.000 OA
ATOM     28  N   UNL     1       6.698   5.661  15.430  0.00  0.00    +0.000 N 
ATOM     29  C   UNL     1       7.086   4.417  16.050  0.00  0.00    +0.000 C 
ATOM     30  C   UNL     1       6.904   4.449  17.562  0.00  0.00    +0.000 C 
ATOM     31  H   UNL     1       7.048   5.895  14.509  0.00  0.00    +0.000 HD
ENDBRANCH   4  20
TORSDOF 2
ENDMDL
