MODEL 1
REMARK VINA RESULT:      -8.7      0.000      0.000
REMARK  Name = 
REMARK  5 active torsions:
REMARK  status: ('A' for Active; 'I' for Inactive)
REMARK    1  A    between atoms: C_1  and  C_2
REMARK    2  A    between atoms: C_11  and  C_13
REMARK    3  A    between atoms: C_13  and  N_14
REMARK    4  A    between atoms: C_18  and  C_19
REMARK    5  A    between atoms: C_18  and  C_20
REMARK                            x       y       z     vdW  Elec       q    Type
REMARK                         _______ _______ _______ _____ _____    ______ ____
ROOT
ATOM      1  N   UNL     1       1.109   8.593  19.768  0.00  0.00    +0.000 N 
ATOM      2  C   UNL     1       0.472   9.065  20.871  0.00  0.00    +0.000 C 
ATOM      3  O   UNL     1       0.621   8.729  22.032  0.00  0.00    +0.000 OA
ATOM      4  N   UNL     1      -0.314  10.139  20.489  0.00  0.00    +0.000 N 
ATOM      5  C   UNL     1       0.149  10.684  19.229  0.00  0.00    +0.000 C 
ATOM      6  C   UNL     1      -1.012  11.058  18.316  0.00  0.00    +0.000 C 
ATOM      7  C   UNL     1       0.891   9.441  18.707  0.00  0.00    +0.000 C 
ATOM      8  O   UNL     1       1.355   9.322  17.579  0.00  0.00    +0.000 OA
ATOM      9  H   UNL     1      -0.727  10.706  21.217  0.00  0.00    +0.000 HD
ENDROOT
BRANCH   5  10
ATOM     10  C   UNL     1       1.170  11.826  19.418  0.00  0.00    +0.000 A 
ATOM     11  C   UNL     1       1.961  12.266  18.321  0.00  0.00    +0.000 A 
ATOM     12  C   UNL     1       2.925  13.275  18.463  0.00  0.00    +0.000 A 
ATOM     13  C   UNL     1       3.095  13.829  19.710  0.00  0.00    +0.000 A 
ATOM     14  C   UNL     1       2.357  13.408  20.787  0.00  0.00    +0.000 A 
ATOM     15  C   UNL     1       1.401  12.418  20.677  0.00  0.00    +0.000 A 
ATOM     16  O   UNL     1       2.686  14.063  21.932  0.00  0.00    +0.000 OA
ATOM     17  C   UNL     1       3.708  14.957  21.450  0.00  0.00    +0.000 C 
ATOM     18  O   UNL     1       3.977  14.811  20.038  0.00  0.00    +0.000 OA
ENDBRANCH   5  10
BRANCH   1  19
ATOM     19  C   UNL     1       2.285   7.753  19.787  0.00  0.00    +0.000 C 
BRANCH  19  30
ATOM     20  C   UNL     1       1.470   3.332  19.185  0.00  0.00    +0.000 C 
ATOM     21  C   UNL     1       2.862   3.966  19.248  0.00  0.00    +0.000 C 
ATOM     22  C   UNL     1       3.757   3.374  18.139  0.00  0.00    +0.000 C 
ATOM     23  C   UNL     1       4.196   4.590  17.392  0.00  0.00    +0.000 A 
ATOM     24  C   UNL     1       5.000   4.595  16.254  0.00  0.00    +0.000 A 
ATOM     25  C   UNL     1       5.336   5.812  15.673  0.00  0.00    +0.000 A 
ATOM     26  C   UNL     1       4.896   7.000  16.256  0.00  0.00    +0.000 A 
ATOM     27  C   UNL     1       4.109   6.978  17.416  0.00  0.00    +0.000 A 
ATOM     28  C   UNL     1       3.716   5.765  17.975  0.00  0.00    +0.000 A 
ATOM     29  N   UNL     1       2.872   5.444  19.078  0.00  0.00    +0.000 N 
ATOM     30  C   UNL     1       2.161   6.256  19.968  0.00  0.00    +0.000 C 
ATOM     31  O   UNL     1       1.495   5.792  20.898  0.00  0.00    +0.000 OA
ENDBRANCH  19  30
ENDBRANCH   1  19
TORSDOF 3
ENDMDL
MODEL 2
REMARK VINA RESULT:      -8.5      0.595      1.298
REMARK  Name = 
REMARK  5 active torsions:
REMARK  status: ('A' for Active; 'I' for Inactive)
REMARK    1  A    between atoms: C_1  and  C_2
REMARK    2  A    between atoms: C_11  and  C_13
REMARK    3  A    between atoms: C_13  and  N_14
REMARK    4  A    between atoms: C_18  and  C_19
REMARK    5  A    between atoms: C_18  and  C_20
REMARK                            x       y       z     vdW  Elec       q    Type
REMARK                         _______ _______ _______ _____ _____    ______ ____
ROOT
ATOM      1  N   UNL     1       1.161   8.649  19.676  0.00  0.00    +0.000 N 
ATOM      2  C   UNL     1       0.473   9.106  20.754  0.00  0.00    +0.000 C 
ATOM      3  O   UNL     1       0.554   8.741  21.914  0.00  0.00    +0.000 OA
ATOM      4  N   UNL     1      -0.278  10.200  20.356  0.00  0.00    +0.000 N 
ATOM      5  C   UNL     1       0.259  10.766  19.135  0.00  0.00    +0.000 C 
ATOM      6  C   UNL     1      -0.845  11.178  18.171  0.00  0.00    +0.000 C 
ATOM      7  C   UNL     1       1.012   9.524  18.625  0.00  0.00    +0.000 C 
ATOM      8  O   UNL     1       1.534   9.423  17.520  0.00  0.00    +0.000 OA
ATOM      9  H   UNL     1      -0.721  10.756  21.074  0.00  0.00    +0.000 HD
ENDROOT
BRANCH   5  10
ATOM     10  C   UNL     1       1.284  11.888  19.404  0.00  0.00    +0.000 A 
ATOM     11  C   UNL     1       1.343  12.512  20.681  0.00  0.00    +0.000 A 
ATOM     12  C   UNL     1       2.235  13.560  20.951  0.00  0.00    +0.000 A 
ATOM     13  C   UNL     1       3.057  13.982  19.932  0.00  0.00    +0.000 A 
ATOM     14  C   UNL     1       3.005  13.409  18.688  0.00  0.00    +0.000 A 
ATOM     15  C   UNL     1       2.138  12.376  18.393  0.00  0.00    +0.000 A 
ATOM     16  O   UNL     1       3.880  13.977  17.815  0.00  0.00    +0.000 OA
ATOM     17  C   UNL     1       4.500  14.967  18.660  0.00  0.00    +0.000 C 
ATOM     18  O   UNL     1       3.979  14.979  20.006  0.00  0.00    +0.000 OA
ENDBRANCH   5  10
BRANCH   1  19
ATOM     19  C   UNL     1       2.323   7.791  19.738  0.00  0.00    +0.000 C 
BRANCH  19  30
ATOM     20  C   UNL     1       1.428   3.380  19.180  0.00  0.00    +0.000 C 
ATOM     21  C   UNL     1       2.832   3.989  19.242  0.00  0.00    +0.000 C 
ATOM     22  C   UNL     1       3.720   3.369  18.143  0.00  0.00    +0.000 C 
ATOM     23  C   UNL     1       4.184   4.569  17.385  0.00  0.00    +0.000 A 
ATOM     24  C   UNL     1       4.993   4.547  16.250  0.00  0.00    +0.000 A 
ATOM     25  C   UNL     1       5.354   5.751  15.658  0.00  0.00    +0.000 A 
ATOM     26  C   UNL     1       4.933   6.953  16.226  0.00  0.00    +0.000 A 
ATOM     27  C   UNL     1       4.141   6.958  17.383  0.00  0.00    +0.000 A 
ATOM     28  C   UNL     1       3.724   5.758  17.953  0.00  0.00    +0.000 A 
ATOM     29  N   UNL     1       2.869   5.465  19.056  0.00  0.00    +0.000 N 
ATOM     30  C   UNL     1       2.170   6.300  19.935  0.00  0.00    +0.000 C 
ATOM     31  O   UNL     1       1.492   5.857  20.867  0.00  0.00    +0.000 OA
ENDBRANCH  19  30
ENDBRANCH   1  19
TORSDOF 3
ENDMDL
MODEL 3
REMARK VINA RESULT:      -8.2      1.485      1.550
REMARK  Name = 
REMARK  5 active torsions:
REMARK  status: ('A' for Active; 'I' for Inactive)
REMARK    1  A    between atoms: C_1  and  C_2
REMARK    2  A    between atoms: C_11  and  C_13
REMARK    3  A    between atoms: C_13  and  N_14
REMARK    4  A    between atoms: C_18  and  C_19
REMARK    5  A    between atoms: C_18  and  C_20
REMARK                            x       y       z     vdW  Elec       q    Type
REMARK                         _______ _______ _______ _____ _____    ______ ____
ROOT
ATOM      1  N   UNL     1       0.794   9.358  20.013  0.00  0.00    +0.000 N 
ATOM      2  C   UNL     1       0.720  10.070  21.167  0.00  0.00    +0.000 C 
ATOM      3  O   UNL     1       1.365   9.921  22.190  0.00  0.00    +0.000 OA
ATOM      4  N   UNL     1      -0.141  11.135  20.964  0.00  0.00    +0.000 N 
ATOM      5  C   UNL     1      -0.280  11.412  19.548  0.00  0.00    +0.000 C 
ATOM      6  C   UNL     1      -1.720  11.737  19.176  0.00  0.00    +0.000 C 
ATOM      7  C   UNL     1       0.138  10.032  19.009  0.00  0.00    +0.000 C 
ATOM      8  O   UNL     1       0.050   9.679  17.838  0.00  0.00    +0.000 OA
ATOM      9  H   UNL     1      -0.179  11.854  21.673  0.00  0.00    +0.000 HD
ENDROOT
BRANCH   5  10
ATOM     10  C   UNL     1       0.732  12.464  19.049  0.00  0.00    +0.000 A 
ATOM     11  C   UNL     1       1.995  12.056  18.539  0.00  0.00    +0.000 A 
ATOM     12  C   UNL     1       2.955  12.985  18.111  0.00  0.00    +0.000 A 
ATOM     13  C   UNL     1       2.643  14.321  18.208  0.00  0.00    +0.000 A 
ATOM     14  C   UNL     1       1.440  14.739  18.714  0.00  0.00    +0.000 A 
ATOM     15  C   UNL     1       0.476  13.848  19.143  0.00  0.00    +0.000 A 
ATOM     16  O   UNL     1       1.330  16.094  18.746  0.00  0.00    +0.000 OA
ATOM     17  C   UNL     1       2.601  16.482  18.187  0.00  0.00    +0.000 C 
ATOM     18  O   UNL     1       3.443  15.359  17.846  0.00  0.00    +0.000 OA
ENDBRANCH   5  10
BRANCH   1  19
ATOM     19  C   UNL     1       1.845   8.423  19.682  0.00  0.00    +0.000 C 
BRANCH  19  30
ATOM     20  C   UNL     1       1.368   3.943  20.208  0.00  0.00    +0.000 C 
ATOM     21  C   UNL     1       2.709   4.677  20.116  0.00  0.00    +0.000 C 
ATOM     22  C   UNL     1       3.670   3.896  19.196  0.00  0.00    +0.000 C 
ATOM     23  C   UNL     1       4.037   4.916  18.169  0.00  0.00    +0.000 A 
ATOM     24  C   UNL     1       4.866   4.697  17.070  0.00  0.00    +0.000 A 
ATOM     25  C   UNL     1       5.126   5.752  16.203  0.00  0.00    +0.000 A 
ATOM     26  C   UNL     1       4.587   7.010  16.466  0.00  0.00    +0.000 A 
ATOM     27  C   UNL     1       3.777   7.220  17.591  0.00  0.00    +0.000 A 
ATOM     28  C   UNL     1       3.460   6.159  18.435  0.00  0.00    +0.000 A 
ATOM     29  N   UNL     1       2.615   6.062  19.580  0.00  0.00    +0.000 N 
ATOM     30  C   UNL     1       1.826   7.014  20.233  0.00  0.00    +0.000 C 
ATOM     31  O   UNL     1       1.174   6.748  21.247  0.00  0.00    +0.000 OA
ENDBRANCH  19  30
ENDBRANCH   1  19
TORSDOF 3
ENDMDL
MODEL 4
REMARK VINA RESULT:      -7.9      1.105      2.689
REMARK  Name = 
REMARK  5 active torsions:
REMARK  status: ('A' for Active; 'I' for Inactive)
REMARK    1  A    between atoms: C_1  and  C_2
REMARK    2  A    between atoms: C_11  and  C_13
REMARK    3  A    between atoms: C_13  and  N_14
REMARK    4  A    between atoms: C_18  and  C_19
REMARK    5  A    between atoms: C_18  and  C_20
REMARK                            x       y       z     vdW  Elec       q    Type
REMARK                         _______ _______ _______ _____ _____    ______ ____
ROOT
ATOM      1  N   UNL     1       1.757   8.224  19.353  0.00  0.00    +0.000 N 
ATOM      2  C   UNL     1       1.080   8.491  20.500  0.00  0.00    +0.000 C 
ATOM      3  O   UNL     1       1.318   8.097  21.628  0.00  0.00    +0.000 OA
ATOM      4  N   UNL     1       0.108   9.436  20.217  0.00  0.00    +0.000 N 
ATOM      5  C   UNL     1       0.434  10.150  18.999  0.00  0.00    +0.000 C 
ATOM      6  C   UNL     1      -0.800  10.384  18.136  0.00  0.00    +0.000 C 
ATOM      7  C   UNL     1       1.366   9.100  18.368  0.00  0.00    +0.000 C 
ATOM      8  O   UNL     1       1.811   9.152  17.227  0.00  0.00    +0.000 OA
ATOM      9  H   UNL     1      -0.375   9.864  20.995  0.00  0.00    +0.000 HD
ENDROOT
BRANCH   5  10
ATOM     10  C   UNL     1       1.245  11.435  19.265  0.00  0.00    +0.000 A 
ATOM     11  C   UNL     1       2.075  11.980  18.247  0.00  0.00    +0.000 A 
ATOM     12  C   UNL     1       2.857  13.124  18.463  0.00  0.00    +0.000 A 
ATOM     13  C   UNL     1       2.806  13.710  19.706  0.00  0.00    +0.000 A 
ATOM     14  C   UNL     1       2.028  13.192  20.710  0.00  0.00    +0.000 A 
ATOM     15  C   UNL     1       1.249  12.067  20.526  0.00  0.00    +0.000 A 
ATOM     16  O   UNL     1       2.130  13.900  21.866  0.00  0.00    +0.000 OA
ATOM     17  C   UNL     1       3.052  14.934  21.471  0.00  0.00    +0.000 C 
ATOM     18  O   UNL     1       3.490  14.817  20.100  0.00  0.00    +0.000 OA
ENDBRANCH   5  10
BRANCH   1  19
ATOM     19  C   UNL     1       3.062   7.604  19.287  0.00  0.00    +0.000 C 
BRANCH  19  30
ATOM     20  C   UNL     1       4.885   4.436  16.602  0.00  0.00    +0.000 C 
ATOM     21  C   UNL     1       3.416   4.481  17.033  0.00  0.00    +0.000 C 
ATOM     22  C   UNL     1       2.943   3.067  17.430  0.00  0.00    +0.000 C 
ATOM     23  C   UNL     1       2.449   3.269  18.824  0.00  0.00    +0.000 A 
ATOM     24  C   UNL     1       1.947   2.271  19.658  0.00  0.00    +0.000 A 
ATOM     25  C   UNL     1       1.512   2.616  20.932  0.00  0.00    +0.000 A 
ATOM     26  C   UNL     1       1.552   3.949  21.338  0.00  0.00    +0.000 A 
ATOM     27  C   UNL     1       2.036   4.944  20.477  0.00  0.00    +0.000 A 
ATOM     28  C   UNL     1       2.529   4.605  19.220  0.00  0.00    +0.000 A 
ATOM     29  N   UNL     1       3.142   5.377  18.190  0.00  0.00    +0.000 N 
ATOM     30  C   UNL     1       3.445   6.740  18.107  0.00  0.00    +0.000 C 
ATOM     31  O   UNL     1       3.958   7.243  17.103  0.00  0.00    +0.000 OA
ENDBRANCH  19  30
ENDBRANCH   1  19
TORSDOF 3
ENDMDL
MODEL 5
REMARK VINA RESULT:      -7.9      2.522      4.882
REMARK  Name = 
REMARK  5 active torsions:
REMARK  status: ('A' for Active; 'I' for Inactive)
REMARK    1  A    between atoms: C_1  and  C_2
REMARK    2  A    between atoms: C_11  and  C_13
REMARK    3  A    between atoms: C_13  and  N_14
REMARK    4  A    between atoms: C_18  and  C_19
REMARK    5  A    between atoms: C_18  and  C_20
REMARK                            x       y       z     vdW  Elec       q    Type
REMARK                         _______ _______ _______ _____ _____    ______ ____
ROOT
ATOM      1  N   UNL     1       1.841   8.974  18.921  0.00  0.00    +0.000 N 
ATOM      2  C   UNL     1       2.134  10.099  18.218  0.00  0.00    +0.000 C 
ATOM      3  O   UNL     1       2.708  10.194  17.148  0.00  0.00    +0.000 OA
ATOM      4  N   UNL     1       1.537  11.174  18.855  0.00  0.00    +0.000 N 
ATOM      5  C   UNL     1       0.460  10.721  19.712  0.00  0.00    +0.000 C 
ATOM      6  C   UNL     1       0.440  11.473  21.037  0.00  0.00    +0.000 C 
ATOM      7  C   UNL     1       0.923   9.266  19.903  0.00  0.00    +0.000 C 
ATOM      8  O   UNL     1       0.423   8.467  20.686  0.00  0.00    +0.000 OA
ATOM      9  H   UNL     1       1.522  12.061  18.371  0.00  0.00    +0.000 HD
ENDROOT
BRANCH   5  10
ATOM     10  C   UNL     1      -0.905  10.715  18.993  0.00  0.00    +0.000 A 
ATOM     11  C   UNL     1      -1.091   9.937  17.817  0.00  0.00    +0.000 A 
ATOM     12  C   UNL     1      -2.305   9.936  17.115  0.00  0.00    +0.000 A 
ATOM     13  C   UNL     1      -3.325  10.725  17.596  0.00  0.00    +0.000 A 
ATOM     14  C   UNL     1      -3.163  11.498  18.716  0.00  0.00    +0.000 A 
ATOM     15  C   UNL     1      -1.980  11.520  19.427  0.00  0.00    +0.000 A 
ATOM     16  O   UNL     1      -4.276  12.219  19.017  0.00  0.00    +0.000 OA
ATOM     17  C   UNL     1      -5.164  11.800  17.962  0.00  0.00    +0.000 C 
ATOM     18  O   UNL     1      -4.564  10.852  17.052  0.00  0.00    +0.000 OA
ENDBRANCH   5  10
BRANCH   1  19
ATOM     19  C   UNL     1       1.939   7.627  18.406  0.00  0.00    +0.000 C 
BRANCH  19  30
ATOM     20  C   UNL     1       6.098   5.833  18.631  0.00  0.00    +0.000 C 
ATOM     21  C   UNL     1       4.834   5.067  18.235  0.00  0.00    +0.000 C 
ATOM     22  C   UNL     1       4.816   3.690  18.932  0.00  0.00    +0.000 C 
ATOM     23  C   UNL     1       3.516   3.714  19.666  0.00  0.00    +0.000 A 
ATOM     24  C   UNL     1       3.038   2.704  20.498  0.00  0.00    +0.000 A 
ATOM     25  C   UNL     1       1.798   2.864  21.107  0.00  0.00    +0.000 A 
ATOM     26  C   UNL     1       1.046   4.009  20.849  0.00  0.00    +0.000 A 
ATOM     27  C   UNL     1       1.532   5.004  19.989  0.00  0.00    +0.000 A 
ATOM     28  C   UNL     1       2.796   4.884  19.418  0.00  0.00    +0.000 A 
ATOM     29  N   UNL     1       3.562   5.755  18.590  0.00  0.00    +0.000 N 
ATOM     30  C   UNL     1       3.286   7.025  18.073  0.00  0.00    +0.000 C 
ATOM     31  O   UNL     1       4.073   7.623  17.335  0.00  0.00    +0.000 OA
ENDBRANCH  19  30
ENDBRANCH   1  19
TORSDOF 3
ENDMDL
MODEL 6
REMARK VINA RESULT:      -7.8      1.537      1.769
REMARK  Name = 
REMARK  5 active torsions:
REMARK  status: ('A' for Active; 'I' for Inactive)
REMARK    1  A    between atoms: C_1  and  C_2
REMARK    2  A    between atoms: C_11  and  C_13
REMARK    3  A    between atoms: C_13  and  N_14
REMARK    4  A    between atoms: C_18  and  C_19
REMARK    5  A    between atoms: C_18  and  C_20
REMARK                            x       y       z     vdW  Elec       q    Type
REMARK                         _______ _______ _______ _____ _____    ______ ____
ROOT
ATOM      1  N   UNL     1       0.483   9.525  20.053  0.00  0.00    +0.000 N 
ATOM      2  C   UNL     1       0.173  10.199  21.190  0.00  0.00    +0.000 C 
ATOM      3  O   UNL     1       0.650  10.066  22.303  0.00  0.00    +0.000 OA
ATOM      4  N   UNL     1      -0.715  11.211  20.864  0.00  0.00    +0.000 N 
ATOM      5  C   UNL     1      -0.638  11.516  19.449  0.00  0.00    +0.000 C 
ATOM      6  C   UNL     1      -2.018  11.756  18.849  0.00  0.00    +0.000 C 
ATOM      7  C   UNL     1      -0.044  10.181  18.965  0.00  0.00    +0.000 C 
ATOM      8  O   UNL     1       0.085   9.854  17.791  0.00  0.00    +0.000 OA
ATOM      9  H   UNL     1      -0.918  11.907  21.568  0.00  0.00    +0.000 HD
ENDROOT
BRANCH   5  10
ATOM     10  C   UNL     1       0.367  12.644  19.140  0.00  0.00    +0.000 A 
ATOM     11  C   UNL     1      -0.063  14.000  19.122  0.00  0.00    +0.000 A 
ATOM     12  C   UNL     1       0.814  15.049  18.809  0.00  0.00    +0.000 A 
ATOM     13  C   UNL     1       2.116  14.729  18.506  0.00  0.00    +0.000 A 
ATOM     14  C   UNL     1       2.549  13.428  18.498  0.00  0.00    +0.000 A 
ATOM     15  C   UNL     1       1.710  12.375  18.802  0.00  0.00    +0.000 A 
ATOM     16  O   UNL     1       3.860  13.317  18.155  0.00  0.00    +0.000 OA
ATOM     17  C   UNL     1       4.208  14.702  17.961  0.00  0.00    +0.000 C 
ATOM     18  O   UNL     1       3.102  15.605  18.178  0.00  0.00    +0.000 OA
ENDBRANCH   5  10
BRANCH   1  19
ATOM     19  C   UNL     1       1.636   8.669  19.887  0.00  0.00    +0.000 C 
BRANCH  19  30
ATOM     20  C   UNL     1       1.213   4.186  20.428  0.00  0.00    +0.000 C 
ATOM     21  C   UNL     1       2.545   4.934  20.318  0.00  0.00    +0.000 C 
ATOM     22  C   UNL     1       3.503   4.161  19.387  0.00  0.00    +0.000 C 
ATOM     23  C   UNL     1       3.847   5.183  18.354  0.00  0.00    +0.000 A 
ATOM     24  C   UNL     1       4.663   4.970  17.245  0.00  0.00    +0.000 A 
ATOM     25  C   UNL     1       4.902   6.026  16.373  0.00  0.00    +0.000 A 
ATOM     26  C   UNL     1       4.352   7.279  16.640  0.00  0.00    +0.000 A 
ATOM     27  C   UNL     1       3.554   7.482  17.774  0.00  0.00    +0.000 A 
ATOM     28  C   UNL     1       3.259   6.420  18.625  0.00  0.00    +0.000 A 
ATOM     29  N   UNL     1       2.430   6.317  19.780  0.00  0.00    +0.000 N 
ATOM     30  C   UNL     1       1.639   7.262  20.441  0.00  0.00    +0.000 C 
ATOM     31  O   UNL     1       1.002   6.991  21.464  0.00  0.00    +0.000 OA
ENDBRANCH  19  30
ENDBRANCH   1  19
TORSDOF 3
ENDMDL
MODEL 7
REMARK VINA RESULT:      -7.8      1.225      2.968
REMARK  Name = 
REMARK  5 active torsions:
REMARK  status: ('A' for Active; 'I' for Inactive)
REMARK    1  A    between atoms: C_1  and  C_2
REMARK    2  A    between atoms: C_11  and  C_13
REMARK    3  A    between atoms: C_13  and  N_14
REMARK    4  A    between atoms: C_18  and  C_19
REMARK    5  A    between atoms: C_18  and  C_20
REMARK                            x       y       z     vdW  Elec       q    Type
REMARK                         _______ _______ _______ _____ _____    ______ ____
ROOT
ATOM      1  N   UNL     1       1.743   8.219  19.332  0.00  0.00    +0.000 N 
ATOM      2  C   UNL     1       1.038   8.460  20.467  0.00  0.00    +0.000 C 
ATOM      3  O   UNL     1       1.236   8.026  21.588  0.00  0.00    +0.000 OA
ATOM      4  N   UNL     1       0.090   9.431  20.189  0.00  0.00    +0.000 N 
ATOM      5  C   UNL     1       0.462  10.177  19.004  0.00  0.00    +0.000 C 
ATOM      6  C   UNL     1      -0.742  10.460  18.115  0.00  0.00    +0.000 C 
ATOM      7  C   UNL     1       1.394   9.133  18.365  0.00  0.00    +0.000 C 
ATOM      8  O   UNL     1       1.873   9.214  17.239  0.00  0.00    +0.000 OA
ATOM      9  H   UNL     1      -0.409   9.841  20.966  0.00  0.00    +0.000 HD
ENDROOT
BRANCH   5  10
ATOM     10  C   UNL     1       1.286  11.439  19.334  0.00  0.00    +0.000 A 
ATOM     11  C   UNL     1       1.180  12.048  20.615  0.00  0.00    +0.000 A 
ATOM     12  C   UNL     1       1.884  13.217  20.939  0.00  0.00    +0.000 A 
ATOM     13  C   UNL     1       2.686  13.772  19.969  0.00  0.00    +0.000 A 
ATOM     14  C   UNL     1       2.790  13.214  18.721  0.00  0.00    +0.000 A 
ATOM     15  C   UNL     1       2.109  12.065  18.374  0.00  0.00    +0.000 A 
ATOM     16  O   UNL     1       3.613  13.920  17.901  0.00  0.00    +0.000 OA
ATOM     17  C   UNL     1       4.028  14.982  18.783  0.00  0.00    +0.000 C 
ATOM     18  O   UNL     1       3.439  14.897  20.098  0.00  0.00    +0.000 OA
ENDBRANCH   5  10
BRANCH   1  19
ATOM     19  C   UNL     1       3.039   7.579  19.282  0.00  0.00    +0.000 C 
BRANCH  19  30
ATOM     20  C   UNL     1       4.882   4.420  16.600  0.00  0.00    +0.000 C 
ATOM     21  C   UNL     1       3.414   4.455  17.033  0.00  0.00    +0.000 C 
ATOM     22  C   UNL     1       2.953   3.037  17.433  0.00  0.00    +0.000 C 
ATOM     23  C   UNL     1       2.459   3.238  18.829  0.00  0.00    +0.000 A 
ATOM     24  C   UNL     1       1.967   2.238  19.665  0.00  0.00    +0.000 A 
ATOM     25  C   UNL     1       1.531   2.582  20.939  0.00  0.00    +0.000 A 
ATOM     26  C   UNL     1       1.561   3.916  21.343  0.00  0.00    +0.000 A 
ATOM     27  C   UNL     1       2.036   4.913  20.479  0.00  0.00    +0.000 A 
ATOM     28  C   UNL     1       2.530   4.576  19.222  0.00  0.00    +0.000 A 
ATOM     29  N   UNL     1       3.135   5.350  18.189  0.00  0.00    +0.000 N 
ATOM     30  C   UNL     1       3.427   6.715  18.103  0.00  0.00    +0.000 C 
ATOM     31  O   UNL     1       3.934   7.220  17.097  0.00  0.00    +0.000 OA
ENDBRANCH  19  30
ENDBRANCH   1  19
TORSDOF 3
ENDMDL
MODEL 8
REMARK VINA RESULT:      -7.7      2.852      7.896
REMARK  Name = 
REMARK  5 active torsions:
REMARK  status: ('A' for Active; 'I' for Inactive)
REMARK    1  A    between atoms: C_1  and  C_2
REMARK    2  A    between atoms: C_11  and  C_13
REMARK    3  A    between atoms: C_13  and  N_14
REMARK    4  A    between atoms: C_18  and  C_19
REMARK    5  A    between atoms: C_18  and  C_20
REMARK                            x       y       z     vdW  Elec       q    Type
REMARK                         _______ _______ _______ _____ _____    ______ ____
ROOT
ATOM      1  N   UNL     1       2.465   5.348  18.986  0.00  0.00    +0.000 N 
ATOM      2  C   UNL     1       1.942   4.530  18.037  0.00  0.00    +0.000 C 
ATOM      3  O   UNL     1       1.027   4.756  17.265  0.00  0.00    +0.000 OA
ATOM      4  N   UNL     1       2.725   3.390  17.970  0.00  0.00    +0.000 N 
ATOM      5  C   UNL     1       4.036   3.641  18.533  0.00  0.00    +0.000 C 
ATOM      6  C   UNL     1       4.522   2.467  19.373  0.00  0.00    +0.000 C 
ATOM      7  C   UNL     1       3.671   4.847  19.418  0.00  0.00    +0.000 C 
ATOM      8  O   UNL     1       4.417   5.364  20.242  0.00  0.00    +0.000 OA
ATOM      9  H   UNL     1       2.568   2.753  17.201  0.00  0.00    +0.000 HD
ENDROOT
BRANCH   5  10
ATOM     10  C   UNL     1       5.058   4.098  17.473  0.00  0.00    +0.000 A 
ATOM     11  C   UNL     1       6.154   4.925  17.845  0.00  0.00    +0.000 A 
ATOM     12  C   UNL     1       7.082   5.392  16.902  0.00  0.00    +0.000 A 
ATOM     13  C   UNL     1       6.898   5.030  15.588  0.00  0.00    +0.000 A 
ATOM     14  C   UNL     1       5.839   4.250  15.202  0.00  0.00    +0.000 A 
ATOM     15  C   UNL     1       4.910   3.776  16.107  0.00  0.00    +0.000 A 
ATOM     16  O   UNL     1       5.821   4.021  13.862  0.00  0.00    +0.000 OA
ATOM     17  C   UNL     1       7.002   4.738  13.449  0.00  0.00    +0.000 C 
ATOM     18  O   UNL     1       7.689   5.386  14.541  0.00  0.00    +0.000 OA
ENDBRANCH   5  10
BRANCH   1  19
ATOM     19  C   UNL     1       2.193   6.763  19.102  0.00  0.00    +0.000 C 
BRANCH  19  30
ATOM     20  C   UNL     1       0.984   9.072  22.814  0.00  0.00    +0.000 C 
ATOM     21  C   UNL     1       0.381   9.275  21.421  0.00  0.00    +0.000 C 
ATOM     22  C   UNL     1       0.242  10.782  21.125  0.00  0.00    +0.000 C 
ATOM     23  C   UNL     1       1.013  10.938  19.856  0.00  0.00    +0.000 A 
ATOM     24  C   UNL     1       1.230  12.138  19.182  0.00  0.00    +0.000 A 
ATOM     25  C   UNL     1       1.961  12.123  18.000  0.00  0.00    +0.000 A 
ATOM     26  C   UNL     1       2.431  10.912  17.495  0.00  0.00    +0.000 A 
ATOM     27  C   UNL     1       2.181   9.710  18.172  0.00  0.00    +0.000 A 
ATOM     28  C   UNL     1       1.501   9.716  19.387  0.00  0.00    +0.000 A 
ATOM     29  N   UNL     1       1.181   8.682  20.314  0.00  0.00    +0.000 N 
ATOM     30  C   UNL     1       1.448   7.309  20.301  0.00  0.00    +0.000 C 
ATOM     31  O   UNL     1       1.059   6.552  21.194  0.00  0.00    +0.000 OA
ENDBRANCH  19  30
ENDBRANCH   1  19
TORSDOF 3
ENDMDL
MODEL 9
REMARK VINA RESULT:      -7.6      3.714      8.243
REMARK  Name = 
REMARK  5 active torsions:
REMARK  status: ('A' for Active; 'I' for Inactive)
REMARK    1  A    between atoms: C_1  and  C_2
REMARK    2  A    between atoms: C_11  and  C_13
REMARK    3  A    between atoms: C_13  and  N_14
REMARK    4  A    between atoms: C_18  and  C_19
REMARK    5  A    between atoms: C_18  and  C_20
REMARK                            x       y       z     vdW  Elec       q    Type
REMARK                         _______ _______ _______ _____ _____    ______ ____
ROOT
ATOM      1  N   UNL     1       1.266  11.781  20.348  0.00  0.00    +0.000 N 
ATOM      2  C   UNL     1       0.744  10.772  21.093  0.00  0.00    +0.000 C 
ATOM      3  O   UNL     1       0.421  10.788  22.267  0.00  0.00    +0.000 OA
ATOM      4  N   UNL     1       0.487   9.703  20.251  0.00  0.00    +0.000 N 
ATOM      5  C   UNL     1       0.395  10.150  18.876  0.00  0.00    +0.000 C 
ATOM      6  C   UNL     1       1.080   9.181  17.921  0.00  0.00    +0.000 C 
ATOM      7  C   UNL     1       1.194  11.458  19.013  0.00  0.00    +0.000 C 
ATOM      8  O   UNL     1       1.545  12.168  18.077  0.00  0.00    +0.000 OA
ATOM      9  H   UNL     1      -0.054   8.932  20.618  0.00  0.00    +0.000 HD
ENDROOT
BRANCH   5  10
ATOM     10  C   UNL     1      -1.051  10.495  18.462  0.00  0.00    +0.000 A 
ATOM     11  C   UNL     1      -1.569  10.033  17.221  0.00  0.00    +0.000 A 
ATOM     12  C   UNL     1      -2.865  10.358  16.793  0.00  0.00    +0.000 A 
ATOM     13  C   UNL     1      -3.630  11.155  17.613  0.00  0.00    +0.000 A 
ATOM     14  C   UNL     1      -3.145  11.628  18.805  0.00  0.00    +0.000 A 
ATOM     15  C   UNL     1      -1.875  11.325  19.252  0.00  0.00    +0.000 A 
ATOM     16  O   UNL     1      -4.044  12.413  19.458  0.00  0.00    +0.000 OA
ATOM     17  C   UNL     1      -5.158  12.367  18.544  0.00  0.00    +0.000 C 
ATOM     18  O   UNL     1      -4.900  11.573  17.367  0.00  0.00    +0.000 OA
ENDBRANCH   5  10
BRANCH   1  19
ATOM     19  C   UNL     1       1.313  13.168  20.751  0.00  0.00    +0.000 C 
BRANCH  19  30
ATOM     20  C   UNL     1      -1.640  16.600  21.021  0.00  0.00    +0.000 C 
ATOM     21  C   UNL     1      -1.137  15.978  19.716  0.00  0.00    +0.000 C 
ATOM     22  C   UNL     1      -0.801  17.091  18.701  0.00  0.00    +0.000 C 
ATOM     23  C   UNL     1       0.626  16.805  18.365  0.00  0.00    +0.000 A 
ATOM     24  C   UNL     1       1.423  17.560  17.507  0.00  0.00    +0.000 A 
ATOM     25  C   UNL     1       2.735  17.161  17.282  0.00  0.00    +0.000 A 
ATOM     26  C   UNL     1       3.216  16.001  17.886  0.00  0.00    +0.000 A 
ATOM     27  C   UNL     1       2.393  15.238  18.726  0.00  0.00    +0.000 A 
ATOM     28  C   UNL     1       1.095  15.657  19.007  0.00  0.00    +0.000 A 
ATOM     29  N   UNL     1       0.083  15.138  19.866  0.00  0.00    +0.000 N 
ATOM     30  C   UNL     1       0.066  14.025  20.712  0.00  0.00    +0.000 C 
ATOM     31  O   UNL     1      -0.930  13.709  21.369  0.00  0.00    +0.000 OA
ENDBRANCH  19  30
ENDBRANCH   1  19
TORSDOF 3
ENDMDL
