MODEL 1
REMARK VINA RESULT:      -7.2      0.000      0.000
REMARK  Name = 
REMARK  4 active torsions:
REMARK  status: ('A' for Active; 'I' for Inactive)
REMARK    1  A    between atoms: C_2  and  C_3
REMARK    2  A    between atoms: C_7  and  C_8
REMARK    3  A    between atoms: N_17  and  S_18
REMARK    4  A    between atoms: S_18  and  C_21
REMARK                            x       y       z     vdW  Elec       q    Type
REMARK                         _______ _______ _______ _____ _____    ______ ____
ROOT
ATOM      1  O   UNL     1       9.147  16.389  20.239  0.00  0.00    +0.000 OA
ATOM      2  C   UNL     1       8.746  15.871  19.192  0.00  0.00    +0.000 C 
ATOM      3  N   UNL     1       7.387  15.552  19.015  0.00  0.00    +0.000 N 
ATOM      4  C   UNL     1       6.450  15.992  20.062  0.00  0.00    +0.000 C 
ATOM      5  C   UNL     1       5.194  15.102  20.176  0.00  0.00    +0.000 C 
ATOM      6  N   UNL     1       4.558  14.850  18.843  0.00  0.00    +0.000 NA
ATOM      7  C   UNL     1       5.561  14.235  17.927  0.00  0.00    +0.000 C 
ATOM      8  C   UNL     1       6.774  15.150  17.740  0.00  0.00    +0.000 C 
ENDROOT
BRANCH   2   9
ATOM      9  C   UNL     1       9.692  15.505  18.142  0.00  0.00    +0.000 A 
ATOM     10  C   UNL     1      10.327  16.347  17.245  0.00  0.00    +0.000 A 
ATOM     11  N   UNL     1      11.086  15.557  16.442  0.00  0.00    +0.000 N 
ATOM     12  N   UNL     1      11.077  14.272  16.799  0.00  0.00    +0.000 NA
ATOM     13  C   UNL     1      10.242  14.208  17.855  0.00  0.00    +0.000 A 
ATOM     14  H   UNL     1      11.641  15.825  15.636  0.00  0.00    +0.000 HD
BRANCH  13  15
ATOM     15  C   UNL     1       9.995  12.910  18.501  0.00  0.00    +0.000 A 
ATOM     16  C   UNL     1      10.536  12.650  19.771  0.00  0.00    +0.000 A 
ATOM     17  C   UNL     1      10.345  11.415  20.396  0.00  0.00    +0.000 A 
ATOM     18  C   UNL     1       9.606  10.421  19.757  0.00  0.00    +0.000 A 
ATOM     19  C   UNL     1       9.063  10.663  18.499  0.00  0.00    +0.000 A 
ATOM     20  C   UNL     1       9.261  11.897  17.871  0.00  0.00    +0.000 A 
ENDBRANCH  13  15
ENDBRANCH   2   9
BRANCH   6  21
ATOM     21  S   UNL     1       3.650  16.125  18.163  0.00  0.00    +0.000 S 
ATOM     22  O   UNL     1       4.148  17.384  18.676  0.00  0.00    +0.000 OA
ATOM     23  O   UNL     1       3.555  15.893  16.736  0.00  0.00    +0.000 OA
BRANCH  21  24
ATOM     24  C   UNL     1       2.025  15.884  18.838  0.00  0.00    +0.000 A 
ATOM     25  C   UNL     1       1.119  16.950  18.880  0.00  0.00    +0.000 A 
ATOM     26  C   UNL     1      -0.209  16.715  19.252  0.00  0.00    +0.000 A 
ATOM     27  C   UNL     1      -0.626  15.420  19.562  0.00  0.00    +0.000 A 
ATOM     28  C   UNL     1       0.286  14.371  19.512  0.00  0.00    +0.000 A 
ATOM     29  F   UNL     1      -0.127  13.126  19.783  0.00  0.00    +0.000 F 
ATOM     30  C   UNL     1       1.611  14.587  19.156  0.00  0.00    +0.000 A 
ENDBRANCH  21  24
ENDBRANCH   6  21
TORSDOF 4
ENDMDL
MODEL 2
REMARK VINA RESULT:      -6.9      8.257     11.768
REMARK  Name = 
REMARK  4 active torsions:
REMARK  status: ('A' for Active; 'I' for Inactive)
REMARK    1  A    between atoms: C_2  and  C_3
REMARK    2  A    between atoms: C_7  and  C_8
REMARK    3  A    between atoms: N_17  and  S_18
REMARK    4  A    between atoms: S_18  and  C_21
REMARK                            x       y       z     vdW  Elec       q    Type
REMARK                         _______ _______ _______ _____ _____    ______ ____
ROOT
ATOM      1  O   UNL     1       2.045   9.284  18.244  0.00  0.00    +0.000 OA
ATOM      2  C   UNL     1       1.837   8.488  19.165  0.00  0.00    +0.000 C 
ATOM      3  N   UNL     1       2.223   7.139  19.059  0.00  0.00    +0.000 N 
ATOM      4  C   UNL     1       3.011   6.755  17.876  0.00  0.00    +0.000 C 
ATOM      5  C   UNL     1       2.835   5.275  17.474  0.00  0.00    +0.000 C 
ATOM      6  N   UNL     1       2.986   4.352  18.645  0.00  0.00    +0.000 NA
ATOM      7  C   UNL     1       2.007   4.733  19.704  0.00  0.00    +0.000 C 
ATOM      8  C   UNL     1       2.230   6.174  20.169  0.00  0.00    +0.000 C 
ENDROOT
BRANCH   2   9
ATOM      9  C   UNL     1       1.110   8.914  20.357  0.00  0.00    +0.000 A 
ATOM     10  C   UNL     1       1.420   8.641  21.679  0.00  0.00    +0.000 A 
ATOM     11  N   UNL     1       0.447   9.218  22.432  0.00  0.00    +0.000 N 
ATOM     12  N   UNL     1      -0.426   9.929  21.718  0.00  0.00    +0.000 NA
ATOM     13  C   UNL     1      -0.036   9.780  20.437  0.00  0.00    +0.000 A 
ATOM     14  H   UNL     1       0.319   9.173  23.438  0.00  0.00    +0.000 HD
BRANCH  13  15
ATOM     15  C   UNL     1      -0.800  10.441  19.369  0.00  0.00    +0.000 A 
ATOM     16  C   UNL     1      -1.630   9.676  18.531  0.00  0.00    +0.000 A 
ATOM     17  C   UNL     1      -2.342  10.272  17.487  0.00  0.00    +0.000 A 
ATOM     18  C   UNL     1      -2.236  11.643  17.268  0.00  0.00    +0.000 A 
ATOM     19  C   UNL     1      -1.419  12.414  18.089  0.00  0.00    +0.000 A 
ATOM     20  C   UNL     1      -0.700  11.817  19.129  0.00  0.00    +0.000 A 
ENDBRANCH  13  15
ENDBRANCH   2   9
BRANCH   6  21
ATOM     21  S   UNL     1       4.572   4.060  19.203  0.00  0.00    +0.000 S 
ATOM     22  O   UNL     1       4.917   5.063  20.188  0.00  0.00    +0.000 OA
ATOM     23  O   UNL     1       4.683   2.649  19.513  0.00  0.00    +0.000 OA
BRANCH  21  24
ATOM     24  C   UNL     1       5.578   4.358  17.770  0.00  0.00    +0.000 A 
ATOM     25  C   UNL     1       5.381   3.604  16.607  0.00  0.00    +0.000 A 
ATOM     26  C   UNL     1       6.054   3.955  15.433  0.00  0.00    +0.000 A 
ATOM     27  C   UNL     1       6.904   5.061  15.422  0.00  0.00    +0.000 A 
ATOM     28  C   UNL     1       7.087   5.803  16.586  0.00  0.00    +0.000 A 
ATOM     29  F   UNL     1       7.881   6.880  16.561  0.00  0.00    +0.000 F 
ATOM     30  C   UNL     1       6.435   5.462  17.763  0.00  0.00    +0.000 A 
ENDBRANCH  21  24
ENDBRANCH   6  21
TORSDOF 4
ENDMDL
MODEL 3
REMARK VINA RESULT:      -6.8      7.279      8.939
REMARK  Name = 
REMARK  4 active torsions:
REMARK  status: ('A' for Active; 'I' for Inactive)
REMARK    1  A    between atoms: C_2  and  C_3
REMARK    2  A    between atoms: C_7  and  C_8
REMARK    3  A    between atoms: N_17  and  S_18
REMARK    4  A    between atoms: S_18  and  C_21
REMARK                            x       y       z     vdW  Elec       q    Type
REMARK                         _______ _______ _______ _____ _____    ______ ____
ROOT
ATOM      1  O   UNL     1       2.570   6.268  20.548  0.00  0.00    +0.000 OA
ATOM      2  C   UNL     1       2.547   7.011  19.562  0.00  0.00    +0.000 C 
ATOM      3  N   UNL     1       1.726   8.153  19.533  0.00  0.00    +0.000 N 
ATOM      4  C   UNL     1       1.016   8.504  20.774  0.00  0.00    +0.000 C 
ATOM      5  C   UNL     1      -0.297   9.280  20.532  0.00  0.00    +0.000 C 
ATOM      6  N   UNL     1      -0.108  10.424  19.582  0.00  0.00    +0.000 NA
ATOM      7  C   UNL     1       0.448   9.912  18.297  0.00  0.00    +0.000 C 
ATOM      8  C   UNL     1       1.793   9.215  18.516  0.00  0.00    +0.000 C 
ENDROOT
BRANCH   2   9
ATOM      9  C   UNL     1       3.315   6.672  18.368  0.00  0.00    +0.000 A 
ATOM     10  C   UNL     1       4.124   7.509  17.618  0.00  0.00    +0.000 A 
ATOM     11  N   UNL     1       4.606   6.764  16.589  0.00  0.00    +0.000 N 
ATOM     12  N   UNL     1       4.256   5.478  16.655  0.00  0.00    +0.000 NA
ATOM     13  C   UNL     1       3.476   5.384  17.749  0.00  0.00    +0.000 A 
ATOM     14  H   UNL     1       5.183   7.063  15.810  0.00  0.00    +0.000 HD
BRANCH  13  15
ATOM     15  C   UNL     1       2.904   4.080  18.117  0.00  0.00    +0.000 A 
ATOM     16  C   UNL     1       1.509   3.922  18.174  0.00  0.00    +0.000 A 
ATOM     17  C   UNL     1       0.937   2.704  18.551  0.00  0.00    +0.000 A 
ATOM     18  C   UNL     1       1.755   1.624  18.876  0.00  0.00    +0.000 A 
ATOM     19  C   UNL     1       3.139   1.764  18.824  0.00  0.00    +0.000 A 
ATOM     20  C   UNL     1       3.711   2.986  18.453  0.00  0.00    +0.000 A 
ENDBRANCH  13  15
ENDBRANCH   2   9
BRANCH   6  21
ATOM     21  S   UNL     1       0.660  11.820  20.193  0.00  0.00    +0.000 S 
ATOM     22  O   UNL     1       1.603  11.429  21.219  0.00  0.00    +0.000 OA
ATOM     23  O   UNL     1       1.085  12.624  19.065  0.00  0.00    +0.000 OA
BRANCH  21  24
ATOM     24  C   UNL     1      -0.657  12.703  20.994  0.00  0.00    +0.000 A 
ATOM     25  C   UNL     1      -1.923  12.762  20.399  0.00  0.00    +0.000 A 
ATOM     26  C   UNL     1      -2.996  13.309  21.110  0.00  0.00    +0.000 A 
ATOM     27  C   UNL     1      -2.803  13.776  22.411  0.00  0.00    +0.000 A 
ATOM     28  C   UNL     1      -1.540  13.706  22.989  0.00  0.00    +0.000 A 
ATOM     29  F   UNL     1      -1.368  14.129  24.248  0.00  0.00    +0.000 F 
ATOM     30  C   UNL     1      -0.461  13.177  22.294  0.00  0.00    +0.000 A 
ENDBRANCH  21  24
ENDBRANCH   6  21
TORSDOF 4
ENDMDL
MODEL 4
REMARK VINA RESULT:      -6.8      8.052     12.795
REMARK  Name = 
REMARK  4 active torsions:
REMARK  status: ('A' for Active; 'I' for Inactive)
REMARK    1  A    between atoms: C_2  and  C_3
REMARK    2  A    between atoms: C_7  and  C_8
REMARK    3  A    between atoms: N_17  and  S_18
REMARK    4  A    between atoms: S_18  and  C_21
REMARK                            x       y       z     vdW  Elec       q    Type
REMARK                         _______ _______ _______ _____ _____    ______ ____
ROOT
ATOM      1  O   UNL     1      -5.264  15.457  22.693  0.00  0.00    +0.000 OA
ATOM      2  C   UNL     1      -4.994  14.277  22.452  0.00  0.00    +0.000 C 
ATOM      3  N   UNL     1      -3.753  13.915  21.898  0.00  0.00    +0.000 N 
ATOM      4  C   UNL     1      -2.743  14.977  21.757  0.00  0.00    +0.000 C 
ATOM      5  C   UNL     1      -1.741  14.724  20.609  0.00  0.00    +0.000 C 
ATOM      6  N   UNL     1      -1.178  13.336  20.649  0.00  0.00    +0.000 NA
ATOM      7  C   UNL     1      -2.295  12.349  20.603  0.00  0.00    +0.000 C 
ATOM      8  C   UNL     1      -3.248  12.537  21.786  0.00  0.00    +0.000 C 
ENDROOT
BRANCH   2   9
ATOM      9  C   UNL     1      -5.994  13.235  22.664  0.00  0.00    +0.000 A 
ATOM     10  C   UNL     1      -6.452  12.735  23.873  0.00  0.00    +0.000 A 
ATOM     11  N   UNL     1      -7.353  11.763  23.574  0.00  0.00    +0.000 N 
ATOM     12  N   UNL     1      -7.597  11.648  22.268  0.00  0.00    +0.000 NA
ATOM     13  C   UNL     1      -6.791  12.553  21.680  0.00  0.00    +0.000 A 
ATOM     14  H   UNL     1      -7.844  11.143  24.209  0.00  0.00    +0.000 HD
BRANCH  13  15
ATOM     15  C   UNL     1      -6.804  12.686  20.216  0.00  0.00    +0.000 A 
ATOM     16  C   UNL     1      -7.570  13.701  19.616  0.00  0.00    +0.000 A 
ATOM     17  C   UNL     1      -7.627  13.832  18.226  0.00  0.00    +0.000 A 
ATOM     18  C   UNL     1      -6.917  12.949  17.415  0.00  0.00    +0.000 A 
ATOM     19  C   UNL     1      -6.153  11.940  17.994  0.00  0.00    +0.000 A 
ATOM     20  C   UNL     1      -6.102  11.804  19.385  0.00  0.00    +0.000 A 
ENDBRANCH  13  15
ENDBRANCH   2   9
BRANCH   6  21
ATOM     21  S   UNL     1       0.016  13.017  21.825  0.00  0.00    +0.000 S 
ATOM     22  O   UNL     1       1.268  13.603  21.397  0.00  0.00    +0.000 OA
ATOM     23  O   UNL     1      -0.543  13.331  23.124  0.00  0.00    +0.000 OA
BRANCH  21  24
ATOM     24  C   UNL     1       0.207  11.252  21.755  0.00  0.00    +0.000 A 
ATOM     25  C   UNL     1      -0.395  10.443  22.728  0.00  0.00    +0.000 A 
ATOM     26  C   UNL     1      -0.385   9.054  22.574  0.00  0.00    +0.000 A 
ATOM     27  C   UNL     1       0.207   8.482  21.447  0.00  0.00    +0.000 A 
ATOM     28  C   UNL     1       0.797   9.299  20.488  0.00  0.00    +0.000 A 
ATOM     29  F   UNL     1       1.338   8.746  19.395  0.00  0.00    +0.000 F 
ATOM     30  C   UNL     1       0.807  10.680  20.629  0.00  0.00    +0.000 A 
ENDBRANCH  21  24
ENDBRANCH   6  21
TORSDOF 4
ENDMDL
MODEL 5
REMARK VINA RESULT:      -6.7      8.367     11.796
REMARK  Name = 
REMARK  4 active torsions:
REMARK  status: ('A' for Active; 'I' for Inactive)
REMARK    1  A    between atoms: C_2  and  C_3
REMARK    2  A    between atoms: C_7  and  C_8
REMARK    3  A    between atoms: N_17  and  S_18
REMARK    4  A    between atoms: S_18  and  C_21
REMARK                            x       y       z     vdW  Elec       q    Type
REMARK                         _______ _______ _______ _____ _____    ______ ____
ROOT
ATOM      1  O   UNL     1       1.908   9.573  18.530  0.00  0.00    +0.000 OA
ATOM      2  C   UNL     1       1.738   8.726  19.413  0.00  0.00    +0.000 C 
ATOM      3  N   UNL     1       2.110   7.384  19.211  0.00  0.00    +0.000 N 
ATOM      4  C   UNL     1       2.839   7.066  17.973  0.00  0.00    +0.000 C 
ATOM      5  C   UNL     1       2.634   5.612  17.495  0.00  0.00    +0.000 C 
ATOM      6  N   UNL     1       2.834   4.622  18.603  0.00  0.00    +0.000 NA
ATOM      7  C   UNL     1       1.908   4.945  19.726  0.00  0.00    +0.000 C 
ATOM      8  C   UNL     1       2.162   6.356  20.263  0.00  0.00    +0.000 C 
ENDROOT
BRANCH   2   9
ATOM      9  C   UNL     1       1.070   9.086  20.660  0.00  0.00    +0.000 A 
ATOM     10  C   UNL     1       1.493   8.821  21.952  0.00  0.00    +0.000 A 
ATOM     11  N   UNL     1       0.539   9.318  22.782  0.00  0.00    +0.000 N 
ATOM     12  N   UNL     1      -0.432   9.973  22.144  0.00  0.00    +0.000 NA
ATOM     13  C   UNL     1      -0.125   9.866  20.836  0.00  0.00    +0.000 A 
ATOM     14  H   UNL     1       0.486   9.252  23.793  0.00  0.00    +0.000 HD
BRANCH  13  15
ATOM     15  C   UNL     1      -1.009  10.482  19.835  0.00  0.00    +0.000 A 
ATOM     16  C   UNL     1      -1.352   9.767  18.675  0.00  0.00    +0.000 A 
ATOM     17  C   UNL     1      -2.163  10.339  17.691  0.00  0.00    +0.000 A 
ATOM     18  C   UNL     1      -2.645  11.636  17.856  0.00  0.00    +0.000 A 
ATOM     19  C   UNL     1      -2.315  12.356  19.000  0.00  0.00    +0.000 A 
ATOM     20  C   UNL     1      -1.497  11.786  19.981  0.00  0.00    +0.000 A 
ENDBRANCH  13  15
ENDBRANCH   2   9
BRANCH   6  21
ATOM     21  S   UNL     1       4.442   4.293  19.068  0.00  0.00    +0.000 S 
ATOM     22  O   UNL     1       4.836   5.229  20.098  0.00  0.00    +0.000 OA
ATOM     23  O   UNL     1       4.561   2.864  19.281  0.00  0.00    +0.000 OA
BRANCH  21  24
ATOM     24  C   UNL     1       5.384   4.680  17.612  0.00  0.00    +0.000 A 
ATOM     25  C   UNL     1       6.337   5.706  17.647  0.00  0.00    +0.000 A 
ATOM     26  C   UNL     1       7.191   5.893  16.556  0.00  0.00    +0.000 A 
ATOM     27  C   UNL     1       7.101   5.048  15.449  0.00  0.00    +0.000 A 
ATOM     28  C   UNL     1       6.151   4.032  15.431  0.00  0.00    +0.000 A 
ATOM     29  F   UNL     1       6.090   3.207  14.378  0.00  0.00    +0.000 F 
ATOM     30  C   UNL     1       5.287   3.838  16.500  0.00  0.00    +0.000 A 
ENDBRANCH  21  24
ENDBRANCH   6  21
TORSDOF 4
ENDMDL
MODEL 6
REMARK VINA RESULT:      -6.6      1.540      2.103
REMARK  Name = 
REMARK  4 active torsions:
REMARK  status: ('A' for Active; 'I' for Inactive)
REMARK    1  A    between atoms: C_2  and  C_3
REMARK    2  A    between atoms: C_7  and  C_8
REMARK    3  A    between atoms: N_17  and  S_18
REMARK    4  A    between atoms: S_18  and  C_21
REMARK                            x       y       z     vdW  Elec       q    Type
REMARK                         _______ _______ _______ _____ _____    ______ ____
ROOT
ATOM      1  O   UNL     1       9.750  16.275  20.895  0.00  0.00    +0.000 OA
ATOM      2  C   UNL     1       9.186  16.213  19.798  0.00  0.00    +0.000 C 
ATOM      3  N   UNL     1       7.825  15.869  19.700  0.00  0.00    +0.000 N 
ATOM      4  C   UNL     1       7.072  15.735  20.957  0.00  0.00    +0.000 C 
ATOM      5  C   UNL     1       5.876  14.764  20.856  0.00  0.00    +0.000 C 
ATOM      6  N   UNL     1       5.027  15.039  19.653  0.00  0.00    +0.000 NA
ATOM      7  C   UNL     1       5.871  14.967  18.426  0.00  0.00    +0.000 C 
ATOM      8  C   UNL     1       7.012  15.988  18.480  0.00  0.00    +0.000 C 
ENDROOT
BRANCH   2   9
ATOM      9  C   UNL     1       9.946  16.417  18.568  0.00  0.00    +0.000 A 
ATOM     10  C   UNL     1      10.037  17.574  17.813  0.00  0.00    +0.000 A 
ATOM     11  N   UNL     1      10.828  17.281  16.748  0.00  0.00    +0.000 N 
ATOM     12  N   UNL     1      11.342  16.051  16.790  0.00  0.00    +0.000 NA
ATOM     13  C   UNL     1      10.834  15.497  17.909  0.00  0.00    +0.000 A 
ATOM     14  H   UNL     1      11.065  17.871  15.957  0.00  0.00    +0.000 HD
BRANCH  13  15
ATOM     15  C   UNL     1      11.199  14.117  18.261  0.00  0.00    +0.000 A 
ATOM     16  C   UNL     1      10.690  13.048  17.504  0.00  0.00    +0.000 A 
ATOM     17  C   UNL     1      10.993  11.724  17.834  0.00  0.00    +0.000 A 
ATOM     18  C   UNL     1      11.813  11.451  18.926  0.00  0.00    +0.000 A 
ATOM     19  C   UNL     1      12.325  12.499  19.685  0.00  0.00    +0.000 A 
ATOM     20  C   UNL     1      12.016  13.824  19.360  0.00  0.00    +0.000 A 
ENDBRANCH  13  15
ENDBRANCH   2   9
BRANCH   6  21
ATOM     21  S   UNL     1       3.985  16.388  19.731  0.00  0.00    +0.000 S 
ATOM     22  O   UNL     1       3.919  16.855  21.099  0.00  0.00    +0.000 OA
ATOM     23  O   UNL     1       4.346  17.293  18.657  0.00  0.00    +0.000 OA
BRANCH  21  24
ATOM     24  C   UNL     1       2.395  15.710  19.325  0.00  0.00    +0.000 A 
ATOM     25  C   UNL     1       2.060  14.414  19.737  0.00  0.00    +0.000 A 
ATOM     26  C   UNL     1       0.753  13.949  19.566  0.00  0.00    +0.000 A 
ATOM     27  C   UNL     1      -0.214  14.783  19.001  0.00  0.00    +0.000 A 
ATOM     28  C   UNL     1       0.134  16.070  18.600  0.00  0.00    +0.000 A 
ATOM     29  F   UNL     1      -0.805  16.875  18.086  0.00  0.00    +0.000 F 
ATOM     30  C   UNL     1       1.430  16.544  18.753  0.00  0.00    +0.000 A 
ENDBRANCH  21  24
ENDBRANCH   6  21
TORSDOF 4
ENDMDL
MODEL 7
REMARK VINA RESULT:      -6.6      8.466     11.903
REMARK  Name = 
REMARK  4 active torsions:
REMARK  status: ('A' for Active; 'I' for Inactive)
REMARK    1  A    between atoms: C_2  and  C_3
REMARK    2  A    between atoms: C_7  and  C_8
REMARK    3  A    between atoms: N_17  and  S_18
REMARK    4  A    between atoms: S_18  and  C_21
REMARK                            x       y       z     vdW  Elec       q    Type
REMARK                         _______ _______ _______ _____ _____    ______ ____
ROOT
ATOM      1  O   UNL     1       2.331   8.978  18.456  0.00  0.00    +0.000 OA
ATOM      2  C   UNL     1       1.931   8.229  19.352  0.00  0.00    +0.000 C 
ATOM      3  N   UNL     1       2.029   6.831  19.226  0.00  0.00    +0.000 N 
ATOM      4  C   UNL     1       2.757   6.309  18.058  0.00  0.00    +0.000 C 
ATOM      5  C   UNL     1       2.287   4.906  17.617  0.00  0.00    +0.000 C 
ATOM      6  N   UNL     1       2.202   3.952  18.771  0.00  0.00    +0.000 NA
ATOM      7  C   UNL     1       1.292   4.513  19.809  0.00  0.00    +0.000 C 
ATOM      8  C   UNL     1       1.797   5.867  20.314  0.00  0.00    +0.000 C 
ENDROOT
BRANCH   2   9
ATOM      9  C   UNL     1       1.271   8.779  20.532  0.00  0.00    +0.000 A 
ATOM     10  C   UNL     1       1.593   8.556  21.861  0.00  0.00    +0.000 A 
ATOM     11  N   UNL     1       0.689   9.251  22.600  0.00  0.00    +0.000 N 
ATOM     12  N   UNL     1      -0.143   9.990  21.865  0.00  0.00    +0.000 NA
ATOM     13  C   UNL     1       0.201   9.738  20.587  0.00  0.00    +0.000 A 
ATOM     14  H   UNL     1       0.583   9.273  23.609  0.00  0.00    +0.000 HD
BRANCH  13  15
ATOM     15  C   UNL     1      -0.534  10.398  19.498  0.00  0.00    +0.000 A 
ATOM     16  C   UNL     1      -0.401  11.784  19.308  0.00  0.00    +0.000 A 
ATOM     17  C   UNL     1      -1.112  12.444  18.302  0.00  0.00    +0.000 A 
ATOM     18  C   UNL     1      -1.967  11.725  17.470  0.00  0.00    +0.000 A 
ATOM     19  C   UNL     1      -2.110  10.352  17.646  0.00  0.00    +0.000 A 
ATOM     20  C   UNL     1      -1.403   9.692  18.657  0.00  0.00    +0.000 A 
ENDBRANCH  13  15
ENDBRANCH   2   9
BRANCH   6  21
ATOM     21  S   UNL     1       3.673   3.324  19.366  0.00  0.00    +0.000 S 
ATOM     22  O   UNL     1       3.917   3.867  20.686  0.00  0.00    +0.000 OA
ATOM     23  O   UNL     1       3.668   1.892  19.144  0.00  0.00    +0.000 OA
BRANCH  21  24
ATOM     24  C   UNL     1       4.893   4.015  18.275  0.00  0.00    +0.000 A 
ATOM     25  C   UNL     1       5.888   4.859  18.782  0.00  0.00    +0.000 A 
ATOM     26  C   UNL     1       6.941   5.261  17.955  0.00  0.00    +0.000 A 
ATOM     27  C   UNL     1       7.003   4.807  16.637  0.00  0.00    +0.000 A 
ATOM     28  C   UNL     1       6.008   3.965  16.149  0.00  0.00    +0.000 A 
ATOM     29  F   UNL     1       6.089   3.509  14.893  0.00  0.00    +0.000 F 
ATOM     30  C   UNL     1       4.949   3.565  16.953  0.00  0.00    +0.000 A 
ENDBRANCH  21  24
ENDBRANCH   6  21
TORSDOF 4
ENDMDL
MODEL 8
REMARK VINA RESULT:      -6.6      8.126     12.204
REMARK  Name = 
REMARK  4 active torsions:
REMARK  status: ('A' for Active; 'I' for Inactive)
REMARK    1  A    between atoms: C_2  and  C_3
REMARK    2  A    between atoms: C_7  and  C_8
REMARK    3  A    between atoms: N_17  and  S_18
REMARK    4  A    between atoms: S_18  and  C_21
REMARK                            x       y       z     vdW  Elec       q    Type
REMARK                         _______ _______ _______ _____ _____    ______ ____
ROOT
ATOM      1  O   UNL     1      -2.849  13.010  19.996  0.00  0.00    +0.000 OA
ATOM      2  C   UNL     1      -2.491  12.073  19.276  0.00  0.00    +0.000 C 
ATOM      3  N   UNL     1      -1.318  11.348  19.558  0.00  0.00    +0.000 N 
ATOM      4  C   UNL     1      -0.624  11.655  20.819  0.00  0.00    +0.000 C 
ATOM      5  C   UNL     1       0.893  11.370  20.770  0.00  0.00    +0.000 C 
ATOM      6  N   UNL     1       1.193  10.011  20.213  0.00  0.00    +0.000 NA
ATOM      7  C   UNL     1       0.588   9.890  18.856  0.00  0.00    +0.000 C 
ATOM      8  C   UNL     1      -0.929  10.087  18.907  0.00  0.00    +0.000 C 
ENDROOT
BRANCH   2   9
ATOM      9  C   UNL     1      -3.239  11.747  18.065  0.00  0.00    +0.000 A 
ATOM     10  C   UNL     1      -2.735  11.532  16.793  0.00  0.00    +0.000 A 
ATOM     11  N   UNL     1      -3.803  11.290  15.988  0.00  0.00    +0.000 N 
ATOM     12  N   UNL     1      -4.962  11.235  16.646  0.00  0.00    +0.000 NA
ATOM     13  C   UNL     1      -4.648  11.493  17.931  0.00  0.00    +0.000 A 
ATOM     14  H   UNL     1      -3.816  11.149  14.984  0.00  0.00    +0.000 HD
BRANCH  13  15
ATOM     15  C   UNL     1      -5.714  11.517  18.943  0.00  0.00    +0.000 A 
ATOM     16  C   UNL     1      -6.047  12.727  19.576  0.00  0.00    +0.000 A 
ATOM     17  C   UNL     1      -7.033  12.774  20.564  0.00  0.00    +0.000 A 
ATOM     18  C   UNL     1      -7.703  11.609  20.933  0.00  0.00    +0.000 A 
ATOM     19  C   UNL     1      -7.386  10.403  20.315  0.00  0.00    +0.000 A 
ATOM     20  C   UNL     1      -6.393  10.355  19.331  0.00  0.00    +0.000 A 
ENDBRANCH  13  15
ENDBRANCH   2   9
BRANCH   6  21
ATOM     21  S   UNL     1       0.928   8.676  21.241  0.00  0.00    +0.000 S 
ATOM     22  O   UNL     1       1.642   8.886  22.482  0.00  0.00    +0.000 OA
ATOM     23  O   UNL     1      -0.493   8.391  21.244  0.00  0.00    +0.000 OA
BRANCH  21  24
ATOM     24  C   UNL     1       1.724   7.333  20.393  0.00  0.00    +0.000 A 
ATOM     25  C   UNL     1       1.481   6.012  20.788  0.00  0.00    +0.000 A 
ATOM     26  C   UNL     1       1.973   4.957  20.014  0.00  0.00    +0.000 A 
ATOM     27  C   UNL     1       2.687   5.225  18.845  0.00  0.00    +0.000 A 
ATOM     28  C   UNL     1       2.917   6.544  18.464  0.00  0.00    +0.000 A 
ATOM     29  F   UNL     1       3.578   6.794  17.326  0.00  0.00    +0.000 F 
ATOM     30  C   UNL     1       2.446   7.604  19.226  0.00  0.00    +0.000 A 
ENDBRANCH  21  24
ENDBRANCH   6  21
TORSDOF 4
ENDMDL
MODEL 9
REMARK VINA RESULT:      -6.6      7.128      8.500
REMARK  Name = 
REMARK  4 active torsions:
REMARK  status: ('A' for Active; 'I' for Inactive)
REMARK    1  A    between atoms: C_2  and  C_3
REMARK    2  A    between atoms: C_7  and  C_8
REMARK    3  A    between atoms: N_17  and  S_18
REMARK    4  A    between atoms: S_18  and  C_21
REMARK                            x       y       z     vdW  Elec       q    Type
REMARK                         _______ _______ _______ _____ _____    ______ ____
ROOT
ATOM      1  O   UNL     1       3.078   7.704  17.350  0.00  0.00    +0.000 OA
ATOM      2  C   UNL     1       2.542   7.764  18.460  0.00  0.00    +0.000 C 
ATOM      3  N   UNL     1       1.928   8.949  18.906  0.00  0.00    +0.000 N 
ATOM      4  C   UNL     1       1.822  10.057  17.942  0.00  0.00    +0.000 C 
ATOM      5  C   UNL     1       1.783  11.449  18.608  0.00  0.00    +0.000 C 
ATOM      6  N   UNL     1       0.792  11.509  19.730  0.00  0.00    +0.000 NA
ATOM      7  C   UNL     1       1.116  10.453  20.731  0.00  0.00    +0.000 C 
ATOM      8  C   UNL     1       1.073   9.060  20.099  0.00  0.00    +0.000 C 
ENDROOT
BRANCH   2   9
ATOM      9  C   UNL     1       2.605   6.625  19.372  0.00  0.00    +0.000 A 
ATOM     10  C   UNL     1       1.762   6.346  20.435  0.00  0.00    +0.000 A 
ATOM     11  N   UNL     1       2.225   5.204  21.007  0.00  0.00    +0.000 N 
ATOM     12  N   UNL     1       3.247   4.656  20.348  0.00  0.00    +0.000 NA
ATOM     13  C   UNL     1       3.494   5.496  19.324  0.00  0.00    +0.000 A 
ATOM     14  H   UNL     1       1.890   4.737  21.843  0.00  0.00    +0.000 HD
BRANCH  13  15
ATOM     15  C   UNL     1       4.584   5.189  18.386  0.00  0.00    +0.000 A 
ATOM     16  C   UNL     1       4.293   4.571  17.158  0.00  0.00    +0.000 A 
ATOM     17  C   UNL     1       5.311   4.238  16.261  0.00  0.00    +0.000 A 
ATOM     18  C   UNL     1       6.637   4.521  16.579  0.00  0.00    +0.000 A 
ATOM     19  C   UNL     1       6.942   5.134  17.791  0.00  0.00    +0.000 A 
ATOM     20  C   UNL     1       5.923   5.460  18.693  0.00  0.00    +0.000 A 
ENDBRANCH  13  15
ENDBRANCH   2   9
BRANCH   6  21
ATOM     21  S   UNL     1      -0.857  11.614  19.303  0.00  0.00    +0.000 S 
ATOM     22  O   UNL     1      -0.987  12.445  18.126  0.00  0.00    +0.000 OA
ATOM     23  O   UNL     1      -1.410  10.275  19.329  0.00  0.00    +0.000 OA
BRANCH  21  24
ATOM     24  C   UNL     1      -1.582  12.502  20.661  0.00  0.00    +0.000 A 
ATOM     25  C   UNL     1      -1.917  13.854  20.515  0.00  0.00    +0.000 A 
ATOM     26  C   UNL     1      -2.640  14.500  21.522  0.00  0.00    +0.000 A 
ATOM     27  C   UNL     1      -3.037  13.792  22.657  0.00  0.00    +0.000 A 
ATOM     28  C   UNL     1      -2.700  12.448  22.786  0.00  0.00    +0.000 A 
ATOM     29  F   UNL     1      -3.109  11.767  23.863  0.00  0.00    +0.000 F 
ATOM     30  C   UNL     1      -1.973  11.793  21.801  0.00  0.00    +0.000 A 
ENDBRANCH  21  24
ENDBRANCH   6  21
TORSDOF 4
ENDMDL
