MODEL 1
REMARK VINA RESULT:      -8.5      0.000      0.000
REMARK  Name = 
REMARK  4 active torsions:
REMARK  status: ('A' for Active; 'I' for Inactive)
REMARK    1  A    between atoms: C_2  and  C_13
REMARK    2  A    between atoms: N_3  and  C_4
REMARK    3  A    between atoms: C_4  and  C_5
REMARK    4  A    between atoms: C_5  and  O_6
REMARK                            x       y       z     vdW  Elec       q    Type
REMARK                         _______ _______ _______ _____ _____    ______ ____
ROOT
ATOM      1  O   UNL     1       2.111   8.016  18.491  0.00  0.00    +0.000 OA
ATOM      2  C   UNL     1       1.936   7.857  19.695  0.00  0.00    +0.000 C 
ATOM      3  N   UNL     1       2.467   6.798  20.397  0.00  0.00    +0.000 N 
ATOM      4  H   UNL     1       2.191   6.660  21.361  0.00  0.00    +0.000 HD
ENDROOT
BRANCH   2   5
ATOM      5  C   UNL     1       1.088   8.797  20.497  0.00  0.00    +0.000 A 
ATOM      6  C   UNL     1       1.206   8.702  21.829  0.00  0.00    +0.000 A 
ATOM      7  C   UNL     1       0.427   9.598  22.688  0.00  0.00    +0.000 A 
ATOM      8  O   UNL     1       0.498   9.531  23.905  0.00  0.00    +0.000 OA
ATOM      9  C   UNL     1      -0.430  10.577  22.003  0.00  0.00    +0.000 A 
ATOM     10  C   UNL     1      -1.175  11.499  22.746  0.00  0.00    +0.000 A 
ATOM     11  C   UNL     1      -1.982  12.421  22.081  0.00  0.00    +0.000 A 
ATOM     12  C   UNL     1      -2.038  12.400  20.690  0.00  0.00    +0.000 A 
ATOM     13  F   UNL     1      -2.818  13.282  20.054  0.00  0.00    +0.000 F 
ATOM     14  C   UNL     1      -1.296  11.483  19.945  0.00  0.00    +0.000 A 
ATOM     15  C   UNL     1      -0.476  10.569  20.607  0.00  0.00    +0.000 A 
ATOM     16  O   UNL     1       0.261   9.697  19.838  0.00  0.00    +0.000 OA
ENDBRANCH   2   5
BRANCH   3  17
ATOM     17  C   UNL     1       3.126   5.702  19.690  0.00  0.00    +0.000 C 
BRANCH  17  18
ATOM     18  C   UNL     1       2.167   4.576  19.267  0.00  0.00    +0.000 C 
ATOM     19  C   UNL     1       0.967   4.337  20.215  0.00  0.00    +0.000 C 
ATOM     20  C   UNL     1       1.070   2.832  20.538  0.00  0.00    +0.000 C 
ATOM     21  C   UNL     1       2.268   2.607  21.477  0.00  0.00    +0.000 C 
ATOM     22  C   UNL     1       3.474   2.771  20.540  0.00  0.00    +0.000 C 
ATOM     23  C   UNL     1       2.821   3.166  19.202  0.00  0.00    +0.000 C 
ATOM     24  C   UNL     1       1.586   2.253  19.222  0.00  0.00    +0.000 C 
BRANCH  18  25
ATOM     25  O   UNL     1       1.673   4.891  17.954  0.00  0.00    +0.000 OA
ATOM     26  H   UNL     1       1.722   5.858  17.862  0.00  0.00    +0.000 HD
ENDBRANCH  18  25
ENDBRANCH  17  18
ENDBRANCH   3  17
TORSDOF 4
ENDMDL
MODEL 2
REMARK VINA RESULT:      -8.3      0.891      1.430
REMARK  Name = 
REMARK  4 active torsions:
REMARK  status: ('A' for Active; 'I' for Inactive)
REMARK    1  A    between atoms: C_2  and  C_13
REMARK    2  A    between atoms: N_3  and  C_4
REMARK    3  A    between atoms: C_4  and  C_5
REMARK    4  A    between atoms: C_5  and  O_6
REMARK                            x       y       z     vdW  Elec       q    Type
REMARK                         _______ _______ _______ _____ _____    ______ ____
ROOT
ATOM      1  O   UNL     1       2.090   7.893  18.566  0.00  0.00    +0.000 OA
ATOM      2  C   UNL     1       1.875   7.745  19.764  0.00  0.00    +0.000 C 
ATOM      3  N   UNL     1       2.331   6.661  20.481  0.00  0.00    +0.000 N 
ATOM      4  H   UNL     1       2.023   6.541  21.437  0.00  0.00    +0.000 HD
ENDROOT
BRANCH   2   5
ATOM      5  C   UNL     1       1.056   8.730  20.543  0.00  0.00    +0.000 A 
ATOM      6  C   UNL     1       1.182   8.673  21.876  0.00  0.00    +0.000 A 
ATOM      7  C   UNL     1       0.432   9.615  22.712  0.00  0.00    +0.000 A 
ATOM      8  O   UNL     1       0.510   9.584  23.930  0.00  0.00    +0.000 OA
ATOM      9  C   UNL     1      -0.407  10.592  22.003  0.00  0.00    +0.000 A 
ATOM     10  C   UNL     1      -1.124  11.555  22.722  0.00  0.00    +0.000 A 
ATOM     11  C   UNL     1      -1.914  12.474  22.034  0.00  0.00    +0.000 A 
ATOM     12  C   UNL     1      -1.981  12.411  20.644  0.00  0.00    +0.000 A 
ATOM     13  F   UNL     1      -2.746  13.292  19.986  0.00  0.00    +0.000 F 
ATOM     14  C   UNL     1      -1.268  11.454  19.923  0.00  0.00    +0.000 A 
ATOM     15  C   UNL     1      -0.465  10.542  20.608  0.00  0.00    +0.000 A 
ATOM     16  O   UNL     1       0.246   9.629  19.861  0.00  0.00    +0.000 OA
ENDBRANCH   2   5
BRANCH   3  17
ATOM     17  C   UNL     1       2.951   5.531  19.794  0.00  0.00    +0.000 C 
BRANCH  17  18
ATOM     18  C   UNL     1       2.078   4.264  19.780  0.00  0.00    +0.000 C 
ATOM     19  C   UNL     1       2.797   2.960  20.199  0.00  0.00    +0.000 C 
ATOM     20  C   UNL     1       2.521   2.011  19.014  0.00  0.00    +0.000 C 
ATOM     21  C   UNL     1       3.361   2.466  17.808  0.00  0.00    +0.000 C 
ATOM     22  C   UNL     1       2.623   3.726  17.330  0.00  0.00    +0.000 C 
ATOM     23  C   UNL     1       1.509   3.893  18.381  0.00  0.00    +0.000 C 
ATOM     24  C   UNL     1       1.112   2.423  18.591  0.00  0.00    +0.000 C 
BRANCH  18  25
ATOM     25  O   UNL     1       0.964   4.490  20.660  0.00  0.00    +0.000 OA
ATOM     26  H   UNL     1       0.443   3.668  20.668  0.00  0.00    +0.000 HD
ENDBRANCH  18  25
ENDBRANCH  17  18
ENDBRANCH   3  17
TORSDOF 4
ENDMDL
MODEL 3
REMARK VINA RESULT:      -8.2      3.058      4.465
REMARK  Name = 
REMARK  4 active torsions:
REMARK  status: ('A' for Active; 'I' for Inactive)
REMARK    1  A    between atoms: C_2  and  C_13
REMARK    2  A    between atoms: N_3  and  C_4
REMARK    3  A    between atoms: C_4  and  C_5
REMARK    4  A    between atoms: C_5  and  O_6
REMARK                            x       y       z     vdW  Elec       q    Type
REMARK                         _______ _______ _______ _____ _____    ______ ____
ROOT
ATOM      1  O   UNL     1       3.294   5.091  20.247  0.00  0.00    +0.000 OA
ATOM      2  C   UNL     1       2.847   5.723  19.296  0.00  0.00    +0.000 C 
ATOM      3  N   UNL     1       2.911   5.270  17.997  0.00  0.00    +0.000 N 
ATOM      4  H   UNL     1       2.629   5.889  17.248  0.00  0.00    +0.000 HD
ENDROOT
BRANCH   2   5
ATOM      5  C   UNL     1       2.223   7.075  19.474  0.00  0.00    +0.000 A 
ATOM      6  C   UNL     1       2.300   7.900  18.420  0.00  0.00    +0.000 A 
ATOM      7  C   UNL     1       1.697   9.233  18.503  0.00  0.00    +0.000 A 
ATOM      8  O   UNL     1       1.759  10.017  17.568  0.00  0.00    +0.000 OA
ATOM      9  C   UNL     1       1.015   9.564  19.762  0.00  0.00    +0.000 A 
ATOM     10  C   UNL     1       0.375  10.800  19.911  0.00  0.00    +0.000 A 
ATOM     11  C   UNL     1      -0.268  11.097  21.111  0.00  0.00    +0.000 A 
ATOM     12  C   UNL     1      -0.254  10.162  22.142  0.00  0.00    +0.000 A 
ATOM     13  F   UNL     1      -0.867  10.453  23.297  0.00  0.00    +0.000 F 
ATOM     14  C   UNL     1       0.382   8.929  21.999  0.00  0.00    +0.000 A 
ATOM     15  C   UNL     1       1.013   8.622  20.794  0.00  0.00    +0.000 A 
ATOM     16  O   UNL     1       1.607   7.385  20.679  0.00  0.00    +0.000 OA
ENDBRANCH   2   5
BRANCH   3  17
ATOM     17  C   UNL     1       3.685   4.075  17.670  0.00  0.00    +0.000 C 
BRANCH  17  18
ATOM     18  C   UNL     1       5.203   4.319  17.624  0.00  0.00    +0.000 C 
ATOM     19  C   UNL     1       5.635   5.805  17.606  0.00  0.00    +0.000 C 
ATOM     20  C   UNL     1       6.545   5.889  16.363  0.00  0.00    +0.000 C 
ATOM     21  C   UNL     1       5.671   5.795  15.100  0.00  0.00    +0.000 C 
ATOM     22  C   UNL     1       5.285   4.309  15.059  0.00  0.00    +0.000 C 
ATOM     23  C   UNL     1       5.905   3.755  16.355  0.00  0.00    +0.000 C 
ATOM     24  C   UNL     1       7.234   4.526  16.372  0.00  0.00    +0.000 C 
BRANCH  18  25
ATOM     25  O   UNL     1       5.786   3.674  18.770  0.00  0.00    +0.000 OA
ATOM     26  H   UNL     1       6.739   3.593  18.591  0.00  0.00    +0.000 HD
ENDBRANCH  18  25
ENDBRANCH  17  18
ENDBRANCH   3  17
TORSDOF 4
ENDMDL
MODEL 4
REMARK VINA RESULT:      -8.2      3.086      4.456
REMARK  Name = 
REMARK  4 active torsions:
REMARK  status: ('A' for Active; 'I' for Inactive)
REMARK    1  A    between atoms: C_2  and  C_13
REMARK    2  A    between atoms: N_3  and  C_4
REMARK    3  A    between atoms: C_4  and  C_5
REMARK    4  A    between atoms: C_5  and  O_6
REMARK                            x       y       z     vdW  Elec       q    Type
REMARK                         _______ _______ _______ _____ _____    ______ ____
ROOT
ATOM      1  O   UNL     1       3.612   7.409  16.800  0.00  0.00    +0.000 OA
ATOM      2  C   UNL     1       3.146   7.100  17.891  0.00  0.00    +0.000 C 
ATOM      3  N   UNL     1       3.377   5.882  18.488  0.00  0.00    +0.000 N 
ATOM      4  H   UNL     1       2.872   5.645  19.333  0.00  0.00    +0.000 HD
ENDROOT
BRANCH   2   5
ATOM      5  C   UNL     1       2.245   8.027  18.651  0.00  0.00    +0.000 A 
ATOM      6  C   UNL     1       1.591   8.940  17.920  0.00  0.00    +0.000 A 
ATOM      7  C   UNL     1       0.674   9.872  18.582  0.00  0.00    +0.000 A 
ATOM      8  O   UNL     1       0.072  10.726  17.950  0.00  0.00    +0.000 OA
ATOM      9  C   UNL     1       0.519   9.714  20.035  0.00  0.00    +0.000 A 
ATOM     10  C   UNL     1      -0.369  10.534  20.740  0.00  0.00    +0.000 A 
ATOM     11  C   UNL     1      -0.504  10.371  22.117  0.00  0.00    +0.000 A 
ATOM     12  C   UNL     1       0.254   9.400  22.767  0.00  0.00    +0.000 A 
ATOM     13  F   UNL     1       0.127   9.249  24.091  0.00  0.00    +0.000 F 
ATOM     14  C   UNL     1       1.140   8.580  22.068  0.00  0.00    +0.000 A 
ATOM     15  C   UNL     1       1.266   8.731  20.688  0.00  0.00    +0.000 A 
ATOM     16  O   UNL     1       2.130   7.885  20.028  0.00  0.00    +0.000 OA
ENDBRANCH   2   5
BRANCH   3  17
ATOM     17  C   UNL     1       4.056   4.817  17.753  0.00  0.00    +0.000 C 
BRANCH  17  18
ATOM     18  C   UNL     1       5.466   4.504  18.283  0.00  0.00    +0.000 C 
ATOM     19  C   UNL     1       6.043   5.538  19.279  0.00  0.00    +0.000 C 
ATOM     20  C   UNL     1       7.399   5.915  18.646  0.00  0.00    +0.000 C 
ATOM     21  C   UNL     1       7.142   6.780  17.400  0.00  0.00    +0.000 C 
ATOM     22  C   UNL     1       6.632   5.760  16.372  0.00  0.00    +0.000 C 
ATOM     23  C   UNL     1       6.566   4.453  17.185  0.00  0.00    +0.000 C 
ATOM     24  C   UNL     1       7.845   4.592  18.025  0.00  0.00    +0.000 C 
BRANCH  18  25
ATOM     25  O   UNL     1       5.420   3.215  18.918  0.00  0.00    +0.000 OA
ATOM     26  H   UNL     1       4.696   2.721  18.496  0.00  0.00    +0.000 HD
ENDBRANCH  18  25
ENDBRANCH  17  18
ENDBRANCH   3  17
TORSDOF 4
ENDMDL
MODEL 5
REMARK VINA RESULT:      -8.0      3.085      4.541
REMARK  Name = 
REMARK  4 active torsions:
REMARK  status: ('A' for Active; 'I' for Inactive)
REMARK    1  A    between atoms: C_2  and  C_13
REMARK    2  A    between atoms: N_3  and  C_4
REMARK    3  A    between atoms: C_4  and  C_5
REMARK    4  A    between atoms: C_5  and  O_6
REMARK                            x       y       z     vdW  Elec       q    Type
REMARK                         _______ _______ _______ _____ _____    ______ ____
ROOT
ATOM      1  O   UNL     1       2.612   4.832  19.526  0.00  0.00    +0.000 OA
ATOM      2  C   UNL     1       2.791   5.810  18.807  0.00  0.00    +0.000 C 
ATOM      3  N   UNL     1       3.543   5.766  17.655  0.00  0.00    +0.000 N 
ATOM      4  H   UNL     1       3.747   6.630  17.169  0.00  0.00    +0.000 HD
ENDROOT
BRANCH   2   5
ATOM      5  C   UNL     1       2.228   7.155  19.156  0.00  0.00    +0.000 A 
ATOM      6  C   UNL     1       2.280   8.080  18.187  0.00  0.00    +0.000 A 
ATOM      7  C   UNL     1       1.732   9.416  18.437  0.00  0.00    +0.000 A 
ATOM      8  O   UNL     1       1.774  10.289  17.584  0.00  0.00    +0.000 OA
ATOM      9  C   UNL     1       1.130   9.638  19.760  0.00  0.00    +0.000 A 
ATOM     10  C   UNL     1       0.546  10.872  20.068  0.00  0.00    +0.000 A 
ATOM     11  C   UNL     1      -0.021  11.065  21.326  0.00  0.00    +0.000 A 
ATOM     12  C   UNL     1       0.013  10.029  22.256  0.00  0.00    +0.000 A 
ATOM     13  F   UNL     1      -0.527  10.220  23.467  0.00  0.00    +0.000 F 
ATOM     14  C   UNL     1       0.593   8.798  21.954  0.00  0.00    +0.000 A 
ATOM     15  C   UNL     1       1.148   8.597  20.690  0.00  0.00    +0.000 A 
ATOM     16  O   UNL     1       1.688   7.359  20.418  0.00  0.00    +0.000 OA
ENDBRANCH   2   5
BRANCH   3  17
ATOM     17  C   UNL     1       4.320   4.573  17.325  0.00  0.00    +0.000 C 
BRANCH  17  18
ATOM     18  C   UNL     1       5.635   4.457  18.115  0.00  0.00    +0.000 C 
ATOM     19  C   UNL     1       5.972   5.666  19.021  0.00  0.00    +0.000 C 
ATOM     20  C   UNL     1       7.392   6.061  18.563  0.00  0.00    +0.000 C 
ATOM     21  C   UNL     1       7.300   6.718  17.174  0.00  0.00    +0.000 C 
ATOM     22  C   UNL     1       7.033   5.524  16.246  0.00  0.00    +0.000 C 
ATOM     23  C   UNL     1       6.907   4.344  17.228  0.00  0.00    +0.000 C 
ATOM     24  C   UNL     1       8.014   4.706  18.231  0.00  0.00    +0.000 C 
BRANCH  18  25
ATOM     25  O   UNL     1       5.558   3.271  18.924  0.00  0.00    +0.000 OA
ATOM     26  H   UNL     1       4.897   2.691  18.507  0.00  0.00    +0.000 HD
ENDBRANCH  18  25
ENDBRANCH  17  18
ENDBRANCH   3  17
TORSDOF 4
ENDMDL
MODEL 6
REMARK VINA RESULT:      -7.8      1.434      1.967
REMARK  Name = 
REMARK  4 active torsions:
REMARK  status: ('A' for Active; 'I' for Inactive)
REMARK    1  A    between atoms: C_2  and  C_13
REMARK    2  A    between atoms: N_3  and  C_4
REMARK    3  A    between atoms: C_4  and  C_5
REMARK    4  A    between atoms: C_5  and  O_6
REMARK                            x       y       z     vdW  Elec       q    Type
REMARK                         _______ _______ _______ _____ _____    ______ ____
ROOT
ATOM      1  O   UNL     1       2.982   7.328  18.527  0.00  0.00    +0.000 OA
ATOM      2  C   UNL     1       2.413   7.293  19.613  0.00  0.00    +0.000 C 
ATOM      3  N   UNL     1       2.548   6.246  20.497  0.00  0.00    +0.000 N 
ATOM      4  H   UNL     1       1.964   6.224  21.324  0.00  0.00    +0.000 HD
ENDROOT
BRANCH   2   5
ATOM      5  C   UNL     1       1.486   8.386  20.050  0.00  0.00    +0.000 A 
ATOM      6  C   UNL     1       1.002   8.282  21.296  0.00  0.00    +0.000 A 
ATOM      7  C   UNL     1       0.104   9.320  21.809  0.00  0.00    +0.000 A 
ATOM      8  O   UNL     1      -0.368   9.251  22.934  0.00  0.00    +0.000 OA
ATOM      9  C   UNL     1      -0.187  10.439  20.902  0.00  0.00    +0.000 A 
ATOM     10  C   UNL     1      -1.002  11.495  21.328  0.00  0.00    +0.000 A 
ATOM     11  C   UNL     1      -1.267  12.548  20.455  0.00  0.00    +0.000 A 
ATOM     12  C   UNL     1      -0.724  12.526  19.173  0.00  0.00    +0.000 A 
ATOM     13  F   UNL     1      -0.986  13.537  18.335  0.00  0.00    +0.000 F 
ATOM     14  C   UNL     1       0.089  11.476  18.745  0.00  0.00    +0.000 A 
ATOM     15  C   UNL     1       0.368  10.428  19.621  0.00  0.00    +0.000 A 
ATOM     16  O   UNL     1       1.196   9.423  19.172  0.00  0.00    +0.000 OA
ENDBRANCH   2   5
BRANCH   3  17
ATOM     17  C   UNL     1       3.247   5.028  20.097  0.00  0.00    +0.000 C 
BRANCH  17  18
ATOM     18  C   UNL     1       2.347   3.780  20.071  0.00  0.00    +0.000 C 
ATOM     19  C   UNL     1       3.069   2.449  19.756  0.00  0.00    +0.000 C 
ATOM     20  C   UNL     1       2.263   1.885  18.567  0.00  0.00    +0.000 C 
ATOM     21  C   UNL     1       2.575   2.723  17.315  0.00  0.00    +0.000 C 
ATOM     22  C   UNL     1       1.809   4.028  17.574  0.00  0.00    +0.000 C 
ATOM     23  C   UNL     1       1.233   3.816  18.986  0.00  0.00    +0.000 C 
ATOM     24  C   UNL     1       0.840   2.333  18.900  0.00  0.00    +0.000 C 
BRANCH  18  25
ATOM     25  O   UNL     1       1.706   3.675  21.354  0.00  0.00    +0.000 OA
ATOM     26  H   UNL     1       2.061   4.396  21.903  0.00  0.00    +0.000 HD
ENDBRANCH  18  25
ENDBRANCH  17  18
ENDBRANCH   3  17
TORSDOF 4
ENDMDL
MODEL 7
REMARK VINA RESULT:      -7.8      1.261      1.470
REMARK  Name = 
REMARK  4 active torsions:
REMARK  status: ('A' for Active; 'I' for Inactive)
REMARK    1  A    between atoms: C_2  and  C_13
REMARK    2  A    between atoms: N_3  and  C_4
REMARK    3  A    between atoms: C_4  and  C_5
REMARK    4  A    between atoms: C_5  and  O_6
REMARK                            x       y       z     vdW  Elec       q    Type
REMARK                         _______ _______ _______ _____ _____    ______ ____
ROOT
ATOM      1  O   UNL     1       3.233   7.334  18.039  0.00  0.00    +0.000 OA
ATOM      2  C   UNL     1       2.745   7.256  19.161  0.00  0.00    +0.000 C 
ATOM      3  N   UNL     1       3.015   6.221  20.027  0.00  0.00    +0.000 N 
ATOM      4  H   UNL     1       2.492   6.155  20.892  0.00  0.00    +0.000 HD
ENDROOT
BRANCH   2   5
ATOM      5  C   UNL     1       1.772   8.279  19.667  0.00  0.00    +0.000 A 
ATOM      6  C   UNL     1       1.271   8.056  20.890  0.00  0.00    +0.000 A 
ATOM      7  C   UNL     1       0.329   9.018  21.469  0.00  0.00    +0.000 A 
ATOM      8  O   UNL     1      -0.159   8.842  22.575  0.00  0.00    +0.000 OA
ATOM      9  C   UNL     1       0.016  10.198  20.651  0.00  0.00    +0.000 A 
ATOM     10  C   UNL     1      -0.842  11.188  21.145  0.00  0.00    +0.000 A 
ATOM     11  C   UNL     1      -1.127  12.301  20.357  0.00  0.00    +0.000 A 
ATOM     12  C   UNL     1      -0.561  12.402  19.088  0.00  0.00    +0.000 A 
ATOM     13  F   UNL     1      -0.843  13.470  18.330  0.00  0.00    +0.000 F 
ATOM     14  C   UNL     1       0.294  11.419  18.592  0.00  0.00    +0.000 A 
ATOM     15  C   UNL     1       0.594  10.312  19.385  0.00  0.00    +0.000 A 
ATOM     16  O   UNL     1       1.463   9.374  18.872  0.00  0.00    +0.000 OA
ENDBRANCH   2   5
BRANCH   3  17
ATOM     17  C   UNL     1       3.771   5.057  19.572  0.00  0.00    +0.000 C 
BRANCH  17  18
ATOM     18  C   UNL     1       2.890   3.943  18.980  0.00  0.00    +0.000 C 
ATOM     19  C   UNL     1       1.365   4.184  19.076  0.00  0.00    +0.000 C 
ATOM     20  C   UNL     1       0.852   2.908  19.775  0.00  0.00    +0.000 C 
ATOM     21  C   UNL     1       1.275   2.947  21.254  0.00  0.00    +0.000 C 
ATOM     22  C   UNL     1       2.779   2.642  21.189  0.00  0.00    +0.000 C 
ATOM     23  C   UNL     1       3.051   2.561  19.676  0.00  0.00    +0.000 C 
ATOM     24  C   UNL     1       1.780   1.834  19.210  0.00  0.00    +0.000 C 
BRANCH  18  25
ATOM     25  O   UNL     1       3.255   3.783  17.598  0.00  0.00    +0.000 OA
ATOM     26  H   UNL     1       2.809   4.495  17.108  0.00  0.00    +0.000 HD
ENDBRANCH  18  25
ENDBRANCH  17  18
ENDBRANCH   3  17
TORSDOF 4
ENDMDL
MODEL 8
REMARK VINA RESULT:      -7.8      1.869      3.034
REMARK  Name = 
REMARK  4 active torsions:
REMARK  status: ('A' for Active; 'I' for Inactive)
REMARK    1  A    between atoms: C_2  and  C_13
REMARK    2  A    between atoms: N_3  and  C_4
REMARK    3  A    between atoms: C_4  and  C_5
REMARK    4  A    between atoms: C_5  and  O_6
REMARK                            x       y       z     vdW  Elec       q    Type
REMARK                         _______ _______ _______ _____ _____    ______ ____
ROOT
ATOM      1  O   UNL     1       1.590   5.375  20.869  0.00  0.00    +0.000 OA
ATOM      2  C   UNL     1       2.268   6.178  20.236  0.00  0.00    +0.000 C 
ATOM      3  N   UNL     1       3.511   5.875  19.728  0.00  0.00    +0.000 N 
ATOM      4  H   UNL     1       4.067   6.614  19.316  0.00  0.00    +0.000 HD
ENDROOT
BRANCH   2   5
ATOM      5  C   UNL     1       1.802   7.582  19.996  0.00  0.00    +0.000 A 
ATOM      6  C   UNL     1       2.100   8.102  18.797  0.00  0.00    +0.000 A 
ATOM      7  C   UNL     1       1.663   9.463  18.472  0.00  0.00    +0.000 A 
ATOM      8  O   UNL     1       1.928   9.975  17.395  0.00  0.00    +0.000 OA
ATOM      9  C   UNL     1       0.891  10.165  19.507  0.00  0.00    +0.000 A 
ATOM     10  C   UNL     1       0.399  11.452  19.264  0.00  0.00    +0.000 A 
ATOM     11  C   UNL     1      -0.333  12.103  20.256  0.00  0.00    +0.000 A 
ATOM     12  C   UNL     1      -0.552  11.463  21.473  0.00  0.00    +0.000 A 
ATOM     13  F   UNL     1      -1.250  12.094  22.426  0.00  0.00    +0.000 F 
ATOM     14  C   UNL     1      -0.064  10.180  21.720  0.00  0.00    +0.000 A 
ATOM     15  C   UNL     1       0.655   9.520  20.723  0.00  0.00    +0.000 A 
ATOM     16  O   UNL     1       1.098   8.244  20.993  0.00  0.00    +0.000 OA
ENDBRANCH   2   5
BRANCH   3  17
ATOM     17  C   UNL     1       4.165   4.616  20.080  0.00  0.00    +0.000 C 
BRANCH  17  18
ATOM     18  C   UNL     1       4.239   3.614  18.915  0.00  0.00    +0.000 C 
ATOM     19  C   UNL     1       3.463   4.022  17.640  0.00  0.00    +0.000 C 
ATOM     20  C   UNL     1       2.554   2.804  17.378  0.00  0.00    +0.000 C 
ATOM     21  C   UNL     1       1.438   2.781  18.437  0.00  0.00    +0.000 C 
ATOM     22  C   UNL     1       2.172   2.310  19.701  0.00  0.00    +0.000 C 
ATOM     23  C   UNL     1       3.637   2.215  19.234  0.00  0.00    +0.000 C 
ATOM     24  C   UNL     1       3.436   1.639  17.824  0.00  0.00    +0.000 C 
BRANCH  18  25
ATOM     25  O   UNL     1       5.625   3.429  18.583  0.00  0.00    +0.000 OA
ATOM     26  H   UNL     1       6.141   3.869  19.280  0.00  0.00    +0.000 HD
ENDBRANCH  18  25
ENDBRANCH  17  18
ENDBRANCH   3  17
TORSDOF 4
ENDMDL
MODEL 9
REMARK VINA RESULT:      -7.7      1.681      2.612
REMARK  Name = 
REMARK  4 active torsions:
REMARK  status: ('A' for Active; 'I' for Inactive)
REMARK    1  A    between atoms: C_2  and  C_13
REMARK    2  A    between atoms: N_3  and  C_4
REMARK    3  A    between atoms: C_4  and  C_5
REMARK    4  A    between atoms: C_5  and  O_6
REMARK                            x       y       z     vdW  Elec       q    Type
REMARK                         _______ _______ _______ _____ _____    ______ ____
ROOT
ATOM      1  O   UNL     1       2.521   7.216  17.826  0.00  0.00    +0.000 OA
ATOM      2  C   UNL     1       2.339   7.472  19.011  0.00  0.00    +0.000 C 
ATOM      3  N   UNL     1       2.714   6.623  20.028  0.00  0.00    +0.000 N 
ATOM      4  H   UNL     1       2.434   6.839  20.977  0.00  0.00    +0.000 HD
ENDROOT
BRANCH   2   5
ATOM      5  C   UNL     1       1.652   8.731  19.447  0.00  0.00    +0.000 A 
ATOM      6  C   UNL     1       1.777   9.782  18.624  0.00  0.00    +0.000 A 
ATOM      7  C   UNL     1       1.119  11.046  18.965  0.00  0.00    +0.000 A 
ATOM      8  O   UNL     1       1.222  12.029  18.247  0.00  0.00    +0.000 OA
ATOM      9  C   UNL     1       0.330  11.058  20.205  0.00  0.00    +0.000 A 
ATOM     10  C   UNL     1      -0.366  12.212  20.584  0.00  0.00    +0.000 A 
ATOM     11  C   UNL     1      -1.109  12.206  21.763  0.00  0.00    +0.000 A 
ATOM     12  C   UNL     1      -1.137  11.055  22.546  0.00  0.00    +0.000 A 
ATOM     13  F   UNL     1      -1.847  11.054  23.682  0.00  0.00    +0.000 F 
ATOM     14  C   UNL     1      -0.446   9.903  22.173  0.00  0.00    +0.000 A 
ATOM     15  C   UNL     1       0.287   9.901  20.986  0.00  0.00    +0.000 A 
ATOM     16  O   UNL     1       0.934   8.737  20.636  0.00  0.00    +0.000 OA
ENDBRANCH   2   5
BRANCH   3  17
ATOM     17  C   UNL     1       3.193   5.276  19.726  0.00  0.00    +0.000 C 
BRANCH  17  18
ATOM     18  C   UNL     1       2.092   4.203  19.784  0.00  0.00    +0.000 C 
ATOM     19  C   UNL     1       2.549   2.812  20.282  0.00  0.00    +0.000 C 
ATOM     20  C   UNL     1       2.085   1.866  19.155  0.00  0.00    +0.000 C 
ATOM     21  C   UNL     1       2.987   2.079  17.926  0.00  0.00    +0.000 C 
ATOM     22  C   UNL     1       2.503   3.427  17.373  0.00  0.00    +0.000 C 
ATOM     23  C   UNL     1       1.451   3.868  18.408  0.00  0.00    +0.000 C 
ATOM     24  C   UNL     1       0.779   2.518  18.703  0.00  0.00    +0.000 C 
BRANCH  18  25
ATOM     25  O   UNL     1       1.049   4.691  20.646  0.00  0.00    +0.000 OA
ATOM     26  H   UNL     1       1.276   4.406  21.548  0.00  0.00    +0.000 HD
ENDBRANCH  18  25
ENDBRANCH  17  18
ENDBRANCH   3  17
TORSDOF 4
ENDMDL
