MODEL 1
REMARK VINA RESULT:      -8.7      0.000      0.000
REMARK  Name = 
REMARK  5 active torsions:
REMARK  status: ('A' for Active; 'I' for Inactive)
REMARK    1  A    between atoms: C_1  and  N_2
REMARK    2  A    between atoms: C_6  and  C_7
REMARK    3  A    between atoms: C_7  and  C_8
REMARK    4  A    between atoms: C_8  and  C_9
REMARK    5  A    between atoms: C_13  and  N_14
REMARK                            x       y       z     vdW  Elec       q    Type
REMARK                         _______ _______ _______ _____ _____    ______ ____
ROOT
ATOM      1  C   UNL     1       5.229   4.247  17.488  0.00  0.00    +0.000 A 
ATOM      2  C   UNL     1       5.689   4.357  18.815  0.00  0.00    +0.000 A 
ATOM      3  C   UNL     1       5.254   3.482  19.799  0.00  0.00    +0.000 A 
ATOM      4  C   UNL     1       4.244   2.578  19.507  0.00  0.00    +0.000 A 
ATOM      5  C   UNL     1       3.510   2.741  18.326  0.00  0.00    +0.000 A 
ATOM      6  C   UNL     1       4.106   3.427  17.270  0.00  0.00    +0.000 A 
ENDROOT
BRANCH   5   7
ATOM      7  N   UNL     1       2.047   2.730  18.389  0.00  0.00    +0.000 N 
ATOM      8  C   UNL     1       1.498   3.793  17.500  0.00  0.00    +0.000 C 
ATOM      9  C   UNL     1       1.502   4.980  18.421  0.00  0.00    +0.000 A 
ATOM     10  C   UNL     1       1.977   6.259  18.183  0.00  0.00    +0.000 A 
ATOM     11  C   UNL     1       2.297   7.048  19.294  0.00  0.00    +0.000 A 
ATOM     12  C   UNL     1       2.106   6.574  20.606  0.00  0.00    +0.000 A 
ATOM     13  C   UNL     1       1.611   5.290  20.837  0.00  0.00    +0.000 A 
ATOM     14  C   UNL     1       1.343   4.505  19.721  0.00  0.00    +0.000 A 
ATOM     15  C   UNL     1       1.509   3.028  19.677  0.00  0.00    +0.000 C 
ATOM     16  O   UNL     1       1.426   2.297  20.645  0.00  0.00    +0.000 OA
ENDBRANCH   5   7
BRANCH   1  17
ATOM     17  C   UNL     1       5.962   5.016  16.314  0.00  0.00    +0.000 C 
ATOM     18  C   UNL     1       5.330   6.336  15.804  0.00  0.00    +0.000 C 
ATOM     19  O   UNL     1       6.332   7.074  16.531  0.00  0.00    +0.000 OA
ATOM     20  O   UNL     1       7.079   5.836  16.799  0.00  0.00    +0.000 OA
BRANCH  17  21
ATOM     21  C   UNL     1       6.513   3.984  15.311  0.00  0.00    +0.000 C 
BRANCH  21  27
ATOM     22  C   UNL     1       5.746   3.239  12.285  0.00  0.00    +0.000 C 
ATOM     23  N   UNL     1       6.704   4.215  12.753  0.00  0.00    +0.000 N 
ATOM     24  C   UNL     1       7.479   4.968  11.930  0.00  0.00    +0.000 A 
ATOM     25  N   UNL     1       8.249   5.759  12.652  0.00  0.00    +0.000 NA
ATOM     26  N   UNL     1       7.961   5.514  13.975  0.00  0.00    +0.000 NA
ATOM     27  C   UNL     1       7.038   4.573  14.039  0.00  0.00    +0.000 A 
ENDBRANCH  21  27
ENDBRANCH  17  21
ENDBRANCH   1  17
TORSDOF 4
ENDMDL
MODEL 2
REMARK VINA RESULT:      -8.6      1.637      3.176
REMARK  Name = 
REMARK  5 active torsions:
REMARK  status: ('A' for Active; 'I' for Inactive)
REMARK    1  A    between atoms: C_1  and  N_2
REMARK    2  A    between atoms: C_6  and  C_7
REMARK    3  A    between atoms: C_7  and  C_8
REMARK    4  A    between atoms: C_8  and  C_9
REMARK    5  A    between atoms: C_13  and  N_14
REMARK                            x       y       z     vdW  Elec       q    Type
REMARK                         _______ _______ _______ _____ _____    ______ ____
ROOT
ATOM      1  C   UNL     1       4.807   5.732  17.791  0.00  0.00    +0.000 A 
ATOM      2  C   UNL     1       4.390   6.889  17.103  0.00  0.00    +0.000 A 
ATOM      3  C   UNL     1       3.346   7.668  17.578  0.00  0.00    +0.000 A 
ATOM      4  C   UNL     1       2.607   7.225  18.665  0.00  0.00    +0.000 A 
ATOM      5  C   UNL     1       2.754   5.899  19.089  0.00  0.00    +0.000 A 
ATOM      6  C   UNL     1       3.944   5.241  18.789  0.00  0.00    +0.000 A 
ENDROOT
BRANCH   5   7
ATOM      7  N   UNL     1       1.557   5.080  19.294  0.00  0.00    +0.000 N 
ATOM      8  C   UNL     1       1.683   4.318  20.568  0.00  0.00    +0.000 C 
ATOM      9  C   UNL     1       2.413   3.088  20.108  0.00  0.00    +0.000 A 
ATOM     10  C   UNL     1       3.528   2.484  20.665  0.00  0.00    +0.000 A 
ATOM     11  C   UNL     1       4.295   1.653  19.839  0.00  0.00    +0.000 A 
ATOM     12  C   UNL     1       3.926   1.411  18.502  0.00  0.00    +0.000 A 
ATOM     13  C   UNL     1       2.791   2.010  17.954  0.00  0.00    +0.000 A 
ATOM     14  C   UNL     1       2.069   2.868  18.776  0.00  0.00    +0.000 A 
ATOM     15  C   UNL     1       1.350   4.078  18.298  0.00  0.00    +0.000 C 
ATOM     16  O   UNL     1       0.905   4.216  17.175  0.00  0.00    +0.000 OA
ENDBRANCH   5   7
BRANCH   1  17
ATOM     17  C   UNL     1       6.186   5.039  17.442  0.00  0.00    +0.000 C 
ATOM     18  C   UNL     1       7.483   5.870  17.615  0.00  0.00    +0.000 C 
ATOM     19  O   UNL     1       7.756   5.153  18.835  0.00  0.00    +0.000 OA
ATOM     20  O   UNL     1       6.679   4.197  18.540  0.00  0.00    +0.000 OA
BRANCH  17  21
ATOM     21  C   UNL     1       5.995   4.152  16.195  0.00  0.00    +0.000 C 
BRANCH  21  27
ATOM     22  C   UNL     1       5.421   3.444  13.118  0.00  0.00    +0.000 C 
ATOM     23  N   UNL     1       6.452   4.297  13.665  0.00  0.00    +0.000 N 
ATOM     24  C   UNL     1       7.394   4.921  12.911  0.00  0.00    +0.000 A 
ATOM     25  N   UNL     1       8.192   5.621  13.694  0.00  0.00    +0.000 NA
ATOM     26  N   UNL     1       7.752   5.447  14.987  0.00  0.00    +0.000 NA
ATOM     27  C   UNL     1       6.710   4.637  14.973  0.00  0.00    +0.000 A 
ENDBRANCH  21  27
ENDBRANCH  17  21
ENDBRANCH   1  17
TORSDOF 4
ENDMDL
MODEL 3
REMARK VINA RESULT:      -8.1      1.038      1.565
REMARK  Name = 
REMARK  5 active torsions:
REMARK  status: ('A' for Active; 'I' for Inactive)
REMARK    1  A    between atoms: C_1  and  N_2
REMARK    2  A    between atoms: C_6  and  C_7
REMARK    3  A    between atoms: C_7  and  C_8
REMARK    4  A    between atoms: C_8  and  C_9
REMARK    5  A    between atoms: C_13  and  N_14
REMARK                            x       y       z     vdW  Elec       q    Type
REMARK                         _______ _______ _______ _____ _____    ______ ____
ROOT
ATOM      1  C   UNL     1       5.000   4.284  17.172  0.00  0.00    +0.000 A 
ATOM      2  C   UNL     1       5.392   3.609  18.345  0.00  0.00    +0.000 A 
ATOM      3  C   UNL     1       4.641   2.560  18.853  0.00  0.00    +0.000 A 
ATOM      4  C   UNL     1       3.412   2.264  18.282  0.00  0.00    +0.000 A 
ATOM      5  C   UNL     1       2.841   3.182  17.392  0.00  0.00    +0.000 A 
ATOM      6  C   UNL     1       3.687   4.059  16.718  0.00  0.00    +0.000 A 
ENDROOT
BRANCH   5   7
ATOM      7  N   UNL     1       1.451   3.599  17.594  0.00  0.00    +0.000 N 
ATOM      8  C   UNL     1       1.418   4.967  18.184  0.00  0.00    +0.000 C 
ATOM      9  C   UNL     1       1.510   4.658  19.652  0.00  0.00    +0.000 A 
ATOM     10  C   UNL     1       2.339   5.224  20.606  0.00  0.00    +0.000 A 
ATOM     11  C   UNL     1       2.581   4.490  21.773  0.00  0.00    +0.000 A 
ATOM     12  C   UNL     1       1.971   3.237  21.986  0.00  0.00    +0.000 A 
ATOM     13  C   UNL     1       1.123   2.683  21.028  0.00  0.00    +0.000 A 
ATOM     14  C   UNL     1       0.933   3.406  19.856  0.00  0.00    +0.000 A 
ATOM     15  C   UNL     1       0.720   2.793  18.518  0.00  0.00    +0.000 C 
ATOM     16  O   UNL     1       0.228   1.697  18.334  0.00  0.00    +0.000 OA
ENDBRANCH   5   7
BRANCH   1  17
ATOM     17  C   UNL     1       6.009   5.243  16.417  0.00  0.00    +0.000 C 
ATOM     18  C   UNL     1       5.437   6.517  15.747  0.00  0.00    +0.000 C 
ATOM     19  O   UNL     1       5.954   7.301  16.840  0.00  0.00    +0.000 OA
ATOM     20  O   UNL     1       6.713   6.145  17.339  0.00  0.00    +0.000 OA
BRANCH  17  21
ATOM     21  C   UNL     1       7.055   4.383  15.681  0.00  0.00    +0.000 C 
BRANCH  21  27
ATOM     22  C   UNL     1       5.602   3.435  12.982  0.00  0.00    +0.000 C 
ATOM     23  N   UNL     1       6.699   4.365  13.131  0.00  0.00    +0.000 N 
ATOM     24  C   UNL     1       7.322   4.971  12.087  0.00  0.00    +0.000 A 
ATOM     25  N   UNL     1       8.279   5.756  12.542  0.00  0.00    +0.000 NA
ATOM     26  N   UNL     1       8.271   5.657  13.915  0.00  0.00    +0.000 NA
ATOM     27  C   UNL     1       7.327   4.807  14.272  0.00  0.00    +0.000 A 
ENDBRANCH  21  27
ENDBRANCH  17  21
ENDBRANCH   1  17
TORSDOF 4
ENDMDL
MODEL 4
REMARK VINA RESULT:      -8.1      1.758      2.791
REMARK  Name = 
REMARK  5 active torsions:
REMARK  status: ('A' for Active; 'I' for Inactive)
REMARK    1  A    between atoms: C_1  and  N_2
REMARK    2  A    between atoms: C_6  and  C_7
REMARK    3  A    between atoms: C_7  and  C_8
REMARK    4  A    between atoms: C_8  and  C_9
REMARK    5  A    between atoms: C_13  and  N_14
REMARK                            x       y       z     vdW  Elec       q    Type
REMARK                         _______ _______ _______ _____ _____    ______ ____
ROOT
ATOM      1  C   UNL     1       5.474   6.111  17.473  0.00  0.00    +0.000 A 
ATOM      2  C   UNL     1       4.750   7.265  17.112  0.00  0.00    +0.000 A 
ATOM      3  C   UNL     1       3.410   7.402  17.442  0.00  0.00    +0.000 A 
ATOM      4  C   UNL     1       2.735   6.330  18.007  0.00  0.00    +0.000 A 
ATOM      5  C   UNL     1       3.337   5.066  17.988  0.00  0.00    +0.000 A 
ATOM      6  C   UNL     1       4.726   4.999  17.902  0.00  0.00    +0.000 A 
ENDROOT
BRANCH   5   7
ATOM      7  N   UNL     1       2.570   3.918  17.497  0.00  0.00    +0.000 N 
ATOM      8  C   UNL     1       1.164   4.010  17.983  0.00  0.00    +0.000 C 
ATOM      9  C   UNL     1       1.268   3.332  19.320  0.00  0.00    +0.000 A 
ATOM     10  C   UNL     1       0.788   3.759  20.547  0.00  0.00    +0.000 A 
ATOM     11  C   UNL     1       1.381   3.224  21.696  0.00  0.00    +0.000 A 
ATOM     12  C   UNL     1       2.403   2.258  21.609  0.00  0.00    +0.000 A 
ATOM     13  C   UNL     1       2.868   1.821  20.369  0.00  0.00    +0.000 A 
ATOM     14  C   UNL     1       2.299   2.398  19.239  0.00  0.00    +0.000 A 
ATOM     15  C   UNL     1       3.030   2.653  17.970  0.00  0.00    +0.000 C 
ATOM     16  O   UNL     1       3.989   2.011  17.587  0.00  0.00    +0.000 OA
ENDBRANCH   5   7
BRANCH   1  17
ATOM     17  C   UNL     1       7.055   6.094  17.394  0.00  0.00    +0.000 C 
ATOM     18  C   UNL     1       7.787   7.440  17.162  0.00  0.00    +0.000 C 
ATOM     19  O   UNL     1       8.140   7.466  18.559  0.00  0.00    +0.000 OA
ATOM     20  O   UNL     1       7.678   6.080  18.725  0.00  0.00    +0.000 OA
BRANCH  17  21
ATOM     21  C   UNL     1       7.501   4.829  16.634  0.00  0.00    +0.000 C 
BRANCH  21  27
ATOM     22  C   UNL     1       5.277   3.434  14.788  0.00  0.00    +0.000 C 
ATOM     23  N   UNL     1       6.379   4.277  14.382  0.00  0.00    +0.000 N 
ATOM     24  C   UNL     1       6.661   4.582  13.089  0.00  0.00    +0.000 A 
ATOM     25  N   UNL     1       7.721   5.364  13.042  0.00  0.00    +0.000 NA
ATOM     26  N   UNL     1       8.134   5.573  14.338  0.00  0.00    +0.000 NA
ATOM     27  C   UNL     1       7.333   4.906  15.148  0.00  0.00    +0.000 A 
ENDBRANCH  21  27
ENDBRANCH  17  21
ENDBRANCH   1  17
TORSDOF 4
ENDMDL
MODEL 5
REMARK VINA RESULT:      -7.9      0.671      1.223
REMARK  Name = 
REMARK  5 active torsions:
REMARK  status: ('A' for Active; 'I' for Inactive)
REMARK    1  A    between atoms: C_1  and  N_2
REMARK    2  A    between atoms: C_6  and  C_7
REMARK    3  A    between atoms: C_7  and  C_8
REMARK    4  A    between atoms: C_8  and  C_9
REMARK    5  A    between atoms: C_13  and  N_14
REMARK                            x       y       z     vdW  Elec       q    Type
REMARK                         _______ _______ _______ _____ _____    ______ ____
ROOT
ATOM      1  C   UNL     1       5.396   4.551  17.348  0.00  0.00    +0.000 A 
ATOM      2  C   UNL     1       5.801   4.637  18.695  0.00  0.00    +0.000 A 
ATOM      3  C   UNL     1       5.386   3.701  19.630  0.00  0.00    +0.000 A 
ATOM      4  C   UNL     1       4.444   2.749  19.267  0.00  0.00    +0.000 A 
ATOM      5  C   UNL     1       3.743   2.913  18.066  0.00  0.00    +0.000 A 
ATOM      6  C   UNL     1       4.333   3.674  17.059  0.00  0.00    +0.000 A 
ENDROOT
BRANCH   5   7
ATOM      7  N   UNL     1       2.282   2.813  18.074  0.00  0.00    +0.000 N 
ATOM      8  C   UNL     1       1.698   3.926  17.274  0.00  0.00    +0.000 C 
ATOM      9  C   UNL     1       1.601   5.014  18.305  0.00  0.00    +0.000 A 
ATOM     10  C   UNL     1       2.006   6.335  18.211  0.00  0.00    +0.000 A 
ATOM     11  C   UNL     1       2.243   7.027  19.405  0.00  0.00    +0.000 A 
ATOM     12  C   UNL     1       2.040   6.413  20.657  0.00  0.00    +0.000 A 
ATOM     13  C   UNL     1       1.616   5.088  20.742  0.00  0.00    +0.000 A 
ATOM     14  C   UNL     1       1.431   4.403  19.547  0.00  0.00    +0.000 A 
ATOM     15  C   UNL     1       1.687   2.950  19.364  0.00  0.00    +0.000 C 
ATOM     16  O   UNL     1       1.619   2.123  20.252  0.00  0.00    +0.000 OA
ENDBRANCH   5   7
BRANCH   1  17
ATOM     17  C   UNL     1       6.121   5.407  16.231  0.00  0.00    +0.000 C 
ATOM     18  C   UNL     1       5.265   6.406  15.412  0.00  0.00    +0.000 C 
ATOM     19  O   UNL     1       5.813   7.486  16.194  0.00  0.00    +0.000 OA
ATOM     20  O   UNL     1       6.807   6.580  16.789  0.00  0.00    +0.000 OA
BRANCH  17  21
ATOM     21  C   UNL     1       7.165   4.520  15.525  0.00  0.00    +0.000 C 
BRANCH  21  27
ATOM     22  C   UNL     1       8.480   5.746  12.867  0.00  0.00    +0.000 C 
ATOM     23  N   UNL     1       7.419   4.771  12.974  0.00  0.00    +0.000 N 
ATOM     24  C   UNL     1       6.773   4.236  11.905  0.00  0.00    +0.000 A 
ATOM     25  N   UNL     1       5.860   3.383  12.325  0.00  0.00    +0.000 NA
ATOM     26  N   UNL     1       5.919   3.362  13.700  0.00  0.00    +0.000 NA
ATOM     27  C   UNL     1       6.850   4.210  14.094  0.00  0.00    +0.000 A 
ENDBRANCH  21  27
ENDBRANCH  17  21
ENDBRANCH   1  17
TORSDOF 4
ENDMDL
MODEL 6
REMARK VINA RESULT:      -7.8      2.376      4.263
REMARK  Name = 
REMARK  5 active torsions:
REMARK  status: ('A' for Active; 'I' for Inactive)
REMARK    1  A    between atoms: C_1  and  N_2
REMARK    2  A    between atoms: C_6  and  C_7
REMARK    3  A    between atoms: C_7  and  C_8
REMARK    4  A    between atoms: C_8  and  C_9
REMARK    5  A    between atoms: C_13  and  N_14
REMARK                            x       y       z     vdW  Elec       q    Type
REMARK                         _______ _______ _______ _____ _____    ______ ____
ROOT
ATOM      1  C   UNL     1       4.642   5.652  16.956  0.00  0.00    +0.000 A 
ATOM      2  C   UNL     1       4.239   6.955  16.599  0.00  0.00    +0.000 A 
ATOM      3  C   UNL     1       3.491   7.736  17.467  0.00  0.00    +0.000 A 
ATOM      4  C   UNL     1       3.009   7.177  18.641  0.00  0.00    +0.000 A 
ATOM      5  C   UNL     1       3.059   5.787  18.800  0.00  0.00    +0.000 A 
ATOM      6  C   UNL     1       4.011   5.075  18.074  0.00  0.00    +0.000 A 
ENDROOT
BRANCH   5   7
ATOM      7  N   UNL     1       1.849   5.074  19.216  0.00  0.00    +0.000 N 
ATOM      8  C   UNL     1       2.077   4.428  20.540  0.00  0.00    +0.000 C 
ATOM      9  C   UNL     1       2.678   3.114  20.129  0.00  0.00    +0.000 A 
ATOM     10  C   UNL     1       3.813   2.490  20.619  0.00  0.00    +0.000 A 
ATOM     11  C   UNL     1       4.431   1.536  19.803  0.00  0.00    +0.000 A 
ATOM     12  C   UNL     1       3.897   1.195  18.545  0.00  0.00    +0.000 A 
ATOM     13  C   UNL     1       2.743   1.815  18.066  0.00  0.00    +0.000 A 
ATOM     14  C   UNL     1       2.170   2.793  18.871  0.00  0.00    +0.000 A 
ATOM     15  C   UNL     1       1.471   4.000  18.355  0.00  0.00    +0.000 C 
ATOM     16  O   UNL     1       0.909   4.061  17.279  0.00  0.00    +0.000 OA
ENDBRANCH   5   7
BRANCH   1  17
ATOM     17  C   UNL     1       5.755   4.896  16.123  0.00  0.00    +0.000 C 
ATOM     18  C   UNL     1       5.322   3.680  15.265  0.00  0.00    +0.000 C 
ATOM     19  O   UNL     1       5.404   4.506  14.087  0.00  0.00    +0.000 OA
ATOM     20  O   UNL     1       6.059   5.575  14.856  0.00  0.00    +0.000 OA
BRANCH  17  21
ATOM     21  C   UNL     1       7.046   4.831  16.963  0.00  0.00    +0.000 C 
BRANCH  21  27
ATOM     22  C   UNL     1       7.995   5.692  19.906  0.00  0.00    +0.000 C 
ATOM     23  N   UNL     1       7.928   6.504  18.711  0.00  0.00    +0.000 N 
ATOM     24  C   UNL     1       8.241   7.825  18.677  0.00  0.00    +0.000 A 
ATOM     25  N   UNL     1       8.079   8.285  17.452  0.00  0.00    +0.000 NA
ATOM     26  N   UNL     1       7.653   7.233  16.674  0.00  0.00    +0.000 NA
ATOM     27  C   UNL     1       7.548   6.160  17.435  0.00  0.00    +0.000 A 
ENDBRANCH  21  27
ENDBRANCH  17  21
ENDBRANCH   1  17
TORSDOF 4
ENDMDL
MODEL 7
REMARK VINA RESULT:      -7.7      2.669      4.408
REMARK  Name = 
REMARK  5 active torsions:
REMARK  status: ('A' for Active; 'I' for Inactive)
REMARK    1  A    between atoms: C_1  and  N_2
REMARK    2  A    between atoms: C_6  and  C_7
REMARK    3  A    between atoms: C_7  and  C_8
REMARK    4  A    between atoms: C_8  and  C_9
REMARK    5  A    between atoms: C_13  and  N_14
REMARK                            x       y       z     vdW  Elec       q    Type
REMARK                         _______ _______ _______ _____ _____    ______ ____
ROOT
ATOM      1  C   UNL     1       4.651   5.803  16.774  0.00  0.00    +0.000 A 
ATOM      2  C   UNL     1       4.298   7.143  16.519  0.00  0.00    +0.000 A 
ATOM      3  C   UNL     1       3.598   7.890  17.453  0.00  0.00    +0.000 A 
ATOM      4  C   UNL     1       3.112   7.269  18.595  0.00  0.00    +0.000 A 
ATOM      5  C   UNL     1       3.106   5.870  18.654  0.00  0.00    +0.000 A 
ATOM      6  C   UNL     1       4.015   5.174  17.861  0.00  0.00    +0.000 A 
ENDROOT
BRANCH   5   7
ATOM      7  N   UNL     1       1.874   5.179  19.042  0.00  0.00    +0.000 N 
ATOM      8  C   UNL     1       2.054   4.544  20.378  0.00  0.00    +0.000 C 
ATOM      9  C   UNL     1       2.646   3.217  19.998  0.00  0.00    +0.000 A 
ATOM     10  C   UNL     1       3.757   2.581  20.527  0.00  0.00    +0.000 A 
ATOM     11  C   UNL     1       4.385   1.610  19.739  0.00  0.00    +0.000 A 
ATOM     12  C   UNL     1       3.882   1.263  18.469  0.00  0.00    +0.000 A 
ATOM     13  C   UNL     1       2.752   1.896  17.951  0.00  0.00    +0.000 A 
ATOM     14  C   UNL     1       2.171   2.891  18.729  0.00  0.00    +0.000 A 
ATOM     15  C   UNL     1       1.505   4.102  18.181  0.00  0.00    +0.000 C 
ATOM     16  O   UNL     1       0.975   4.160  17.089  0.00  0.00    +0.000 OA
ENDBRANCH   5   7
BRANCH   1  17
ATOM     17  C   UNL     1       5.718   5.062  15.869  0.00  0.00    +0.000 C 
ATOM     18  C   UNL     1       5.576   3.531  15.682  0.00  0.00    +0.000 C 
ATOM     19  O   UNL     1       5.038   3.761  14.365  0.00  0.00    +0.000 OA
ATOM     20  O   UNL     1       5.410   5.181  14.437  0.00  0.00    +0.000 OA
BRANCH  17  21
ATOM     21  C   UNL     1       7.104   5.687  16.123  0.00  0.00    +0.000 C 
BRANCH  21  27
ATOM     22  C   UNL     1       7.872   8.263  17.875  0.00  0.00    +0.000 C 
ATOM     23  N   UNL     1       7.844   6.877  18.283  0.00  0.00    +0.000 N 
ATOM     24  C   UNL     1       8.192   6.448  19.524  0.00  0.00    +0.000 A 
ATOM     25  N   UNL     1       8.065   5.137  19.589  0.00  0.00    +0.000 NA
ATOM     26  N   UNL     1       7.620   4.708  18.359  0.00  0.00    +0.000 NA
ATOM     27  C   UNL     1       7.499   5.756  17.565  0.00  0.00    +0.000 A 
ENDBRANCH  21  27
ENDBRANCH  17  21
ENDBRANCH   1  17
TORSDOF 4
ENDMDL
MODEL 8
REMARK VINA RESULT:      -7.7      1.582      3.074
REMARK  Name = 
REMARK  5 active torsions:
REMARK  status: ('A' for Active; 'I' for Inactive)
REMARK    1  A    between atoms: C_1  and  N_2
REMARK    2  A    between atoms: C_6  and  C_7
REMARK    3  A    between atoms: C_7  and  C_8
REMARK    4  A    between atoms: C_8  and  C_9
REMARK    5  A    between atoms: C_13  and  N_14
REMARK                            x       y       z     vdW  Elec       q    Type
REMARK                         _______ _______ _______ _____ _____    ______ ____
ROOT
ATOM      1  C   UNL     1       4.665   5.608  18.179  0.00  0.00    +0.000 A 
ATOM      2  C   UNL     1       3.673   6.299  17.455  0.00  0.00    +0.000 A 
ATOM      3  C   UNL     1       2.616   6.921  18.102  0.00  0.00    +0.000 A 
ATOM      4  C   UNL     1       2.452   6.739  19.467  0.00  0.00    +0.000 A 
ATOM      5  C   UNL     1       3.187   5.734  20.109  0.00  0.00    +0.000 A 
ATOM      6  C   UNL     1       4.383   5.320  19.528  0.00  0.00    +0.000 A 
ENDROOT
BRANCH   5   7
ATOM      7  N   UNL     1       2.487   4.782  20.975  0.00  0.00    +0.000 N 
ATOM      8  C   UNL     1       3.371   3.616  21.255  0.00  0.00    +0.000 C 
ATOM      9  C   UNL     1       3.071   2.727  20.081  0.00  0.00    +0.000 A 
ATOM     10  C   UNL     1       3.957   2.073  19.242  0.00  0.00    +0.000 A 
ATOM     11  C   UNL     1       3.491   1.694  17.977  0.00  0.00    +0.000 A 
ATOM     12  C   UNL     1       2.158   1.934  17.588  0.00  0.00    +0.000 A 
ATOM     13  C   UNL     1       1.268   2.577  18.447  0.00  0.00    +0.000 A 
ATOM     14  C   UNL     1       1.762   2.988  19.680  0.00  0.00    +0.000 A 
ATOM     15  C   UNL     1       1.313   4.211  20.397  0.00  0.00    +0.000 C 
ATOM     16  O   UNL     1       0.213   4.713  20.279  0.00  0.00    +0.000 OA
ENDBRANCH   5   7
BRANCH   1  17
ATOM     17  C   UNL     1       6.026   5.190  17.486  0.00  0.00    +0.000 C 
ATOM     18  C   UNL     1       7.201   6.200  17.523  0.00  0.00    +0.000 C 
ATOM     19  O   UNL     1       7.818   5.414  18.562  0.00  0.00    +0.000 OA
ATOM     20  O   UNL     1       6.847   4.330  18.349  0.00  0.00    +0.000 OA
BRANCH  17  21
ATOM     21  C   UNL     1       5.707   4.419  16.190  0.00  0.00    +0.000 C 
BRANCH  21  27
ATOM     22  C   UNL     1       5.428   3.512  13.125  0.00  0.00    +0.000 C 
ATOM     23  N   UNL     1       6.436   4.359  13.721  0.00  0.00    +0.000 N 
ATOM     24  C   UNL     1       7.482   4.887  13.034  0.00  0.00    +0.000 A 
ATOM     25  N   UNL     1       8.225   5.608  13.850  0.00  0.00    +0.000 NA
ATOM     26  N   UNL     1       7.643   5.548  15.095  0.00  0.00    +0.000 NA
ATOM     27  C   UNL     1       6.570   4.783  15.023  0.00  0.00    +0.000 A 
ENDBRANCH  21  27
ENDBRANCH  17  21
ENDBRANCH   1  17
TORSDOF 4
ENDMDL
MODEL 9
REMARK VINA RESULT:      -7.6      8.881     12.582
REMARK  Name = 
REMARK  5 active torsions:
REMARK  status: ('A' for Active; 'I' for Inactive)
REMARK    1  A    between atoms: C_1  and  N_2
REMARK    2  A    between atoms: C_6  and  C_7
REMARK    3  A    between atoms: C_7  and  C_8
REMARK    4  A    between atoms: C_8  and  C_9
REMARK    5  A    between atoms: C_13  and  N_14
REMARK                            x       y       z     vdW  Elec       q    Type
REMARK                         _______ _______ _______ _____ _____    ______ ____
ROOT
ATOM      1  C   UNL     1      -3.865  11.475  18.118  0.00  0.00    +0.000 A 
ATOM      2  C   UNL     1      -3.756  11.003  16.794  0.00  0.00    +0.000 A 
ATOM      3  C   UNL     1      -2.694  10.202  16.405  0.00  0.00    +0.000 A 
ATOM      4  C   UNL     1      -1.649   9.980  17.289  0.00  0.00    +0.000 A 
ATOM      5  C   UNL     1      -1.557  10.770  18.441  0.00  0.00    +0.000 A 
ATOM      6  C   UNL     1      -2.722  11.357  18.931  0.00  0.00    +0.000 A 
ENDROOT
BRANCH   5   7
ATOM      7  N   UNL     1      -0.283  11.419  18.761  0.00  0.00    +0.000 N 
ATOM      8  C   UNL     1       0.719  10.390  19.157  0.00  0.00    +0.000 C 
ATOM      9  C   UNL     1       0.446  10.261  20.629  0.00  0.00    +0.000 A 
ATOM     10  C   UNL     1       0.275   9.110  21.380  0.00  0.00    +0.000 A 
ATOM     11  C   UNL     1      -0.409   9.227  22.596  0.00  0.00    +0.000 A 
ATOM     12  C   UNL     1      -0.872  10.475  23.057  0.00  0.00    +0.000 A 
ATOM     13  C   UNL     1      -0.680  11.632  22.301  0.00  0.00    +0.000 A 
ATOM     14  C   UNL     1      -0.040  11.488  21.075  0.00  0.00    +0.000 A 
ATOM     15  C   UNL     1      -0.338  12.311  19.873  0.00  0.00    +0.000 C 
ATOM     16  O   UNL     1      -0.775  13.445  19.907  0.00  0.00    +0.000 OA
ENDBRANCH   5   7
BRANCH   1  17
ATOM     17  C   UNL     1      -5.221  12.101  18.642  0.00  0.00    +0.000 C 
ATOM     18  C   UNL     1      -6.324  12.421  17.602  0.00  0.00    +0.000 C 
ATOM     19  O   UNL     1      -7.036  11.241  18.022  0.00  0.00    +0.000 OA
ATOM     20  O   UNL     1      -6.135  11.080  19.173  0.00  0.00    +0.000 OA
BRANCH  17  21
ATOM     21  C   UNL     1      -4.903  13.104  19.768  0.00  0.00    +0.000 C 
BRANCH  21  27
ATOM     22  C   UNL     1      -7.883  14.073  20.462  0.00  0.00    +0.000 C 
ATOM     23  N   UNL     1      -6.959  13.343  21.300  0.00  0.00    +0.000 N 
ATOM     24  C   UNL     1      -7.228  12.978  22.581  0.00  0.00    +0.000 A 
ATOM     25  N   UNL     1      -6.193  12.331  23.081  0.00  0.00    +0.000 NA
ATOM     26  N   UNL     1      -5.233  12.273  22.097  0.00  0.00    +0.000 NA
ATOM     27  C   UNL     1      -5.687  12.895  21.026  0.00  0.00    +0.000 A 
ENDBRANCH  21  27
ENDBRANCH  17  21
ENDBRANCH   1  17
TORSDOF 4
ENDMDL
