MODEL 1
REMARK VINA RESULT:      -7.7      0.000      0.000
REMARK  Name = 
REMARK  7 active torsions:
REMARK  status: ('A' for Active; 'I' for Inactive)
REMARK    1  A    between atoms: C_1  and  C_2
REMARK    2  A    between atoms: N_10  and  C_11
REMARK    3  A    between atoms: C_11  and  C_12
REMARK    4  A    between atoms: C_12  and  N_13
REMARK    5  A    between atoms: C_14  and  C_16
REMARK    6  A    between atoms: C_21  and  S_22
REMARK    7  A    between atoms: S_22  and  N_25
REMARK                            x       y       z     vdW  Elec       q    Type
REMARK                         _______ _______ _______ _____ _____    ______ ____
ROOT
ATOM      1  N   UNL     1       3.466   7.217  18.371  0.00  0.00    +0.000 N 
ATOM      2  C   UNL     1       2.523   8.226  18.268  0.00  0.00    +0.000 C 
ATOM      3  O   UNL     1       2.229   8.775  17.214  0.00  0.00    +0.000 OA
ATOM      4  H   UNL     1       3.459   6.650  19.210  0.00  0.00    +0.000 HD
ENDROOT
BRANCH   2   5
ATOM      5  C   UNL     1       1.778   8.573  19.506  0.00  0.00    +0.000 A 
ATOM      6  C   UNL     1       1.459   7.620  20.476  0.00  0.00    +0.000 A 
ATOM      7  C   UNL     1       0.710   7.998  21.595  0.00  0.00    +0.000 A 
ATOM      8  C   UNL     1       0.251   9.315  21.739  0.00  0.00    +0.000 A 
ATOM      9 CL   UNL     1      -0.727   9.649  23.122  0.00  0.00    +0.000 Cl
ATOM     10  C   UNL     1       0.574  10.268  20.767  0.00  0.00    +0.000 A 
ATOM     11  C   UNL     1       1.362   9.900  19.667  0.00  0.00    +0.000 A 
BRANCH  10  12
ATOM     12  S   UNL     1      -0.203  11.861  20.805  0.00  0.00    +0.000 S 
ATOM     13  O   UNL     1      -1.590  11.617  20.466  0.00  0.00    +0.000 OA
ATOM     14  O   UNL     1       0.188  12.537  22.022  0.00  0.00    +0.000 OA
BRANCH  12  15
ATOM     15  N   UNL     1       0.488  12.725  19.504  0.00  0.00    +0.000 NA
ATOM     16  C   UNL     1       1.593  13.664  19.818  0.00  0.00    +0.000 C 
ATOM     17  C   UNL     1       0.981  15.046  19.683  0.00  0.00    +0.000 C 
ATOM     18  C   UNL     1      -0.053  14.894  18.585  0.00  0.00    +0.000 C 
ATOM     19  C   UNL     1      -0.478  13.433  18.622  0.00  0.00    +0.000 C 
ENDBRANCH  12  15
ENDBRANCH  10  12
ENDBRANCH   2   5
BRANCH   1  20
ATOM     20  C   UNL     1       4.033   6.663  17.145  0.00  0.00    +0.000 C 
BRANCH  20  21
ATOM     21  C   UNL     1       3.743   5.175  16.951  0.00  0.00    +0.000 C 
BRANCH  21  31
ATOM     22  C   UNL     1       6.441   4.306  18.127  0.00  0.00    +0.000 C 
ATOM     23  C   UNL     1       5.113   4.014  18.722  0.00  0.00    +0.000 A 
ATOM     24  N   UNL     1       4.923   3.341  19.837  0.00  0.00    +0.000 NA
ATOM     25  C   UNL     1       3.568   3.311  20.032  0.00  0.00    +0.000 A 
ATOM     26  C   UNL     1       2.841   2.725  21.081  0.00  0.00    +0.000 A 
ATOM     27  C   UNL     1       1.447   2.830  21.071  0.00  0.00    +0.000 A 
ATOM     28  C   UNL     1       0.791   3.507  20.044  0.00  0.00    +0.000 A 
ATOM     29  C   UNL     1       1.502   4.098  18.984  0.00  0.00    +0.000 A 
ATOM     30  C   UNL     1       2.897   3.980  19.009  0.00  0.00    +0.000 A 
ATOM     31  N   UNL     1       3.910   4.414  18.176  0.00  0.00    +0.000 N 
ENDBRANCH  21  31
ENDBRANCH  20  21
ENDBRANCH   1  20
TORSDOF 6
ENDMDL
MODEL 2
REMARK VINA RESULT:      -7.7      3.797      8.471
REMARK  Name = 
REMARK  7 active torsions:
REMARK  status: ('A' for Active; 'I' for Inactive)
REMARK    1  A    between atoms: C_1  and  C_2
REMARK    2  A    between atoms: N_10  and  C_11
REMARK    3  A    between atoms: C_11  and  C_12
REMARK    4  A    between atoms: C_12  and  N_13
REMARK    5  A    between atoms: C_14  and  C_16
REMARK    6  A    between atoms: C_21  and  S_22
REMARK    7  A    between atoms: S_22  and  N_25
REMARK                            x       y       z     vdW  Elec       q    Type
REMARK                         _______ _______ _______ _____ _____    ______ ____
ROOT
ATOM      1  N   UNL     1       1.698   8.311  19.868  0.00  0.00    +0.000 N 
ATOM      2  C   UNL     1       1.296   7.250  20.660  0.00  0.00    +0.000 C 
ATOM      3  O   UNL     1       0.621   7.376  21.674  0.00  0.00    +0.000 OA
ATOM      4  H   UNL     1       2.020   8.105  18.931  0.00  0.00    +0.000 HD
ENDROOT
BRANCH   2   5
ATOM      5  C   UNL     1       1.640   5.888  20.176  0.00  0.00    +0.000 A 
ATOM      6  C   UNL     1       0.836   4.777  20.441  0.00  0.00    +0.000 A 
ATOM      7  C   UNL     1       1.240   3.512  20.003  0.00  0.00    +0.000 A 
ATOM      8  C   UNL     1       2.457   3.342  19.326  0.00  0.00    +0.000 A 
ATOM      9 CL   UNL     1       2.888   1.725  18.899  0.00  0.00    +0.000 Cl
ATOM     10  C   UNL     1       3.259   4.457  19.060  0.00  0.00    +0.000 A 
ATOM     11  C   UNL     1       2.833   5.732  19.460  0.00  0.00    +0.000 A 
BRANCH  10  12
ATOM     12  S   UNL     1       4.902   4.229  18.436  0.00  0.00    +0.000 S 
ATOM     13  O   UNL     1       5.544   3.327  19.370  0.00  0.00    +0.000 OA
ATOM     14  O   UNL     1       4.823   3.947  17.019  0.00  0.00    +0.000 OA
BRANCH  12  15
ATOM     15  N   UNL     1       5.659   5.750  18.606  0.00  0.00    +0.000 NA
ATOM     16  C   UNL     1       5.864   6.553  17.375  0.00  0.00    +0.000 C 
ATOM     17  C   UNL     1       7.352   6.466  17.095  0.00  0.00    +0.000 C 
ATOM     18  C   UNL     1       7.989   6.378  18.468  0.00  0.00    +0.000 C 
ATOM     19  C   UNL     1       6.936   5.747  19.369  0.00  0.00    +0.000 C 
ENDBRANCH  12  15
ENDBRANCH  10  12
ENDBRANCH   2   5
BRANCH   1  20
ATOM     20  C   UNL     1       1.166   9.640  20.158  0.00  0.00    +0.000 C 
BRANCH  20  21
ATOM     21  C   UNL     1       0.892  10.478  18.910  0.00  0.00    +0.000 C 
BRANCH  21  31
ATOM     22  C   UNL     1       0.249  12.912  20.667  0.00  0.00    +0.000 C 
ATOM     23  C   UNL     1      -0.704  12.243  19.747  0.00  0.00    +0.000 A 
ATOM     24  N   UNL     1      -1.955  12.612  19.565  0.00  0.00    +0.000 NA
ATOM     25  C   UNL     1      -2.471  11.749  18.636  0.00  0.00    +0.000 A 
ATOM     26  C   UNL     1      -3.763  11.714  18.086  0.00  0.00    +0.000 A 
ATOM     27  C   UNL     1      -4.061  10.734  17.137  0.00  0.00    +0.000 A 
ATOM     28  C   UNL     1      -3.095   9.811  16.737  0.00  0.00    +0.000 A 
ATOM     29  C   UNL     1      -1.797   9.828  17.279  0.00  0.00    +0.000 A 
ATOM     30  C   UNL     1      -1.517  10.816  18.231  0.00  0.00    +0.000 A 
ATOM     31  N   UNL     1      -0.395  11.148  18.965  0.00  0.00    +0.000 N 
ENDBRANCH  21  31
ENDBRANCH  20  21
ENDBRANCH   1  20
TORSDOF 6
ENDMDL
MODEL 3
REMARK VINA RESULT:      -7.7      3.681      8.656
REMARK  Name = 
REMARK  7 active torsions:
REMARK  status: ('A' for Active; 'I' for Inactive)
REMARK    1  A    between atoms: C_1  and  C_2
REMARK    2  A    between atoms: N_10  and  C_11
REMARK    3  A    between atoms: C_11  and  C_12
REMARK    4  A    between atoms: C_12  and  N_13
REMARK    5  A    between atoms: C_14  and  C_16
REMARK    6  A    between atoms: C_21  and  S_22
REMARK    7  A    between atoms: S_22  and  N_25
REMARK                            x       y       z     vdW  Elec       q    Type
REMARK                         _______ _______ _______ _____ _____    ______ ____
ROOT
ATOM      1  N   UNL     1       0.609   9.110  18.896  0.00  0.00    +0.000 N 
ATOM      2  C   UNL     1       1.823   8.939  18.253  0.00  0.00    +0.000 C 
ATOM      3  O   UNL     1       2.358   9.802  17.569  0.00  0.00    +0.000 OA
ATOM      4  H   UNL     1       0.371   8.462  19.636  0.00  0.00    +0.000 HD
ENDROOT
BRANCH   2   5
ATOM      5  C   UNL     1       2.537   7.660  18.506  0.00  0.00    +0.000 A 
ATOM      6  C   UNL     1       2.074   6.717  19.425  0.00  0.00    +0.000 A 
ATOM      7  C   UNL     1       2.818   5.556  19.658  0.00  0.00    +0.000 A 
ATOM      8  C   UNL     1       4.039   5.343  19.000  0.00  0.00    +0.000 A 
ATOM      9 CL   UNL     1       4.907   3.911  19.420  0.00  0.00    +0.000 Cl
ATOM     10  C   UNL     1       4.499   6.289  18.078  0.00  0.00    +0.000 A 
ATOM     11  C   UNL     1       3.732   7.432  17.811  0.00  0.00    +0.000 A 
BRANCH  10  12
ATOM     12  S   UNL     1       6.145   6.158  17.432  0.00  0.00    +0.000 S 
ATOM     13  O   UNL     1       6.269   7.246  16.483  0.00  0.00    +0.000 OA
ATOM     14  O   UNL     1       7.063   5.986  18.536  0.00  0.00    +0.000 OA
BRANCH  12  15
ATOM     15  N   UNL     1       6.157   4.705  16.535  0.00  0.00    +0.000 NA
ATOM     16  C   UNL     1       7.331   4.451  15.663  0.00  0.00    +0.000 C 
ATOM     17  C   UNL     1       6.822   4.667  14.250  0.00  0.00    +0.000 C 
ATOM     18  C   UNL     1       5.374   4.223  14.300  0.00  0.00    +0.000 C 
ATOM     19  C   UNL     1       4.929   4.433  15.741  0.00  0.00    +0.000 C 
ENDBRANCH  12  15
ENDBRANCH  10  12
ENDBRANCH   2   5
BRANCH   1  20
ATOM     20  C   UNL     1      -0.002  10.437  18.892  0.00  0.00    +0.000 C 
BRANCH  20  21
ATOM     21  C   UNL     1       0.521  11.357  19.994  0.00  0.00    +0.000 C 
BRANCH  21  31
ATOM     22  C   UNL     1       1.182   9.396  22.261  0.00  0.00    +0.000 C 
ATOM     23  C   UNL     1       0.048  10.353  22.259  0.00  0.00    +0.000 A 
ATOM     24  N   UNL     1      -0.824  10.485  23.237  0.00  0.00    +0.000 NA
ATOM     25  C   UNL     1      -1.685  11.474  22.843  0.00  0.00    +0.000 A 
ATOM     26  C   UNL     1      -2.791  12.004  23.528  0.00  0.00    +0.000 A 
ATOM     27  C   UNL     1      -3.526  13.027  22.922  0.00  0.00    +0.000 A 
ATOM     28  C   UNL     1      -3.168  13.516  21.667  0.00  0.00    +0.000 A 
ATOM     29  C   UNL     1      -2.065  12.995  20.965  0.00  0.00    +0.000 A 
ATOM     30  C   UNL     1      -1.342  11.969  21.585  0.00  0.00    +0.000 A 
ATOM     31  N   UNL     1      -0.233  11.228  21.228  0.00  0.00    +0.000 N 
ENDBRANCH  21  31
ENDBRANCH  20  21
ENDBRANCH   1  20
TORSDOF 6
ENDMDL
MODEL 4
REMARK VINA RESULT:      -7.7      2.864      4.554
REMARK  Name = 
REMARK  7 active torsions:
REMARK  status: ('A' for Active; 'I' for Inactive)
REMARK    1  A    between atoms: C_1  and  C_2
REMARK    2  A    between atoms: N_10  and  C_11
REMARK    3  A    between atoms: C_11  and  C_12
REMARK    4  A    between atoms: C_12  and  N_13
REMARK    5  A    between atoms: C_14  and  C_16
REMARK    6  A    between atoms: C_21  and  S_22
REMARK    7  A    between atoms: S_22  and  N_25
REMARK                            x       y       z     vdW  Elec       q    Type
REMARK                         _______ _______ _______ _____ _____    ______ ____
ROOT
ATOM      1  N   UNL     1       3.130   4.809  17.957  0.00  0.00    +0.000 N 
ATOM      2  C   UNL     1       3.209   6.191  17.979  0.00  0.00    +0.000 C 
ATOM      3  O   UNL     1       3.772   6.853  17.118  0.00  0.00    +0.000 OA
ATOM      4  H   UNL     1       2.438   4.366  18.549  0.00  0.00    +0.000 HD
ENDROOT
BRANCH   2   5
ATOM      5  C   UNL     1       2.478   6.883  19.073  0.00  0.00    +0.000 A 
ATOM      6  C   UNL     1       2.026   6.211  20.210  0.00  0.00    +0.000 A 
ATOM      7  C   UNL     1       1.297   6.907  21.180  0.00  0.00    +0.000 A 
ATOM      8  C   UNL     1       0.991   8.264  21.009  0.00  0.00    +0.000 A 
ATOM      9 CL   UNL     1       0.023   9.001  22.234  0.00  0.00    +0.000 Cl
ATOM     10  C   UNL     1       1.447   8.936  19.869  0.00  0.00    +0.000 A 
ATOM     11  C   UNL     1       2.215   8.250  18.918  0.00  0.00    +0.000 A 
BRANCH  10  12
ATOM     12  S   UNL     1       0.859  10.571  19.519  0.00  0.00    +0.000 S 
ATOM     13  O   UNL     1       1.088  11.327  20.734  0.00  0.00    +0.000 OA
ATOM     14  O   UNL     1       1.386  10.987  18.238  0.00  0.00    +0.000 OA
BRANCH  12  15
ATOM     15  N   UNL     1      -0.831  10.409  19.340  0.00  0.00    +0.000 NA
ATOM     16  C   UNL     1      -1.347  10.074  17.989  0.00  0.00    +0.000 C 
ATOM     17  C   UNL     1      -1.976  11.358  17.482  0.00  0.00    +0.000 C 
ATOM     18  C   UNL     1      -2.517  12.029  18.728  0.00  0.00    +0.000 C 
ATOM     19  C   UNL     1      -1.642  11.536  19.873  0.00  0.00    +0.000 C 
ENDBRANCH  12  15
ENDBRANCH  10  12
ENDBRANCH   2   5
BRANCH   1  20
ATOM     20  C   UNL     1       3.604   4.102  16.770  0.00  0.00    +0.000 C 
BRANCH  20  21
ATOM     21  C   UNL     1       5.028   3.565  16.903  0.00  0.00    +0.000 C 
BRANCH  21  31
ATOM     22  C   UNL     1       6.968   5.694  17.965  0.00  0.00    +0.000 C 
ATOM     23  C   UNL     1       6.858   5.265  16.548  0.00  0.00    +0.000 A 
ATOM     24  N   UNL     1       7.583   5.746  15.560  0.00  0.00    +0.000 NA
ATOM     25  C   UNL     1       7.178   5.079  14.436  0.00  0.00    +0.000 A 
ATOM     26  C   UNL     1       7.642   5.210  13.117  0.00  0.00    +0.000 A 
ATOM     27  C   UNL     1       7.076   4.406  12.124  0.00  0.00    +0.000 A 
ATOM     28  C   UNL     1       6.075   3.488  12.435  0.00  0.00    +0.000 A 
ATOM     29  C   UNL     1       5.594   3.344  13.749  0.00  0.00    +0.000 A 
ATOM     30  C   UNL     1       6.171   4.160  14.731  0.00  0.00    +0.000 A 
ATOM     31  N   UNL     1       5.977   4.305  16.090  0.00  0.00    +0.000 N 
ENDBRANCH  21  31
ENDBRANCH  20  21
ENDBRANCH   1  20
TORSDOF 6
ENDMDL
MODEL 5
REMARK VINA RESULT:      -7.6      3.652      8.832
REMARK  Name = 
REMARK  7 active torsions:
REMARK  status: ('A' for Active; 'I' for Inactive)
REMARK    1  A    between atoms: C_1  and  C_2
REMARK    2  A    between atoms: N_10  and  C_11
REMARK    3  A    between atoms: C_11  and  C_12
REMARK    4  A    between atoms: C_12  and  N_13
REMARK    5  A    between atoms: C_14  and  C_16
REMARK    6  A    between atoms: C_21  and  S_22
REMARK    7  A    between atoms: S_22  and  N_25
REMARK                            x       y       z     vdW  Elec       q    Type
REMARK                         _______ _______ _______ _____ _____    ______ ____
ROOT
ATOM      1  N   UNL     1       1.516   8.911  19.327  0.00  0.00    +0.000 N 
ATOM      2  C   UNL     1       2.139   8.899  18.090  0.00  0.00    +0.000 C 
ATOM      3  O   UNL     1       2.100   9.835  17.301  0.00  0.00    +0.000 OA
ATOM      4  H   UNL     1       1.809   8.222  20.009  0.00  0.00    +0.000 HD
ENDROOT
BRANCH   2   5
ATOM      5  C   UNL     1       2.970   7.709  17.773  0.00  0.00    +0.000 A 
ATOM      6  C   UNL     1       4.139   7.796  17.014  0.00  0.00    +0.000 A 
ATOM      7  C   UNL     1       4.850   6.633  16.704  0.00  0.00    +0.000 A 
ATOM      8  C   UNL     1       4.387   5.377  17.122  0.00  0.00    +0.000 A 
ATOM      9 CL   UNL     1       5.305   4.004  16.618  0.00  0.00    +0.000 Cl
ATOM     10  C   UNL     1       3.217   5.293  17.884  0.00  0.00    +0.000 A 
ATOM     11  C   UNL     1       2.527   6.463  18.233  0.00  0.00    +0.000 A 
BRANCH  10  12
ATOM     12  S   UNL     1       2.488   3.708  18.203  0.00  0.00    +0.000 S 
ATOM     13  O   UNL     1       1.596   3.467  17.087  0.00  0.00    +0.000 OA
ATOM     14  O   UNL     1       3.536   2.782  18.569  0.00  0.00    +0.000 OA
BRANCH  12  15
ATOM     15  N   UNL     1       1.512   3.937  19.586  0.00  0.00    +0.000 NA
ATOM     16  C   UNL     1       2.102   4.687  20.722  0.00  0.00    +0.000 C 
ATOM     17  C   UNL     1       2.384   3.635  21.779  0.00  0.00    +0.000 C 
ATOM     18  C   UNL     1       1.283   2.610  21.593  0.00  0.00    +0.000 C 
ATOM     19  C   UNL     1       0.875   2.707  20.130  0.00  0.00    +0.000 C 
ENDBRANCH  12  15
ENDBRANCH  10  12
ENDBRANCH   2   5
BRANCH   1  20
ATOM     20  C   UNL     1       0.908  10.155  19.791  0.00  0.00    +0.000 C 
BRANCH  20  21
ATOM     21  C   UNL     1      -0.563  10.012  20.180  0.00  0.00    +0.000 C 
BRANCH  21  31
ATOM     22  C   UNL     1       0.047   9.329  23.110  0.00  0.00    +0.000 C 
ATOM     23  C   UNL     1      -0.651  10.552  22.643  0.00  0.00    +0.000 A 
ATOM     24  N   UNL     1      -1.101  11.507  23.431  0.00  0.00    +0.000 NA
ATOM     25  C   UNL     1      -1.660  12.445  22.605  0.00  0.00    +0.000 A 
ATOM     26  C   UNL     1      -2.272  13.663  22.941  0.00  0.00    +0.000 A 
ATOM     27  C   UNL     1      -2.769  14.469  21.914  0.00  0.00    +0.000 A 
ATOM     28  C   UNL     1      -2.656  14.077  20.581  0.00  0.00    +0.000 A 
ATOM     29  C   UNL     1      -2.049  12.859  20.225  0.00  0.00    +0.000 A 
ATOM     30  C   UNL     1      -1.559  12.063  21.267  0.00  0.00    +0.000 A 
ATOM     31  N   UNL     1      -0.917  10.841  21.319  0.00  0.00    +0.000 N 
ENDBRANCH  21  31
ENDBRANCH  20  21
ENDBRANCH   1  20
TORSDOF 6
ENDMDL
MODEL 6
REMARK VINA RESULT:      -7.6      3.925      8.976
REMARK  Name = 
REMARK  7 active torsions:
REMARK  status: ('A' for Active; 'I' for Inactive)
REMARK    1  A    between atoms: C_1  and  C_2
REMARK    2  A    between atoms: N_10  and  C_11
REMARK    3  A    between atoms: C_11  and  C_12
REMARK    4  A    between atoms: C_12  and  N_13
REMARK    5  A    between atoms: C_14  and  C_16
REMARK    6  A    between atoms: C_21  and  S_22
REMARK    7  A    between atoms: S_22  and  N_25
REMARK                            x       y       z     vdW  Elec       q    Type
REMARK                         _______ _______ _______ _____ _____    ______ ____
ROOT
ATOM      1  N   UNL     1       0.882   9.209  19.014  0.00  0.00    +0.000 N 
ATOM      2  C   UNL     1       1.915   8.859  18.162  0.00  0.00    +0.000 C 
ATOM      3  O   UNL     1       2.312   9.569  17.246  0.00  0.00    +0.000 OA
ATOM      4  H   UNL     1       0.795   8.699  19.884  0.00  0.00    +0.000 HD
ENDROOT
BRANCH   2   5
ATOM      5  C   UNL     1       2.624   7.587  18.461  0.00  0.00    +0.000 A 
ATOM      6  C   UNL     1       2.151   6.674  19.405  0.00  0.00    +0.000 A 
ATOM      7  C   UNL     1       2.891   5.520  19.680  0.00  0.00    +0.000 A 
ATOM      8  C   UNL     1       4.117   5.284  19.040  0.00  0.00    +0.000 A 
ATOM      9 CL   UNL     1       4.979   3.865  19.513  0.00  0.00    +0.000 Cl
ATOM     10  C   UNL     1       4.587   6.200  18.093  0.00  0.00    +0.000 A 
ATOM     11  C   UNL     1       3.824   7.335  17.784  0.00  0.00    +0.000 A 
BRANCH  10  12
ATOM     12  S   UNL     1       6.238   6.046  17.466  0.00  0.00    +0.000 S 
ATOM     13  O   UNL     1       6.413   7.172  16.572  0.00  0.00    +0.000 OA
ATOM     14  O   UNL     1       7.132   5.793  18.574  0.00  0.00    +0.000 OA
BRANCH  12  15
ATOM     15  N   UNL     1       6.219   4.637  16.501  0.00  0.00    +0.000 NA
ATOM     16  C   UNL     1       7.341   4.445  15.550  0.00  0.00    +0.000 C 
ATOM     17  C   UNL     1       6.745   4.718  14.182  0.00  0.00    +0.000 C 
ATOM     18  C   UNL     1       5.310   4.246  14.296  0.00  0.00    +0.000 C 
ATOM     19  C   UNL     1       4.950   4.380  15.769  0.00  0.00    +0.000 C 
ENDBRANCH  12  15
ENDBRANCH  10  12
ENDBRANCH   2   5
BRANCH   1  20
ATOM     20  C   UNL     1       0.331  10.559  18.925  0.00  0.00    +0.000 C 
BRANCH  20  21
ATOM     21  C   UNL     1      -0.811  10.822  19.906  0.00  0.00    +0.000 C 
BRANCH  21  31
ATOM     22  C   UNL     1      -2.801  12.854  21.061  0.00  0.00    +0.000 C 
ATOM     23  C   UNL     1      -2.927  12.185  19.742  0.00  0.00    +0.000 A 
ATOM     24  N   UNL     1      -3.915  12.379  18.894  0.00  0.00    +0.000 NA
ATOM     25  C   UNL     1      -3.643  11.588  17.810  0.00  0.00    +0.000 A 
ATOM     26  C   UNL     1      -4.378  11.434  16.624  0.00  0.00    +0.000 A 
ATOM     27  C   UNL     1      -3.894  10.564  15.644  0.00  0.00    +0.000 A 
ATOM     28  C   UNL     1      -2.702   9.867  15.835  0.00  0.00    +0.000 A 
ATOM     29  C   UNL     1      -1.953  10.005  17.018  0.00  0.00    +0.000 A 
ATOM     30  C   UNL     1      -2.455  10.879  17.990  0.00  0.00    +0.000 A 
ATOM     31  N   UNL     1      -2.021  11.272  19.241  0.00  0.00    +0.000 N 
ENDBRANCH  21  31
ENDBRANCH  20  21
ENDBRANCH   1  20
TORSDOF 6
ENDMDL
MODEL 7
REMARK VINA RESULT:      -7.6      1.360      1.508
REMARK  Name = 
REMARK  7 active torsions:
REMARK  status: ('A' for Active; 'I' for Inactive)
REMARK    1  A    between atoms: C_1  and  C_2
REMARK    2  A    between atoms: N_10  and  C_11
REMARK    3  A    between atoms: C_11  and  C_12
REMARK    4  A    between atoms: C_12  and  N_13
REMARK    5  A    between atoms: C_14  and  C_16
REMARK    6  A    between atoms: C_21  and  S_22
REMARK    7  A    between atoms: S_22  and  N_25
REMARK                            x       y       z     vdW  Elec       q    Type
REMARK                         _______ _______ _______ _____ _____    ______ ____
ROOT
ATOM      1  N   UNL     1       2.523   7.961  18.889  0.00  0.00    +0.000 N 
ATOM      2  C   UNL     1       1.705   9.061  18.695  0.00  0.00    +0.000 C 
ATOM      3  O   UNL     1       1.504   9.573  17.601  0.00  0.00    +0.000 OA
ATOM      4  H   UNL     1       2.428   7.451  19.759  0.00  0.00    +0.000 HD
ENDROOT
BRANCH   2   5
ATOM      5  C   UNL     1       0.972   9.566  19.885  0.00  0.00    +0.000 A 
ATOM      6  C   UNL     1       0.344   8.710  20.792  0.00  0.00    +0.000 A 
ATOM      7  C   UNL     1      -0.376   9.248  21.863  0.00  0.00    +0.000 A 
ATOM      8  C   UNL     1      -0.500  10.636  22.020  0.00  0.00    +0.000 A 
ATOM      9 CL   UNL     1      -1.474  11.185  23.336  0.00  0.00    +0.000 Cl
ATOM     10  C   UNL     1       0.132  11.491  21.110  0.00  0.00    +0.000 A 
ATOM     11  C   UNL     1       0.891  10.953  20.061  0.00  0.00    +0.000 A 
BRANCH  10  12
ATOM     12  S   UNL     1      -0.219  13.228  21.147  0.00  0.00    +0.000 S 
ATOM     13  O   UNL     1      -1.628  13.339  20.832  0.00  0.00    +0.000 OA
ATOM     14  O   UNL     1       0.351  13.790  22.352  0.00  0.00    +0.000 OA
BRANCH  12  15
ATOM     15  N   UNL     1       0.644  13.885  19.828  0.00  0.00    +0.000 NA
ATOM     16  C   UNL     1       1.873  14.658  20.132  0.00  0.00    +0.000 C 
ATOM     17  C   UNL     1       1.494  16.107  19.889  0.00  0.00    +0.000 C 
ATOM     18  C   UNL     1       0.486  16.047  18.758  0.00  0.00    +0.000 C 
ATOM     19  C   UNL     1      -0.167  14.675  18.863  0.00  0.00    +0.000 C 
ENDBRANCH  12  15
ENDBRANCH  10  12
ENDBRANCH   2   5
BRANCH   1  20
ATOM     20  C   UNL     1       3.056   7.271  17.718  0.00  0.00    +0.000 C 
BRANCH  20  21
ATOM     21  C   UNL     1       4.176   6.284  18.042  0.00  0.00    +0.000 C 
BRANCH  21  31
ATOM     22  C   UNL     1       4.962   4.095  16.039  0.00  0.00    +0.000 C 
ATOM     23  C   UNL     1       4.050   3.911  17.196  0.00  0.00    +0.000 A 
ATOM     24  N   UNL     1       3.460   2.778  17.513  0.00  0.00    +0.000 NA
ATOM     25  C   UNL     1       2.727   3.038  18.640  0.00  0.00    +0.000 A 
ATOM     26  C   UNL     1       1.920   2.165  19.388  0.00  0.00    +0.000 A 
ATOM     27  C   UNL     1       1.267   2.660  20.519  0.00  0.00    +0.000 A 
ATOM     28  C   UNL     1       1.417   3.991  20.904  0.00  0.00    +0.000 A 
ATOM     29  C   UNL     1       2.218   4.882  20.166  0.00  0.00    +0.000 A 
ATOM     30  C   UNL     1       2.863   4.369  19.034  0.00  0.00    +0.000 A 
ATOM     31  N   UNL     1       3.709   4.910  18.086  0.00  0.00    +0.000 N 
ENDBRANCH  21  31
ENDBRANCH  20  21
ENDBRANCH   1  20
TORSDOF 6
ENDMDL
MODEL 8
REMARK VINA RESULT:      -7.6      3.728      8.792
REMARK  Name = 
REMARK  7 active torsions:
REMARK  status: ('A' for Active; 'I' for Inactive)
REMARK    1  A    between atoms: C_1  and  C_2
REMARK    2  A    between atoms: N_10  and  C_11
REMARK    3  A    between atoms: C_11  and  C_12
REMARK    4  A    between atoms: C_12  and  N_13
REMARK    5  A    between atoms: C_14  and  C_16
REMARK    6  A    between atoms: C_21  and  S_22
REMARK    7  A    between atoms: S_22  and  N_25
REMARK                            x       y       z     vdW  Elec       q    Type
REMARK                         _______ _______ _______ _____ _____    ______ ____
ROOT
ATOM      1  N   UNL     1       1.259   9.150  19.372  0.00  0.00    +0.000 N 
ATOM      2  C   UNL     1       1.985   8.318  18.537  0.00  0.00    +0.000 C 
ATOM      3  O   UNL     1       2.455   8.675  17.464  0.00  0.00    +0.000 OA
ATOM      4  H   UNL     1       1.136   8.861  20.334  0.00  0.00    +0.000 HD
ENDROOT
BRANCH   2   5
ATOM      5  C   UNL     1       2.273   6.951  19.043  0.00  0.00    +0.000 A 
ATOM      6  C   UNL     1       1.752   6.477  20.249  0.00  0.00    +0.000 A 
ATOM      7  C   UNL     1       2.102   5.200  20.698  0.00  0.00    +0.000 A 
ATOM      8  C   UNL     1       2.993   4.401  19.965  0.00  0.00    +0.000 A 
ATOM      9 CL   UNL     1       3.411   2.873  20.653  0.00  0.00    +0.000 Cl
ATOM     10  C   UNL     1       3.511   4.878  18.756  0.00  0.00    +0.000 A 
ATOM     11  C   UNL     1       3.126   6.140  18.283  0.00  0.00    +0.000 A 
BRANCH  10  12
ATOM     12  S   UNL     1       4.821   3.994  17.952  0.00  0.00    +0.000 S 
ATOM     13  O   UNL     1       5.931   4.028  18.882  0.00  0.00    +0.000 OA
ATOM     14  O   UNL     1       4.289   2.755  17.428  0.00  0.00    +0.000 OA
BRANCH  12  15
ATOM     15  N   UNL     1       5.256   4.962  16.615  0.00  0.00    +0.000 NA
ATOM     16  C   UNL     1       4.938   4.442  15.262  0.00  0.00    +0.000 C 
ATOM     17  C   UNL     1       6.275   4.017  14.683  0.00  0.00    +0.000 C 
ATOM     18  C   UNL     1       7.270   4.994  15.278  0.00  0.00    +0.000 C 
ATOM     19  C   UNL     1       6.665   5.439  16.602  0.00  0.00    +0.000 C 
ENDBRANCH  12  15
ENDBRANCH  10  12
ENDBRANCH   2   5
BRANCH   1  20
ATOM     20  C   UNL     1       1.174  10.569  19.041  0.00  0.00    +0.000 C 
BRANCH  20  21
ATOM     21  C   UNL     1       0.461  11.406  20.102  0.00  0.00    +0.000 C 
BRANCH  21  31
ATOM     22  C   UNL     1      -1.351  13.406  21.567  0.00  0.00    +0.000 C 
ATOM     23  C   UNL     1      -1.747  12.593  20.390  0.00  0.00    +0.000 A 
ATOM     24  N   UNL     1      -2.933  12.626  19.820  0.00  0.00    +0.000 NA
ATOM     25  C   UNL     1      -2.874  11.745  18.774  0.00  0.00    +0.000 A 
ATOM     26  C   UNL     1      -3.871  11.415  17.841  0.00  0.00    +0.000 A 
ATOM     27  C   UNL     1      -3.573  10.482  16.845  0.00  0.00    +0.000 A 
ATOM     28  C   UNL     1      -2.312   9.894  16.773  0.00  0.00    +0.000 A 
ATOM     29  C   UNL     1      -1.301  10.209  17.699  0.00  0.00    +0.000 A 
ATOM     30  C   UNL     1      -1.618  11.144  18.692  0.00  0.00    +0.000 A 
ATOM     31  N   UNL     1      -0.917  11.697  19.745  0.00  0.00    +0.000 N 
ENDBRANCH  21  31
ENDBRANCH  20  21
ENDBRANCH   1  20
TORSDOF 6
ENDMDL
MODEL 9
REMARK VINA RESULT:      -7.5      4.049      9.472
REMARK  Name = 
REMARK  7 active torsions:
REMARK  status: ('A' for Active; 'I' for Inactive)
REMARK    1  A    between atoms: C_1  and  C_2
REMARK    2  A    between atoms: N_10  and  C_11
REMARK    3  A    between atoms: C_11  and  C_12
REMARK    4  A    between atoms: C_12  and  N_13
REMARK    5  A    between atoms: C_14  and  C_16
REMARK    6  A    between atoms: C_21  and  S_22
REMARK    7  A    between atoms: S_22  and  N_25
REMARK                            x       y       z     vdW  Elec       q    Type
REMARK                         _______ _______ _______ _____ _____    ______ ____
ROOT
ATOM      1  N   UNL     1      -0.035  10.848  20.508  0.00  0.00    +0.000 N 
ATOM      2  C   UNL     1       0.192   9.492  20.670  0.00  0.00    +0.000 C 
ATOM      3  O   UNL     1      -0.441   8.784  21.442  0.00  0.00    +0.000 OA
ATOM      4  H   UNL     1       0.343  11.294  19.681  0.00  0.00    +0.000 HD
ENDROOT
BRANCH   2   5
ATOM      5  C   UNL     1       1.205   8.874  19.775  0.00  0.00    +0.000 A 
ATOM      6  C   UNL     1       1.562   9.440  18.549  0.00  0.00    +0.000 A 
ATOM      7  C   UNL     1       2.482   8.782  17.727  0.00  0.00    +0.000 A 
ATOM      8  C   UNL     1       3.027   7.547  18.105  0.00  0.00    +0.000 A 
ATOM      9 CL   UNL     1       4.094   6.792  16.977  0.00  0.00    +0.000 Cl
ATOM     10  C   UNL     1       2.669   6.983  19.334  0.00  0.00    +0.000 A 
ATOM     11  C   UNL     1       1.780   7.663  20.179  0.00  0.00    +0.000 A 
BRANCH  10  12
ATOM     12  S   UNL     1       3.149   5.318  19.711  0.00  0.00    +0.000 S 
ATOM     13  O   UNL     1       4.595   5.308  19.617  0.00  0.00    +0.000 OA
ATOM     14  O   UNL     1       2.448   4.893  20.902  0.00  0.00    +0.000 OA
BRANCH  12  15
ATOM     15  N   UNL     1       2.555   4.379  18.414  0.00  0.00    +0.000 NA
ATOM     16  C   UNL     1       1.235   3.726  18.592  0.00  0.00    +0.000 C 
ATOM     17  C   UNL     1       1.550   2.254  18.784  0.00  0.00    +0.000 C 
ATOM     18  C   UNL     1       2.786   2.021  17.938  0.00  0.00    +0.000 C 
ATOM     19  C   UNL     1       3.499   3.364  17.875  0.00  0.00    +0.000 C 
ENDBRANCH  12  15
ENDBRANCH  10  12
ENDBRANCH   2   5
BRANCH   1  20
ATOM     20  C   UNL     1      -1.190  11.447  21.171  0.00  0.00    +0.000 C 
BRANCH  20  21
ATOM     21  C   UNL     1      -1.864  12.549  20.356  0.00  0.00    +0.000 C 
BRANCH  21  31
ATOM     22  C   UNL     1      -3.462  13.413  22.831  0.00  0.00    +0.000 C 
ATOM     23  C   UNL     1      -4.048  12.898  21.568  0.00  0.00    +0.000 A 
ATOM     24  N   UNL     1      -5.337  12.746  21.348  0.00  0.00    +0.000 NA
ATOM     25  C   UNL     1      -5.447  12.264  20.071  0.00  0.00    +0.000 A 
ATOM     26  C   UNL     1      -6.605  11.942  19.346  0.00  0.00    +0.000 A 
ATOM     27  C   UNL     1      -6.468  11.468  18.039  0.00  0.00    +0.000 A 
ATOM     28  C   UNL     1      -5.208  11.324  17.461  0.00  0.00    +0.000 A 
ATOM     29  C   UNL     1      -4.035  11.640  18.172  0.00  0.00    +0.000 A 
ATOM     30  C   UNL     1      -4.192  12.109  19.482  0.00  0.00    +0.000 A 
ATOM     31  N   UNL     1      -3.311  12.514  20.466  0.00  0.00    +0.000 N 
ENDBRANCH  21  31
ENDBRANCH  20  21
ENDBRANCH   1  20
TORSDOF 6
ENDMDL
