MODEL 1
REMARK VINA RESULT:      -8.5      0.000      0.000
REMARK  Name = 
REMARK  6 active torsions:
REMARK  status: ('A' for Active; 'I' for Inactive)
REMARK    1  A    between atoms: C_1  and  C_2
REMARK    2  A    between atoms: C_8  and  C_9
REMARK    3  A    between atoms: C_11  and  C_12
REMARK    4  A    between atoms: C_16  and  O_17
REMARK    5  A    between atoms: O_17  and  C_18
REMARK    6  A    between atoms: C_18  and  C_19
REMARK                            x       y       z     vdW  Elec       q    Type
REMARK                         _______ _______ _______ _____ _____    ______ ____
ROOT
ATOM      1  C   UNL     1       2.478   6.590  19.260  0.00  0.00    +0.000 A 
ATOM      2  C   UNL     1       1.744   6.095  20.346  0.00  0.00    +0.000 A 
ATOM      3  C   UNL     1       2.045   4.851  20.896  0.00  0.00    +0.000 A 
ATOM      4  C   UNL     1       3.070   4.078  20.356  0.00  0.00    +0.000 A 
ATOM      5  C   UNL     1       3.778   4.528  19.239  0.00  0.00    +0.000 A 
ATOM      6  C   UNL     1       3.495   5.792  18.709  0.00  0.00    +0.000 A 
ENDROOT
BRANCH   1   9
ATOM      7  C   UNL     1       1.417   9.868  18.589  0.00  0.00    +0.000 A 
ATOM      8  N   UNL     1       1.466   8.849  19.417  0.00  0.00    +0.000 NA
ATOM      9  C   UNL     1       2.194   7.915  18.719  0.00  0.00    +0.000 A 
ATOM     10  N   UNL     1       2.589   8.336  17.505  0.00  0.00    +0.000 NA
ATOM     11  O   UNL     1       2.075   9.627  17.418  0.00  0.00    +0.000 OA
BRANCH   7  19
ATOM     12  C   UNL     1      -1.506  10.242  18.035  0.00  0.00    +0.000 C 
ATOM     13  C   UNL     1      -0.599  11.353  18.487  0.00  0.00    +0.000 A 
ATOM     14  C   UNL     1      -1.127  12.629  18.655  0.00  0.00    +0.000 A 
ATOM     15  N   UNL     1      -0.417  13.708  19.042  0.00  0.00    +0.000 NA
ATOM     16  C   UNL     1       0.891  13.509  19.280  0.00  0.00    +0.000 A 
ATOM     17  F   UNL     1       1.617  14.566  19.667  0.00  0.00    +0.000 F 
ATOM     18  C   UNL     1       1.523  12.287  19.153  0.00  0.00    +0.000 A 
ATOM     19  C   UNL     1       0.774  11.174  18.746  0.00  0.00    +0.000 A 
ENDBRANCH   7  19
ENDBRANCH   1   9
BRANCH   5  20
ATOM     20  O   UNL     1       4.760   3.818  18.596  0.00  0.00    +0.000 OA
BRANCH  20  21
ATOM     21  C   UNL     1       5.979   4.530  18.368  0.00  0.00    +0.000 C 
BRANCH  21  22
ATOM     22  C   UNL     1       6.263   4.588  16.895  0.00  0.00    +0.000 A 
ATOM     23  C   UNL     1       5.527   3.845  15.970  0.00  0.00    +0.000 A 
ATOM     24  C   UNL     1       5.826   3.945  14.615  0.00  0.00    +0.000 A 
ATOM     25  C   UNL     1       6.854   4.788  14.227  0.00  0.00    +0.000 A 
ATOM     26  N   UNL     1       7.583   5.527  15.090  0.00  0.00    +0.000 NA
ATOM     27  C   UNL     1       7.275   5.406  16.400  0.00  0.00    +0.000 A 
ENDBRANCH  21  22
ENDBRANCH  20  21
ENDBRANCH   5  20
TORSDOF 5
ENDMDL
MODEL 2
REMARK VINA RESULT:      -8.5      2.081      3.993
REMARK  Name = 
REMARK  6 active torsions:
REMARK  status: ('A' for Active; 'I' for Inactive)
REMARK    1  A    between atoms: C_1  and  C_2
REMARK    2  A    between atoms: C_8  and  C_9
REMARK    3  A    between atoms: C_11  and  C_12
REMARK    4  A    between atoms: C_16  and  O_17
REMARK    5  A    between atoms: O_17  and  C_18
REMARK    6  A    between atoms: C_18  and  C_19
REMARK                            x       y       z     vdW  Elec       q    Type
REMARK                         _______ _______ _______ _____ _____    ______ ____
ROOT
ATOM      1  C   UNL     1       3.283   6.742  17.831  0.00  0.00    +0.000 A 
ATOM      2  C   UNL     1       4.549   7.042  17.314  0.00  0.00    +0.000 A 
ATOM      3  C   UNL     1       5.302   6.062  16.669  0.00  0.00    +0.000 A 
ATOM      4  C   UNL     1       4.805   4.767  16.550  0.00  0.00    +0.000 A 
ATOM      5  C   UNL     1       3.568   4.432  17.107  0.00  0.00    +0.000 A 
ATOM      6  C   UNL     1       2.801   5.426  17.725  0.00  0.00    +0.000 A 
ENDROOT
BRANCH   1   9
ATOM      7  C   UNL     1       1.449   9.604  18.706  0.00  0.00    +0.000 A 
ATOM      8  N   UNL     1       2.137   8.941  17.805  0.00  0.00    +0.000 NA
ATOM      9  C   UNL     1       2.477   7.782  18.461  0.00  0.00    +0.000 A 
ATOM     10  N   UNL     1       2.015   7.721  19.722  0.00  0.00    +0.000 NA
ATOM     11  O   UNL     1       1.337   8.926  19.886  0.00  0.00    +0.000 OA
BRANCH   7  19
ATOM     12  C   UNL     1      -1.458   9.897  18.031  0.00  0.00    +0.000 C 
ATOM     13  C   UNL     1      -0.550  11.063  18.306  0.00  0.00    +0.000 A 
ATOM     14  C   UNL     1      -1.068  12.352  18.241  0.00  0.00    +0.000 A 
ATOM     15  N   UNL     1      -0.355  13.477  18.453  0.00  0.00    +0.000 NA
ATOM     16  C   UNL     1       0.946  13.313  18.752  0.00  0.00    +0.000 A 
ATOM     17  F   UNL     1       1.675  14.416  18.968  0.00  0.00    +0.000 F 
ATOM     18  C   UNL     1       1.568  12.083  18.849  0.00  0.00    +0.000 A 
ATOM     19  C   UNL     1       0.816  10.921  18.622  0.00  0.00    +0.000 A 
ENDBRANCH   7  19
ENDBRANCH   1   9
BRANCH   5  20
ATOM     20  O   UNL     1       3.020   3.175  17.098  0.00  0.00    +0.000 OA
BRANCH  20  21
ATOM     21  C   UNL     1       3.533   2.277  18.085  0.00  0.00    +0.000 C 
BRANCH  21  22
ATOM     22  C   UNL     1       2.805   2.480  19.382  0.00  0.00    +0.000 A 
ATOM     23  C   UNL     1       1.426   2.699  19.429  0.00  0.00    +0.000 A 
ATOM     24  C   UNL     1       0.800   2.870  20.660  0.00  0.00    +0.000 A 
ATOM     25  C   UNL     1       1.575   2.816  21.807  0.00  0.00    +0.000 A 
ATOM     26  N   UNL     1       2.908   2.602  21.802  0.00  0.00    +0.000 NA
ATOM     27  C   UNL     1       3.491   2.444  20.593  0.00  0.00    +0.000 A 
ENDBRANCH  21  22
ENDBRANCH  20  21
ENDBRANCH   5  20
TORSDOF 5
ENDMDL
MODEL 3
REMARK VINA RESULT:      -8.4      2.859      4.600
REMARK  Name = 
REMARK  6 active torsions:
REMARK  status: ('A' for Active; 'I' for Inactive)
REMARK    1  A    between atoms: C_1  and  C_2
REMARK    2  A    between atoms: C_8  and  C_9
REMARK    3  A    between atoms: C_11  and  C_12
REMARK    4  A    between atoms: C_16  and  O_17
REMARK    5  A    between atoms: O_17  and  C_18
REMARK    6  A    between atoms: C_18  and  C_19
REMARK                            x       y       z     vdW  Elec       q    Type
REMARK                         _______ _______ _______ _____ _____    ______ ____
ROOT
ATOM      1  C   UNL     1       3.455   6.733  17.565  0.00  0.00    +0.000 A 
ATOM      2  C   UNL     1       4.722   6.938  17.006  0.00  0.00    +0.000 A 
ATOM      3  C   UNL     1       5.428   5.878  16.441  0.00  0.00    +0.000 A 
ATOM      4  C   UNL     1       4.883   4.596  16.445  0.00  0.00    +0.000 A 
ATOM      5  C   UNL     1       3.646   4.358  17.047  0.00  0.00    +0.000 A 
ATOM      6  C   UNL     1       2.925   5.431  17.584  0.00  0.00    +0.000 A 
ENDROOT
BRANCH   1   9
ATOM      7  C   UNL     1       1.504   8.967  19.442  0.00  0.00    +0.000 A 
ATOM      8  N   UNL     1       2.087   7.794  19.341  0.00  0.00    +0.000 NA
ATOM      9  C   UNL     1       2.697   7.854  18.110  0.00  0.00    +0.000 A 
ATOM     10  N   UNL     1       2.505   9.019  17.469  0.00  0.00    +0.000 NA
ATOM     11  O   UNL     1       1.715   9.756  18.348  0.00  0.00    +0.000 OA
BRANCH   7  19
ATOM     12  C   UNL     1      -0.596  11.039  18.906  0.00  0.00    +0.000 C 
ATOM     13  C   UNL     1      -0.303  10.491  20.275  0.00  0.00    +0.000 A 
ATOM     14  C   UNL     1      -1.031  10.965  21.362  0.00  0.00    +0.000 A 
ATOM     15  N   UNL     1      -0.853  10.564  22.637  0.00  0.00    +0.000 NA
ATOM     16  C   UNL     1       0.097   9.636  22.845  0.00  0.00    +0.000 A 
ATOM     17  F   UNL     1       0.291   9.220  24.104  0.00  0.00    +0.000 F 
ATOM     18  C   UNL     1       0.877   9.089  21.844  0.00  0.00    +0.000 A 
ATOM     19  C   UNL     1       0.685   9.518  20.523  0.00  0.00    +0.000 A 
ENDBRANCH   7  19
ENDBRANCH   1   9
BRANCH   5  20
ATOM     20  O   UNL     1       3.053   3.126  17.158  0.00  0.00    +0.000 OA
BRANCH  20  21
ATOM     21  C   UNL     1       3.575   2.288  18.193  0.00  0.00    +0.000 C 
BRANCH  21  22
ATOM     22  C   UNL     1       2.802   2.509  19.461  0.00  0.00    +0.000 A 
ATOM     23  C   UNL     1       1.430   2.771  19.454  0.00  0.00    +0.000 A 
ATOM     24  C   UNL     1       0.761   2.956  20.660  0.00  0.00    +0.000 A 
ATOM     25  C   UNL     1       1.487   2.874  21.837  0.00  0.00    +0.000 A 
ATOM     26  N   UNL     1       2.811   2.617  21.884  0.00  0.00    +0.000 NA
ATOM     27  C   UNL     1       3.437   2.446  20.698  0.00  0.00    +0.000 A 
ENDBRANCH  21  22
ENDBRANCH  20  21
ENDBRANCH   5  20
TORSDOF 5
ENDMDL
MODEL 4
REMARK VINA RESULT:      -8.2      3.689      4.700
REMARK  Name = 
REMARK  6 active torsions:
REMARK  status: ('A' for Active; 'I' for Inactive)
REMARK    1  A    between atoms: C_1  and  C_2
REMARK    2  A    between atoms: C_8  and  C_9
REMARK    3  A    between atoms: C_11  and  C_12
REMARK    4  A    between atoms: C_16  and  O_17
REMARK    5  A    between atoms: O_17  and  C_18
REMARK    6  A    between atoms: C_18  and  C_19
REMARK                            x       y       z     vdW  Elec       q    Type
REMARK                         _______ _______ _______ _____ _____    ______ ____
ROOT
ATOM      1  C   UNL     1       1.082   9.223  20.243  0.00  0.00    +0.000 A 
ATOM      2  C   UNL     1       1.009   9.804  18.971  0.00  0.00    +0.000 A 
ATOM      3  C   UNL     1       1.565   9.162  17.866  0.00  0.00    +0.000 A 
ATOM      4  C   UNL     1       2.217   7.941  18.023  0.00  0.00    +0.000 A 
ATOM      5  C   UNL     1       2.349   7.371  19.291  0.00  0.00    +0.000 A 
ATOM      6  C   UNL     1       1.761   8.001  20.393  0.00  0.00    +0.000 A 
ENDROOT
BRANCH   1   9
ATOM      7  C   UNL     1      -0.762  11.198  22.484  0.00  0.00    +0.000 A 
ATOM      8  N   UNL     1      -0.473  10.876  21.244  0.00  0.00    +0.000 NA
ATOM      9  C   UNL     1       0.454   9.872  21.389  0.00  0.00    +0.000 A 
ATOM     10  N   UNL     1       0.730   9.574  22.671  0.00  0.00    +0.000 NA
ATOM     11  O   UNL     1      -0.073  10.451  23.396  0.00  0.00    +0.000 OA
BRANCH   7  19
ATOM     12  C   UNL     1      -0.104  14.119  22.338  0.00  0.00    +0.000 C 
ATOM     13  C   UNL     1      -1.378  13.585  22.933  0.00  0.00    +0.000 A 
ATOM     14  C   UNL     1      -2.307  14.480  23.453  0.00  0.00    +0.000 A 
ATOM     15  N   UNL     1      -3.477  14.127  24.023  0.00  0.00    +0.000 NA
ATOM     16  C   UNL     1      -3.742  12.809  24.074  0.00  0.00    +0.000 A 
ATOM     17  F   UNL     1      -4.900  12.433  24.635  0.00  0.00    +0.000 F 
ATOM     18  C   UNL     1      -2.899  11.830  23.586  0.00  0.00    +0.000 A 
ATOM     19  C   UNL     1      -1.683  12.211  23.000  0.00  0.00    +0.000 A 
ENDBRANCH   7  19
ENDBRANCH   1   9
BRANCH   5  20
ATOM     20  O   UNL     1       3.023   6.207  19.559  0.00  0.00    +0.000 OA
BRANCH  20  21
ATOM     21  C   UNL     1       3.163   5.312  18.453  0.00  0.00    +0.000 C 
BRANCH  21  22
ATOM     22  C   UNL     1       4.619   5.118  18.140  0.00  0.00    +0.000 A 
ATOM     23  C   UNL     1       5.622   5.454  19.052  0.00  0.00    +0.000 A 
ATOM     24  C   UNL     1       6.955   5.243  18.714  0.00  0.00    +0.000 A 
ATOM     25  C   UNL     1       7.243   4.699  17.473  0.00  0.00    +0.000 A 
ATOM     26  N   UNL     1       6.302   4.355  16.569  0.00  0.00    +0.000 NA
ATOM     27  C   UNL     1       5.015   4.576  16.920  0.00  0.00    +0.000 A 
ENDBRANCH  21  22
ENDBRANCH  20  21
ENDBRANCH   5  20
TORSDOF 5
ENDMDL
MODEL 5
REMARK VINA RESULT:      -8.2      4.069      5.348
REMARK  Name = 
REMARK  6 active torsions:
REMARK  status: ('A' for Active; 'I' for Inactive)
REMARK    1  A    between atoms: C_1  and  C_2
REMARK    2  A    between atoms: C_8  and  C_9
REMARK    3  A    between atoms: C_11  and  C_12
REMARK    4  A    between atoms: C_16  and  O_17
REMARK    5  A    between atoms: O_17  and  C_18
REMARK    6  A    between atoms: C_18  and  C_19
REMARK                            x       y       z     vdW  Elec       q    Type
REMARK                         _______ _______ _______ _____ _____    ______ ____
ROOT
ATOM      1  C   UNL     1       0.851   9.489  20.252  0.00  0.00    +0.000 A 
ATOM      2  C   UNL     1       0.673  10.052  18.983  0.00  0.00    +0.000 A 
ATOM      3  C   UNL     1       1.219   9.444  17.855  0.00  0.00    +0.000 A 
ATOM      4  C   UNL     1       1.966   8.275  17.984  0.00  0.00    +0.000 A 
ATOM      5  C   UNL     1       2.202   7.727  19.246  0.00  0.00    +0.000 A 
ATOM      6  C   UNL     1       1.625   8.322  20.374  0.00  0.00    +0.000 A 
ENDROOT
BRANCH   1   9
ATOM      7  C   UNL     1      -0.986  11.374  22.574  0.00  0.00    +0.000 A 
ATOM      8  N   UNL     1      -0.718  11.084  21.321  0.00  0.00    +0.000 NA
ATOM      9  C   UNL     1       0.236  10.100  21.425  0.00  0.00    +0.000 A 
ATOM     10  N   UNL     1       0.548   9.783  22.694  0.00  0.00    +0.000 NA
ATOM     11  O   UNL     1      -0.258  10.626  23.455  0.00  0.00    +0.000 OA
BRANCH   7  19
ATOM     12  C   UNL     1      -0.339  14.301  22.595  0.00  0.00    +0.000 C 
ATOM     13  C   UNL     1      -1.618  13.732  23.143  0.00  0.00    +0.000 A 
ATOM     14  C   UNL     1      -2.558  14.594  23.698  0.00  0.00    +0.000 A 
ATOM     15  N   UNL     1      -3.734  14.205  24.232  0.00  0.00    +0.000 NA
ATOM     16  C   UNL     1      -3.994  12.886  24.209  0.00  0.00    +0.000 A 
ATOM     17  F   UNL     1      -5.157  12.476  24.733  0.00  0.00    +0.000 F 
ATOM     18  C   UNL     1      -3.139  11.938  23.680  0.00  0.00    +0.000 A 
ATOM     19  C   UNL     1      -1.918  12.355  23.132  0.00  0.00    +0.000 A 
ENDBRANCH   7  19
ENDBRANCH   1   9
BRANCH   5  20
ATOM     20  O   UNL     1       2.973   6.618  19.486  0.00  0.00    +0.000 OA
BRANCH  20  21
ATOM     21  C   UNL     1       3.393   5.902  18.322  0.00  0.00    +0.000 C 
BRANCH  21  22
ATOM     22  C   UNL     1       3.091   4.441  18.489  0.00  0.00    +0.000 A 
ATOM     23  C   UNL     1       2.746   3.628  17.407  0.00  0.00    +0.000 A 
ATOM     24  C   UNL     1       2.487   2.278  17.618  0.00  0.00    +0.000 A 
ATOM     25  C   UNL     1       2.583   1.782  18.908  0.00  0.00    +0.000 A 
ATOM     26  N   UNL     1       2.919   2.533  19.977  0.00  0.00    +0.000 NA
ATOM     27  C   UNL     1       3.160   3.842  19.745  0.00  0.00    +0.000 A 
ENDBRANCH  21  22
ENDBRANCH  20  21
ENDBRANCH   5  20
TORSDOF 5
ENDMDL
MODEL 6
REMARK VINA RESULT:      -8.1      4.001      5.333
REMARK  Name = 
REMARK  6 active torsions:
REMARK  status: ('A' for Active; 'I' for Inactive)
REMARK    1  A    between atoms: C_1  and  C_2
REMARK    2  A    between atoms: C_8  and  C_9
REMARK    3  A    between atoms: C_11  and  C_12
REMARK    4  A    between atoms: C_16  and  O_17
REMARK    5  A    between atoms: O_17  and  C_18
REMARK    6  A    between atoms: C_18  and  C_19
REMARK                            x       y       z     vdW  Elec       q    Type
REMARK                         _______ _______ _______ _____ _____    ______ ____
ROOT
ATOM      1  C   UNL     1       0.990   9.384  20.303  0.00  0.00    +0.000 A 
ATOM      2  C   UNL     1       0.982  10.006  19.049  0.00  0.00    +0.000 A 
ATOM      3  C   UNL     1       1.555   9.381  17.944  0.00  0.00    +0.000 A 
ATOM      4  C   UNL     1       2.159   8.133  18.083  0.00  0.00    +0.000 A 
ATOM      5  C   UNL     1       2.226   7.519  19.335  0.00  0.00    +0.000 A 
ATOM      6  C   UNL     1       1.621   8.135  20.436  0.00  0.00    +0.000 A 
ENDROOT
BRANCH   1   9
ATOM      7  C   UNL     1      -0.899  11.322  22.539  0.00  0.00    +0.000 A 
ATOM      8  N   UNL     1      -0.595  11.011  21.299  0.00  0.00    +0.000 NA
ATOM      9  C   UNL     1       0.344  10.018  21.447  0.00  0.00    +0.000 A 
ATOM     10  N   UNL     1       0.613   9.717  22.729  0.00  0.00    +0.000 NA
ATOM     11  O   UNL     1      -0.208  10.579  23.452  0.00  0.00    +0.000 OA
BRANCH   7  19
ATOM     12  C   UNL     1      -0.236  14.245  22.507  0.00  0.00    +0.000 C 
ATOM     13  C   UNL     1      -1.530  13.695  23.039  0.00  0.00    +0.000 A 
ATOM     14  C   UNL     1      -2.477  14.575  23.553  0.00  0.00    +0.000 A 
ATOM     15  N   UNL     1      -3.667  14.205  24.069  0.00  0.00    +0.000 NA
ATOM     16  C   UNL     1      -3.934  12.887  24.071  0.00  0.00    +0.000 A 
ATOM     17  F   UNL     1      -5.111  12.495  24.578  0.00  0.00    +0.000 F 
ATOM     18  C   UNL     1      -3.073  11.922  23.583  0.00  0.00    +0.000 A 
ATOM     19  C   UNL     1      -1.838  12.320  23.053  0.00  0.00    +0.000 A 
ENDBRANCH   7  19
ENDBRANCH   1   9
BRANCH   5  20
ATOM     20  O   UNL     1       2.851   6.325  19.589  0.00  0.00    +0.000 OA
BRANCH  20  21
ATOM     21  C   UNL     1       1.983   5.241  19.929  0.00  0.00    +0.000 C 
BRANCH  21  22
ATOM     22  C   UNL     1       2.532   3.958  19.375  0.00  0.00    +0.000 A 
ATOM     23  C   UNL     1       3.655   3.337  19.925  0.00  0.00    +0.000 A 
ATOM     24  C   UNL     1       4.115   2.143  19.378  0.00  0.00    +0.000 A 
ATOM     25  C   UNL     1       3.435   1.608  18.296  0.00  0.00    +0.000 A 
ATOM     26  N   UNL     1       2.344   2.175  17.741  0.00  0.00    +0.000 NA
ATOM     27  C   UNL     1       1.921   3.337  18.289  0.00  0.00    +0.000 A 
ENDBRANCH  21  22
ENDBRANCH  20  21
ENDBRANCH   5  20
TORSDOF 5
ENDMDL
MODEL 7
REMARK VINA RESULT:      -8.1      2.359      4.388
REMARK  Name = 
REMARK  6 active torsions:
REMARK  status: ('A' for Active; 'I' for Inactive)
REMARK    1  A    between atoms: C_1  and  C_2
REMARK    2  A    between atoms: C_8  and  C_9
REMARK    3  A    between atoms: C_11  and  C_12
REMARK    4  A    between atoms: C_16  and  O_17
REMARK    5  A    between atoms: O_17  and  C_18
REMARK    6  A    between atoms: C_18  and  C_19
REMARK                            x       y       z     vdW  Elec       q    Type
REMARK                         _______ _______ _______ _____ _____    ______ ____
ROOT
ATOM      1  C   UNL     1       3.529   6.852  17.687  0.00  0.00    +0.000 A 
ATOM      2  C   UNL     1       4.271   7.282  16.581  0.00  0.00    +0.000 A 
ATOM      3  C   UNL     1       5.163   6.419  15.946  0.00  0.00    +0.000 A 
ATOM      4  C   UNL     1       5.337   5.121  16.423  0.00  0.00    +0.000 A 
ATOM      5  C   UNL     1       4.648   4.690  17.558  0.00  0.00    +0.000 A 
ATOM      6  C   UNL     1       3.729   5.548  18.172  0.00  0.00    +0.000 A 
ENDROOT
BRANCH   1   9
ATOM      7  C   UNL     1       1.158   9.299  18.530  0.00  0.00    +0.000 A 
ATOM      8  N   UNL     1       1.902   8.722  17.614  0.00  0.00    +0.000 NA
ATOM      9  C   UNL     1       2.559   7.741  18.317  0.00  0.00    +0.000 A 
ATOM     10  N   UNL     1       2.234   7.703  19.621  0.00  0.00    +0.000 NA
ATOM     11  O   UNL     1       1.309   8.734  19.763  0.00  0.00    +0.000 OA
BRANCH   7  19
ATOM     12  C   UNL     1       2.060  12.118  19.011  0.00  0.00    +0.000 C 
ATOM     13  C   UNL     1       0.650  11.751  18.638  0.00  0.00    +0.000 A 
ATOM     14  C   UNL     1      -0.299  12.760  18.511  0.00  0.00    +0.000 A 
ATOM     15  N   UNL     1      -1.594  12.559  18.195  0.00  0.00    +0.000 NA
ATOM     16  C   UNL     1      -1.968  11.284  17.987  0.00  0.00    +0.000 A 
ATOM     17  F   UNL     1      -3.251  11.059  17.670  0.00  0.00    +0.000 F 
ATOM     18  C   UNL     1      -1.113  10.202  18.079  0.00  0.00    +0.000 A 
ATOM     19  C   UNL     1       0.230  10.425  18.413  0.00  0.00    +0.000 A 
ENDBRANCH   7  19
ENDBRANCH   1   9
BRANCH   5  20
ATOM     20  O   UNL     1       4.795   3.457  18.141  0.00  0.00    +0.000 OA
BRANCH  20  21
ATOM     21  C   UNL     1       3.655   2.598  18.051  0.00  0.00    +0.000 C 
BRANCH  21  22
ATOM     22  C   UNL     1       2.861   2.675  19.322  0.00  0.00    +0.000 A 
ATOM     23  C   UNL     1       1.479   2.881  19.320  0.00  0.00    +0.000 A 
ATOM     24  C   UNL     1       0.791   2.933  20.528  0.00  0.00    +0.000 A 
ATOM     25  C   UNL     1       1.508   2.775  21.703  0.00  0.00    +0.000 A 
ATOM     26  N   UNL     1       2.841   2.569  21.746  0.00  0.00    +0.000 NA
ATOM     27  C   UNL     1       3.485   2.528  20.558  0.00  0.00    +0.000 A 
ENDBRANCH  21  22
ENDBRANCH  20  21
ENDBRANCH   5  20
TORSDOF 5
ENDMDL
MODEL 8
REMARK VINA RESULT:      -8.1      2.061      2.307
REMARK  Name = 
REMARK  6 active torsions:
REMARK  status: ('A' for Active; 'I' for Inactive)
REMARK    1  A    between atoms: C_1  and  C_2
REMARK    2  A    between atoms: C_8  and  C_9
REMARK    3  A    between atoms: C_11  and  C_12
REMARK    4  A    between atoms: C_16  and  O_17
REMARK    5  A    between atoms: O_17  and  C_18
REMARK    6  A    between atoms: C_18  and  C_19
REMARK                            x       y       z     vdW  Elec       q    Type
REMARK                         _______ _______ _______ _____ _____    ______ ____
ROOT
ATOM      1  C   UNL     1       2.390   5.816  19.979  0.00  0.00    +0.000 A 
ATOM      2  C   UNL     1       1.567   4.875  20.609  0.00  0.00    +0.000 A 
ATOM      3  C   UNL     1       1.992   3.558  20.773  0.00  0.00    +0.000 A 
ATOM      4  C   UNL     1       3.238   3.162  20.292  0.00  0.00    +0.000 A 
ATOM      5  C   UNL     1       4.052   4.070  19.611  0.00  0.00    +0.000 A 
ATOM      6  C   UNL     1       3.636   5.400  19.478  0.00  0.00    +0.000 A 
ENDROOT
BRANCH   1   9
ATOM      7  C   UNL     1       1.112   9.062  20.369  0.00  0.00    +0.000 A 
ATOM      8  N   UNL     1       1.354   7.878  20.886  0.00  0.00    +0.000 NA
ATOM      9  C   UNL     1       1.964   7.205  19.854  0.00  0.00    +0.000 A 
ATOM     10  N   UNL     1       2.102   7.941  18.737  0.00  0.00    +0.000 NA
ATOM     11  O   UNL     1       1.538   9.168  19.076  0.00  0.00    +0.000 OA
BRANCH   7  19
ATOM     12  C   UNL     1       1.682  11.831  19.371  0.00  0.00    +0.000 C 
ATOM     13  C   UNL     1       0.734  11.536  20.500  0.00  0.00    +0.000 A 
ATOM     14  C   UNL     1       0.083  12.592  21.130  0.00  0.00    +0.000 A 
ATOM     15  N   UNL     1      -0.778  12.459  22.159  0.00  0.00    +0.000 NA
ATOM     16  C   UNL     1      -1.011  11.205  22.584  0.00  0.00    +0.000 A 
ATOM     17  F   UNL     1      -1.864  11.047  23.606  0.00  0.00    +0.000 F 
ATOM     18  C   UNL     1      -0.428  10.079  22.033  0.00  0.00    +0.000 A 
ATOM     19  C   UNL     1       0.469  10.233  20.966  0.00  0.00    +0.000 A 
ENDBRANCH   7  19
ENDBRANCH   1   9
BRANCH   5  20
ATOM     20  O   UNL     1       5.264   3.765  19.047  0.00  0.00    +0.000 OA
BRANCH  20  21
ATOM     21  C   UNL     1       6.039   4.888  18.618  0.00  0.00    +0.000 C 
BRANCH  21  22
ATOM     22  C   UNL     1       6.264   4.811  17.136  0.00  0.00    +0.000 A 
ATOM     23  C   UNL     1       5.521   3.956  16.319  0.00  0.00    +0.000 A 
ATOM     24  C   UNL     1       5.763   3.933  14.949  0.00  0.00    +0.000 A 
ATOM     25  C   UNL     1       6.744   4.768  14.439  0.00  0.00    +0.000 A 
ATOM     26  N   UNL     1       7.478   5.612  15.194  0.00  0.00    +0.000 NA
ATOM     27  C   UNL     1       7.225   5.610  16.522  0.00  0.00    +0.000 A 
ENDBRANCH  21  22
ENDBRANCH  20  21
ENDBRANCH   5  20
TORSDOF 5
ENDMDL
MODEL 9
REMARK VINA RESULT:      -8.1      1.521      2.117
REMARK  Name = 
REMARK  6 active torsions:
REMARK  status: ('A' for Active; 'I' for Inactive)
REMARK    1  A    between atoms: C_1  and  C_2
REMARK    2  A    between atoms: C_8  and  C_9
REMARK    3  A    between atoms: C_11  and  C_12
REMARK    4  A    between atoms: C_16  and  O_17
REMARK    5  A    between atoms: O_17  and  C_18
REMARK    6  A    between atoms: C_18  and  C_19
REMARK                            x       y       z     vdW  Elec       q    Type
REMARK                         _______ _______ _______ _____ _____    ______ ____
ROOT
ATOM      1  C   UNL     1       2.162   6.502  19.809  0.00  0.00    +0.000 A 
ATOM      2  C   UNL     1       2.038   5.478  20.756  0.00  0.00    +0.000 A 
ATOM      3  C   UNL     1       2.574   4.215  20.509  0.00  0.00    +0.000 A 
ATOM      4  C   UNL     1       3.223   3.956  19.304  0.00  0.00    +0.000 A 
ATOM      5  C   UNL     1       3.309   4.946  18.323  0.00  0.00    +0.000 A 
ATOM      6  C   UNL     1       2.799   6.222  18.588  0.00  0.00    +0.000 A 
ENDROOT
BRANCH   1   9
ATOM      7  C   UNL     1       1.028   9.824  19.764  0.00  0.00    +0.000 A 
ATOM      8  N   UNL     1       1.476   8.779  19.105  0.00  0.00    +0.000 NA
ATOM      9  C   UNL     1       1.645   7.836  20.092  0.00  0.00    +0.000 A 
ATOM     10  N   UNL     1       1.312   8.274  21.318  0.00  0.00    +0.000 NA
ATOM     11  O   UNL     1       0.905   9.588  21.103  0.00  0.00    +0.000 OA
BRANCH   7  19
ATOM     12  C   UNL     1      -1.641  10.342  18.500  0.00  0.00    +0.000 C 
ATOM     13  C   UNL     1      -0.591  11.402  18.683  0.00  0.00    +0.000 A 
ATOM     14  C   UNL     1      -0.852  12.695  18.241  0.00  0.00    +0.000 A 
ATOM     15  N   UNL     1       0.010  13.727  18.335  0.00  0.00    +0.000 NA
ATOM     16  C   UNL     1       1.199  13.462  18.905  0.00  0.00    +0.000 A 
ATOM     17  F   UNL     1       2.073  14.472  19.011  0.00  0.00    +0.000 F 
ATOM     18  C   UNL     1       1.568  12.220  19.385  0.00  0.00    +0.000 A 
ATOM     19  C   UNL     1       0.663  11.154  19.277  0.00  0.00    +0.000 A 
ENDBRANCH   7  19
ENDBRANCH   1   9
BRANCH   5  20
ATOM     20  O   UNL     1       3.870   4.774  17.083  0.00  0.00    +0.000 OA
BRANCH  20  21
ATOM     21  C   UNL     1       5.202   4.252  17.083  0.00  0.00    +0.000 C 
BRANCH  21  22
ATOM     22  C   UNL     1       6.169   5.331  17.475  0.00  0.00    +0.000 A 
ATOM     23  C   UNL     1       7.011   5.203  18.582  0.00  0.00    +0.000 A 
ATOM     24  C   UNL     1       7.896   6.230  18.893  0.00  0.00    +0.000 A 
ATOM     25  C   UNL     1       7.912   7.355  18.084  0.00  0.00    +0.000 A 
ATOM     26  N   UNL     1       7.119   7.513  17.004  0.00  0.00    +0.000 NA
ATOM     27  C   UNL     1       6.265   6.502  16.727  0.00  0.00    +0.000 A 
ENDBRANCH  21  22
ENDBRANCH  20  21
ENDBRANCH   5  20
TORSDOF 5
ENDMDL
