MODEL 1
REMARK VINA RESULT:      -8.5      0.000      0.000
REMARK  Name = 
REMARK  3 active torsions:
REMARK  status: ('A' for Active; 'I' for Inactive)
REMARK    1  A    between atoms: C_2  and  C_14
REMARK    2  A    between atoms: C_17  and  C_18
REMARK    3  A    between atoms: C_18  and  C_19
REMARK                            x       y       z     vdW  Elec       q    Type
REMARK                         _______ _______ _______ _____ _____    ______ ____
ROOT
ATOM      1  C   UNL     1       4.163   4.638  18.430  0.00  0.00    +0.000 C 
ATOM      2  C   UNL     1       5.519   4.265  19.035  0.00  0.00    +0.000 C 
ATOM      3  S   UNL     1       6.828   5.489  18.679  0.00  0.00    +0.000 S 
ATOM      4  C   UNL     1       6.591   5.619  16.863  0.00  0.00    +0.000 C 
ATOM      5  C   UNL     1       5.136   5.918  16.528  0.00  0.00    +0.000 C 
ATOM      6  O   UNL     1       4.820   6.800  15.732  0.00  0.00    +0.000 OA
ATOM      7  N   UNL     1       4.174   5.080  17.032  0.00  0.00    +0.000 N 
ATOM      8  H   UNL     1       3.252   5.334  16.682  0.00  0.00    +0.000 HD
ENDROOT
BRANCH   1  10
ATOM      9  O   UNL     1       2.954   5.450  20.337  0.00  0.00    +0.000 OA
ATOM     10  C   UNL     1       3.383   5.716  19.217  0.00  0.00    +0.000 C 
ATOM     11  N   UNL     1       3.073   6.820  18.451  0.00  0.00    +0.000 N 
ATOM     12  C   UNL     1       2.237   7.873  18.819  0.00  0.00    +0.000 A 
ATOM     13  C   UNL     1       1.847   8.732  17.797  0.00  0.00    +0.000 A 
ATOM     14  C   UNL     1       0.970   9.764  18.093  0.00  0.00    +0.000 A 
ATOM     15  C   UNL     1       0.524   9.926  19.407  0.00  0.00    +0.000 A 
ATOM     16  C   UNL     1      -0.371  10.955  19.756  0.00  0.00    +0.000 A 
ATOM     17  C   UNL     1      -0.778  11.106  21.079  0.00  0.00    +0.000 A 
ATOM     18  C   UNL     1      -0.295  10.237  22.053  0.00  0.00    +0.000 A 
ATOM     19  C   UNL     1       0.584   9.211  21.696  0.00  0.00    +0.000 A 
ATOM     20  C   UNL     1       1.002   9.033  20.385  0.00  0.00    +0.000 A 
ATOM     21  N   UNL     1       1.836   8.025  20.089  0.00  0.00    +0.000 NA
ATOM     22  H   UNL     1       3.383   6.824  17.488  0.00  0.00    +0.000 HD
ENDBRANCH   1  10
BRANCH   4  23
ATOM     23  C   UNL     1       6.997   4.367  16.072  0.00  0.00    +0.000 C 
BRANCH  23  24
ATOM     24  C   UNL     1       7.137   4.555  14.585  0.00  0.00    +0.000 A 
ATOM     25  C   UNL     1       8.068   5.455  14.051  0.00  0.00    +0.000 A 
ATOM     26  C   UNL     1       8.163   5.628  12.668  0.00  0.00    +0.000 A 
ATOM     27  C   UNL     1       7.331   4.910  11.809  0.00  0.00    +0.000 A 
ATOM     28  C   UNL     1       6.399   4.017  12.332  0.00  0.00    +0.000 A 
ATOM     29  C   UNL     1       6.309   3.848  13.709  0.00  0.00    +0.000 A 
ATOM     30  F   UNL     1       5.401   2.988  14.194  0.00  0.00    +0.000 F 
ENDBRANCH  23  24
ENDBRANCH   4  23
TORSDOF 3
ENDMDL
MODEL 2
REMARK VINA RESULT:      -8.4      5.218      7.167
REMARK  Name = 
REMARK  3 active torsions:
REMARK  status: ('A' for Active; 'I' for Inactive)
REMARK    1  A    between atoms: C_2  and  C_14
REMARK    2  A    between atoms: C_17  and  C_18
REMARK    3  A    between atoms: C_18  and  C_19
REMARK                            x       y       z     vdW  Elec       q    Type
REMARK                         _______ _______ _______ _____ _____    ______ ____
ROOT
ATOM      1  C   UNL     1       6.575   6.996  16.969  0.00  0.00    +0.000 C 
ATOM      2  C   UNL     1       5.239   6.910  17.712  0.00  0.00    +0.000 C 
ATOM      3  S   UNL     1       5.299   5.818  19.176  0.00  0.00    +0.000 S 
ATOM      4  C   UNL     1       6.052   4.343  18.383  0.00  0.00    +0.000 C 
ATOM      5  C   UNL     1       7.329   4.720  17.643  0.00  0.00    +0.000 C 
ATOM      6  O   UNL     1       8.367   4.075  17.768  0.00  0.00    +0.000 OA
ATOM      7  N   UNL     1       7.261   5.725  16.712  0.00  0.00    +0.000 N 
ATOM      8  H   UNL     1       8.151   5.837  16.232  0.00  0.00    +0.000 HD
ENDROOT
BRANCH   1  10
ATOM      9  O   UNL     1       8.277   7.507  18.582  0.00  0.00    +0.000 OA
ATOM     10  C   UNL     1       7.621   7.923  17.631  0.00  0.00    +0.000 C 
ATOM     11  N   UNL     1       7.540   9.225  17.186  0.00  0.00    +0.000 N 
ATOM     12  C   UNL     1       8.221  10.322  17.710  0.00  0.00    +0.000 A 
ATOM     13  C   UNL     1       7.782  11.574  17.293  0.00  0.00    +0.000 A 
ATOM     14  C   UNL     1       8.385  12.703  17.827  0.00  0.00    +0.000 A 
ATOM     15  C   UNL     1       9.428  12.552  18.744  0.00  0.00    +0.000 A 
ATOM     16  C   UNL     1      10.068  13.667  19.318  0.00  0.00    +0.000 A 
ATOM     17  C   UNL     1      11.120  13.484  20.210  0.00  0.00    +0.000 A 
ATOM     18  C   UNL     1      11.537  12.196  20.531  0.00  0.00    +0.000 A 
ATOM     19  C   UNL     1      10.888  11.094  19.966  0.00  0.00    +0.000 A 
ATOM     20  C   UNL     1       9.834  11.246  19.078  0.00  0.00    +0.000 A 
ATOM     21  N   UNL     1       9.233  10.158  18.574  0.00  0.00    +0.000 NA
ATOM     22  H   UNL     1       6.839   9.440  16.488  0.00  0.00    +0.000 HD
ENDBRANCH   1  10
BRANCH   4  23
ATOM     23  C   UNL     1       5.140   3.615  17.385  0.00  0.00    +0.000 C 
BRANCH  23  24
ATOM     24  C   UNL     1       3.728   3.377  17.850  0.00  0.00    +0.000 A 
ATOM     25  C   UNL     1       2.663   4.142  17.359  0.00  0.00    +0.000 A 
ATOM     26  C   UNL     1       1.365   3.917  17.822  0.00  0.00    +0.000 A 
ATOM     27  C   UNL     1       1.119   2.931  18.778  0.00  0.00    +0.000 A 
ATOM     28  C   UNL     1       2.173   2.169  19.275  0.00  0.00    +0.000 A 
ATOM     29  C   UNL     1       3.463   2.397  18.810  0.00  0.00    +0.000 A 
ATOM     30  F   UNL     1       4.466   1.656  19.306  0.00  0.00    +0.000 F 
ENDBRANCH  23  24
ENDBRANCH   4  23
TORSDOF 3
ENDMDL
MODEL 3
REMARK VINA RESULT:      -8.4      0.923      1.305
REMARK  Name = 
REMARK  3 active torsions:
REMARK  status: ('A' for Active; 'I' for Inactive)
REMARK    1  A    between atoms: C_2  and  C_14
REMARK    2  A    between atoms: C_17  and  C_18
REMARK    3  A    between atoms: C_18  and  C_19
REMARK                            x       y       z     vdW  Elec       q    Type
REMARK                         _______ _______ _______ _____ _____    ______ ____
ROOT
ATOM      1  C   UNL     1       4.504   4.576  18.385  0.00  0.00    +0.000 C 
ATOM      2  C   UNL     1       5.919   4.382  18.937  0.00  0.00    +0.000 C 
ATOM      3  S   UNL     1       7.076   5.704  18.433  0.00  0.00    +0.000 S 
ATOM      4  C   UNL     1       6.739   5.686  16.629  0.00  0.00    +0.000 C 
ATOM      5  C   UNL     1       5.246   5.815  16.356  0.00  0.00    +0.000 C 
ATOM      6  O   UNL     1       4.804   6.605  15.525  0.00  0.00    +0.000 OA
ATOM      7  N   UNL     1       4.401   4.922  16.964  0.00  0.00    +0.000 N 
ATOM      8  H   UNL     1       3.443   5.058  16.650  0.00  0.00    +0.000 HD
ENDROOT
BRANCH   1  10
ATOM      9  O   UNL     1       3.181   5.330  20.239  0.00  0.00    +0.000 OA
ATOM     10  C   UNL     1       3.656   5.622  19.145  0.00  0.00    +0.000 C 
ATOM     11  N   UNL     1       3.353   6.726  18.378  0.00  0.00    +0.000 N 
ATOM     12  C   UNL     1       2.471   7.751  18.716  0.00  0.00    +0.000 A 
ATOM     13  C   UNL     1       2.107   8.613  17.686  0.00  0.00    +0.000 A 
ATOM     14  C   UNL     1       1.188   9.616  17.951  0.00  0.00    +0.000 A 
ATOM     15  C   UNL     1       0.674   9.748  19.243  0.00  0.00    +0.000 A 
ATOM     16  C   UNL     1      -0.267  10.747  19.559  0.00  0.00    +0.000 A 
ATOM     17  C   UNL     1      -0.741  10.870  20.862  0.00  0.00    +0.000 A 
ATOM     18  C   UNL     1      -0.282  10.002  21.848  0.00  0.00    +0.000 A 
ATOM     19  C   UNL     1       0.641   9.005  21.523  0.00  0.00    +0.000 A 
ATOM     20  C   UNL     1       1.128   8.857  20.233  0.00  0.00    +0.000 A 
ATOM     21  N   UNL     1       2.004   7.875  19.966  0.00  0.00    +0.000 NA
ATOM     22  H   UNL     1       3.709   6.752  17.431  0.00  0.00    +0.000 HD
ENDBRANCH   1  10
BRANCH   4  23
ATOM     23  C   UNL     1       7.233   4.430  15.896  0.00  0.00    +0.000 C 
BRANCH  23  24
ATOM     24  C   UNL     1       6.900   4.360  14.430  0.00  0.00    +0.000 A 
ATOM     25  C   UNL     1       5.834   3.580  13.964  0.00  0.00    +0.000 A 
ATOM     26  C   UNL     1       5.558   3.513  12.596  0.00  0.00    +0.000 A 
ATOM     27  C   UNL     1       6.342   4.221  11.684  0.00  0.00    +0.000 A 
ATOM     28  C   UNL     1       7.406   4.995  12.138  0.00  0.00    +0.000 A 
ATOM     29  C   UNL     1       7.676   5.058  13.500  0.00  0.00    +0.000 A 
ATOM     30  F   UNL     1       8.709   5.805  13.918  0.00  0.00    +0.000 F 
ENDBRANCH  23  24
ENDBRANCH   4  23
TORSDOF 3
ENDMDL
MODEL 4
REMARK VINA RESULT:      -8.2      1.196      1.528
REMARK  Name = 
REMARK  3 active torsions:
REMARK  status: ('A' for Active; 'I' for Inactive)
REMARK    1  A    between atoms: C_2  and  C_14
REMARK    2  A    between atoms: C_17  and  C_18
REMARK    3  A    between atoms: C_18  and  C_19
REMARK                            x       y       z     vdW  Elec       q    Type
REMARK                         _______ _______ _______ _____ _____    ______ ____
ROOT
ATOM      1  C   UNL     1       3.091   4.400  18.800  0.00  0.00    +0.000 C 
ATOM      2  C   UNL     1       4.337   3.723  19.379  0.00  0.00    +0.000 C 
ATOM      3  S   UNL     1       5.858   4.713  19.166  0.00  0.00    +0.000 S 
ATOM      4  C   UNL     1       5.703   5.064  17.370  0.00  0.00    +0.000 C 
ATOM      5  C   UNL     1       4.338   5.660  17.051  0.00  0.00    +0.000 C 
ATOM      6  O   UNL     1       4.214   6.660  16.348  0.00  0.00    +0.000 OA
ATOM      7  N   UNL     1       3.224   4.970  17.456  0.00  0.00    +0.000 N 
ATOM      8  H   UNL     1       2.376   5.423  17.124  0.00  0.00    +0.000 HD
ENDROOT
BRANCH   1  10
ATOM      9  O   UNL     1       1.954   5.224  20.747  0.00  0.00    +0.000 OA
ATOM     10  C   UNL     1       2.498   5.520  19.686  0.00  0.00    +0.000 C 
ATOM     11  N   UNL     1       2.469   6.745  19.053  0.00  0.00    +0.000 N 
ATOM     12  C   UNL     1       1.844   7.901  19.518  0.00  0.00    +0.000 A 
ATOM     13  C   UNL     1       1.703   8.934  18.598  0.00  0.00    +0.000 A 
ATOM     14  C   UNL     1       1.038  10.087  18.987  0.00  0.00    +0.000 A 
ATOM     15  C   UNL     1       0.552  10.187  20.293  0.00  0.00    +0.000 A 
ATOM     16  C   UNL     1      -0.135  11.334  20.734  0.00  0.00    +0.000 A 
ATOM     17  C   UNL     1      -0.585  11.414  22.048  0.00  0.00    +0.000 A 
ATOM     18  C   UNL     1      -0.352  10.358  22.923  0.00  0.00    +0.000 A 
ATOM     19  C   UNL     1       0.320   9.218  22.474  0.00  0.00    +0.000 A 
ATOM     20  C   UNL     1       0.775   9.108  21.169  0.00  0.00    +0.000 A 
ATOM     21  N   UNL     1       1.403   7.987  20.780  0.00  0.00    +0.000 NA
ATOM     22  H   UNL     1       2.834   6.795  18.111  0.00  0.00    +0.000 HD
ENDBRANCH   1  10
BRANCH   4  23
ATOM     23  C   UNL     1       5.896   3.843  16.459  0.00  0.00    +0.000 C 
BRANCH  23  24
ATOM     24  C   UNL     1       6.335   4.147  15.051  0.00  0.00    +0.000 A 
ATOM     25  C   UNL     1       5.819   3.437  13.960  0.00  0.00    +0.000 A 
ATOM     26  C   UNL     1       6.258   3.722  12.665  0.00  0.00    +0.000 A 
ATOM     27  C   UNL     1       7.215   4.714  12.449  0.00  0.00    +0.000 A 
ATOM     28  C   UNL     1       7.737   5.422  13.528  0.00  0.00    +0.000 A 
ATOM     29  C   UNL     1       7.296   5.134  14.814  0.00  0.00    +0.000 A 
ATOM     30  F   UNL     1       7.815   5.823  15.842  0.00  0.00    +0.000 F 
ENDBRANCH  23  24
ENDBRANCH   4  23
TORSDOF 3
ENDMDL
MODEL 5
REMARK VINA RESULT:      -8.1      4.568     10.046
REMARK  Name = 
REMARK  3 active torsions:
REMARK  status: ('A' for Active; 'I' for Inactive)
REMARK    1  A    between atoms: C_2  and  C_14
REMARK    2  A    between atoms: C_17  and  C_18
REMARK    3  A    between atoms: C_18  and  C_19
REMARK                            x       y       z     vdW  Elec       q    Type
REMARK                         _______ _______ _______ _____ _____    ______ ____
ROOT
ATOM      1  C   UNL     1       1.486  10.332  18.834  0.00  0.00    +0.000 C 
ATOM      2  C   UNL     1       1.147  10.562  20.309  0.00  0.00    +0.000 C 
ATOM      3  S   UNL     1      -0.459   9.843  20.800  0.00  0.00    +0.000 S 
ATOM      4  C   UNL     1      -1.493  10.547  19.457  0.00  0.00    +0.000 C 
ATOM      5  C   UNL     1      -0.890  10.240  18.092  0.00  0.00    +0.000 C 
ATOM      6  O   UNL     1      -1.567   9.799  17.166  0.00  0.00    +0.000 OA
ATOM      7  N   UNL     1       0.415  10.601  17.870  0.00  0.00    +0.000 N 
ATOM      8  H   UNL     1       0.683  10.416  16.906  0.00  0.00    +0.000 HD
ENDROOT
BRANCH   1  10
ATOM      9  O   UNL     1       2.258   8.616  17.343  0.00  0.00    +0.000 OA
ATOM     10  C   UNL     1       2.011   8.914  18.509  0.00  0.00    +0.000 C 
ATOM     11  N   UNL     1       1.939   8.056  19.586  0.00  0.00    +0.000 N 
ATOM     12  C   UNL     1       2.172   6.683  19.566  0.00  0.00    +0.000 A 
ATOM     13  C   UNL     1       1.775   5.976  20.696  0.00  0.00    +0.000 A 
ATOM     14  C   UNL     1       1.929   4.598  20.709  0.00  0.00    +0.000 A 
ATOM     15  C   UNL     1       2.499   3.964  19.602  0.00  0.00    +0.000 A 
ATOM     16  C   UNL     1       2.670   2.567  19.565  0.00  0.00    +0.000 A 
ATOM     17  C   UNL     1       3.264   1.968  18.458  0.00  0.00    +0.000 A 
ATOM     18  C   UNL     1       3.687   2.754  17.391  0.00  0.00    +0.000 A 
ATOM     19  C   UNL     1       3.501   4.139  17.430  0.00  0.00    +0.000 A 
ATOM     20  C   UNL     1       2.909   4.763  18.518  0.00  0.00    +0.000 A 
ATOM     21  N   UNL     1       2.739   6.094  18.503  0.00  0.00    +0.000 NA
ATOM     22  H   UNL     1       1.575   8.425  20.455  0.00  0.00    +0.000 HD
ENDBRANCH   1  10
BRANCH   4  23
ATOM     23  C   UNL     1      -1.702  12.066  19.537  0.00  0.00    +0.000 C 
BRANCH  23  24
ATOM     24  C   UNL     1      -2.816  12.522  20.440  0.00  0.00    +0.000 A 
ATOM     25  C   UNL     1      -2.568  12.897  21.767  0.00  0.00    +0.000 A 
ATOM     26  C   UNL     1      -3.622  13.295  22.592  0.00  0.00    +0.000 A 
ATOM     27  C   UNL     1      -4.929  13.321  22.104  0.00  0.00    +0.000 A 
ATOM     28  C   UNL     1      -5.185  12.944  20.788  0.00  0.00    +0.000 A 
ATOM     29  C   UNL     1      -4.132  12.550  19.971  0.00  0.00    +0.000 A 
ATOM     30  F   UNL     1      -4.399  12.185  18.707  0.00  0.00    +0.000 F 
ENDBRANCH  23  24
ENDBRANCH   4  23
TORSDOF 3
ENDMDL
MODEL 6
REMARK VINA RESULT:      -8.0      5.222      7.210
REMARK  Name = 
REMARK  3 active torsions:
REMARK  status: ('A' for Active; 'I' for Inactive)
REMARK    1  A    between atoms: C_2  and  C_14
REMARK    2  A    between atoms: C_17  and  C_18
REMARK    3  A    between atoms: C_18  and  C_19
REMARK                            x       y       z     vdW  Elec       q    Type
REMARK                         _______ _______ _______ _____ _____    ______ ____
ROOT
ATOM      1  C   UNL     1       6.462   7.158  16.917  0.00  0.00    +0.000 C 
ATOM      2  C   UNL     1       5.181   7.021  17.745  0.00  0.00    +0.000 C 
ATOM      3  S   UNL     1       5.337   5.830  19.121  0.00  0.00    +0.000 S 
ATOM      4  C   UNL     1       6.026   4.414  18.177  0.00  0.00    +0.000 C 
ATOM      5  C   UNL     1       7.250   4.841  17.378  0.00  0.00    +0.000 C 
ATOM      6  O   UNL     1       8.291   4.189  17.385  0.00  0.00    +0.000 OA
ATOM      7  N   UNL     1       7.121   5.909  16.526  0.00  0.00    +0.000 N 
ATOM      8  H   UNL     1       7.977   6.053  15.994  0.00  0.00    +0.000 HD
ENDROOT
BRANCH   1  10
ATOM      9  O   UNL     1       8.229   7.578  18.485  0.00  0.00    +0.000 OA
ATOM     10  C   UNL     1       7.555   8.038  17.567  0.00  0.00    +0.000 C 
ATOM     11  N   UNL     1       7.499   9.353  17.158  0.00  0.00    +0.000 N 
ATOM     12  C   UNL     1       8.229  10.415  17.687  0.00  0.00    +0.000 A 
ATOM     13  C   UNL     1       7.815  11.690  17.316  0.00  0.00    +0.000 A 
ATOM     14  C   UNL     1       8.468  12.787  17.858  0.00  0.00    +0.000 A 
ATOM     15  C   UNL     1       9.535  12.582  18.735  0.00  0.00    +0.000 A 
ATOM     16  C   UNL     1      10.226  13.663  19.315  0.00  0.00    +0.000 A 
ATOM     17  C   UNL     1      11.301  13.426  20.167  0.00  0.00    +0.000 A 
ATOM     18  C   UNL     1      11.689  12.119  20.441  0.00  0.00    +0.000 A 
ATOM     19  C   UNL     1      10.990  11.051  19.871  0.00  0.00    +0.000 A 
ATOM     20  C   UNL     1       9.913  11.256  19.023  0.00  0.00    +0.000 A 
ATOM     21  N   UNL     1       9.264  10.199  18.512  0.00  0.00    +0.000 NA
ATOM     22  H   UNL     1       6.783   9.606  16.489  0.00  0.00    +0.000 HD
ENDBRANCH   1  10
BRANCH   4  23
ATOM     23  C   UNL     1       5.043   3.757  17.198  0.00  0.00    +0.000 C 
BRANCH  23  24
ATOM     24  C   UNL     1       3.750   3.275  17.800  0.00  0.00    +0.000 A 
ATOM     25  C   UNL     1       3.653   2.011  18.395  0.00  0.00    +0.000 A 
ATOM     26  C   UNL     1       2.436   1.577  18.927  0.00  0.00    +0.000 A 
ATOM     27  C   UNL     1       1.310   2.397  18.868  0.00  0.00    +0.000 A 
ATOM     28  C   UNL     1       1.396   3.653  18.274  0.00  0.00    +0.000 A 
ATOM     29  C   UNL     1       2.609   4.080  17.747  0.00  0.00    +0.000 A 
ATOM     30  F   UNL     1       2.671   5.291  17.173  0.00  0.00    +0.000 F 
ENDBRANCH  23  24
ENDBRANCH   4  23
TORSDOF 3
ENDMDL
MODEL 7
REMARK VINA RESULT:      -8.0      4.584     10.086
REMARK  Name = 
REMARK  3 active torsions:
REMARK  status: ('A' for Active; 'I' for Inactive)
REMARK    1  A    between atoms: C_2  and  C_14
REMARK    2  A    between atoms: C_17  and  C_18
REMARK    3  A    between atoms: C_18  and  C_19
REMARK                            x       y       z     vdW  Elec       q    Type
REMARK                         _______ _______ _______ _____ _____    ______ ____
ROOT
ATOM      1  C   UNL     1       1.489  10.323  18.849  0.00  0.00    +0.000 C 
ATOM      2  C   UNL     1       1.138  10.544  20.323  0.00  0.00    +0.000 C 
ATOM      3  S   UNL     1      -0.472   9.822  20.797  0.00  0.00    +0.000 S 
ATOM      4  C   UNL     1      -1.495  10.535  19.449  0.00  0.00    +0.000 C 
ATOM      5  C   UNL     1      -0.881  10.236  18.088  0.00  0.00    +0.000 C 
ATOM      6  O   UNL     1      -1.550   9.801  17.154  0.00  0.00    +0.000 OA
ATOM      7  N   UNL     1       0.426  10.599  17.878  0.00  0.00    +0.000 N 
ATOM      8  H   UNL     1       0.702  10.419  16.915  0.00  0.00    +0.000 HD
ENDROOT
BRANCH   1  10
ATOM      9  O   UNL     1       2.264   8.613  17.354  0.00  0.00    +0.000 OA
ATOM     10  C   UNL     1       2.016   8.907  18.520  0.00  0.00    +0.000 C 
ATOM     11  N   UNL     1       1.946   8.046  19.594  0.00  0.00    +0.000 N 
ATOM     12  C   UNL     1       2.181   6.673  19.570  0.00  0.00    +0.000 A 
ATOM     13  C   UNL     1       1.784   5.961  20.698  0.00  0.00    +0.000 A 
ATOM     14  C   UNL     1       1.940   4.584  20.706  0.00  0.00    +0.000 A 
ATOM     15  C   UNL     1       2.511   3.954  19.597  0.00  0.00    +0.000 A 
ATOM     16  C   UNL     1       2.685   2.558  19.555  0.00  0.00    +0.000 A 
ATOM     17  C   UNL     1       3.280   1.963  18.446  0.00  0.00    +0.000 A 
ATOM     18  C   UNL     1       3.702   2.754  17.382  0.00  0.00    +0.000 A 
ATOM     19  C   UNL     1       3.514   4.138  17.426  0.00  0.00    +0.000 A 
ATOM     20  C   UNL     1       2.921   4.758  18.515  0.00  0.00    +0.000 A 
ATOM     21  N   UNL     1       2.748   6.088  18.505  0.00  0.00    +0.000 NA
ATOM     22  H   UNL     1       1.580   8.410  20.465  0.00  0.00    +0.000 HD
ENDBRANCH   1  10
BRANCH   4  23
ATOM     23  C   UNL     1      -1.704  12.053  19.537  0.00  0.00    +0.000 C 
BRANCH  23  24
ATOM     24  C   UNL     1      -2.837  12.503  20.420  0.00  0.00    +0.000 A 
ATOM     25  C   UNL     1      -4.147  12.592  19.932  0.00  0.00    +0.000 A 
ATOM     26  C   UNL     1      -5.178  13.034  20.765  0.00  0.00    +0.000 A 
ATOM     27  C   UNL     1      -4.911  13.391  22.087  0.00  0.00    +0.000 A 
ATOM     28  C   UNL     1      -3.611  13.311  22.578  0.00  0.00    +0.000 A 
ATOM     29  C   UNL     1      -2.589  12.870  21.745  0.00  0.00    +0.000 A 
ATOM     30  F   UNL     1      -1.342  12.804  22.236  0.00  0.00    +0.000 F 
ENDBRANCH  23  24
ENDBRANCH   4  23
TORSDOF 3
ENDMDL
MODEL 8
REMARK VINA RESULT:      -7.9      4.584      9.867
REMARK  Name = 
REMARK  3 active torsions:
REMARK  status: ('A' for Active; 'I' for Inactive)
REMARK    1  A    between atoms: C_2  and  C_14
REMARK    2  A    between atoms: C_17  and  C_18
REMARK    3  A    between atoms: C_18  and  C_19
REMARK                            x       y       z     vdW  Elec       q    Type
REMARK                         _______ _______ _______ _____ _____    ______ ____
ROOT
ATOM      1  C   UNL     1       1.512  10.323  18.815  0.00  0.00    +0.000 C 
ATOM      2  C   UNL     1       1.246  10.580  20.301  0.00  0.00    +0.000 C 
ATOM      3  S   UNL     1      -0.364   9.928  20.867  0.00  0.00    +0.000 S 
ATOM      4  C   UNL     1      -1.427  10.660  19.561  0.00  0.00    +0.000 C 
ATOM      5  C   UNL     1      -0.895  10.317  18.176  0.00  0.00    +0.000 C 
ATOM      6  O   UNL     1      -1.628   9.894  17.284  0.00  0.00    +0.000 OA
ATOM      7  N   UNL     1       0.411  10.625  17.894  0.00  0.00    +0.000 N 
ATOM      8  H   UNL     1       0.631  10.420  16.922  0.00  0.00    +0.000 HD
ENDROOT
BRANCH   1  10
ATOM      9  O   UNL     1       2.131   8.558  17.310  0.00  0.00    +0.000 OA
ATOM     10  C   UNL     1       1.967   8.883  18.484  0.00  0.00    +0.000 C 
ATOM     11  N   UNL     1       1.932   8.045  19.578  0.00  0.00    +0.000 N 
ATOM     12  C   UNL     1       2.117   6.663  19.568  0.00  0.00    +0.000 A 
ATOM     13  C   UNL     1       1.766   5.989  20.733  0.00  0.00    +0.000 A 
ATOM     14  C   UNL     1       1.873   4.607  20.760  0.00  0.00    +0.000 A 
ATOM     15  C   UNL     1       2.352   3.936  19.632  0.00  0.00    +0.000 A 
ATOM     16  C   UNL     1       2.473   2.534  19.609  0.00  0.00    +0.000 A 
ATOM     17  C   UNL     1       2.977   1.896  18.479  0.00  0.00    +0.000 A 
ATOM     18  C   UNL     1       3.359   2.651  17.374  0.00  0.00    +0.000 A 
ATOM     19  C   UNL     1       3.224   4.041  17.400  0.00  0.00    +0.000 A 
ATOM     20  C   UNL     1       2.721   4.703  18.510  0.00  0.00    +0.000 A 
ATOM     21  N   UNL     1       2.596   6.039  18.483  0.00  0.00    +0.000 NA
ATOM     22  H   UNL     1       1.635   8.439  20.461  0.00  0.00    +0.000 HD
ENDBRANCH   1  10
BRANCH   4  23
ATOM     23  C   UNL     1      -1.574  12.186  19.633  0.00  0.00    +0.000 C 
BRANCH  23  24
ATOM     24  C   UNL     1      -1.686  12.764  21.019  0.00  0.00    +0.000 A 
ATOM     25  C   UNL     1      -2.822  12.545  21.807  0.00  0.00    +0.000 A 
ATOM     26  C   UNL     1      -2.913  13.110  23.081  0.00  0.00    +0.000 A 
ATOM     27  C   UNL     1      -1.874  13.898  23.577  0.00  0.00    +0.000 A 
ATOM     28  C   UNL     1      -0.743  14.126  22.798  0.00  0.00    +0.000 A 
ATOM     29  C   UNL     1      -0.658  13.560  21.532  0.00  0.00    +0.000 A 
ATOM     30  F   UNL     1       0.438  13.795  20.793  0.00  0.00    +0.000 F 
ENDBRANCH  23  24
ENDBRANCH   4  23
TORSDOF 3
ENDMDL
MODEL 9
REMARK VINA RESULT:      -7.9      5.244      7.190
REMARK  Name = 
REMARK  3 active torsions:
REMARK  status: ('A' for Active; 'I' for Inactive)
REMARK    1  A    between atoms: C_2  and  C_14
REMARK    2  A    between atoms: C_17  and  C_18
REMARK    3  A    between atoms: C_18  and  C_19
REMARK                            x       y       z     vdW  Elec       q    Type
REMARK                         _______ _______ _______ _____ _____    ______ ____
ROOT
ATOM      1  C   UNL     1       7.205   6.574  17.141  0.00  0.00    +0.000 C 
ATOM      2  C   UNL     1       5.855   7.033  16.585  0.00  0.00    +0.000 C 
ATOM      3  S   UNL     1       4.553   7.150  17.862  0.00  0.00    +0.000 S 
ATOM      4  C   UNL     1       4.765   5.491  18.619  0.00  0.00    +0.000 C 
ATOM      5  C   UNL     1       6.218   5.258  19.011  0.00  0.00    +0.000 C 
ATOM      6  O   UNL     1       6.531   4.817  20.115  0.00  0.00    +0.000 OA
ATOM      7  N   UNL     1       7.179   5.420  18.046  0.00  0.00    +0.000 N 
ATOM      8  H   UNL     1       8.098   5.166  18.402  0.00  0.00    +0.000 HD
ENDROOT
BRANCH   1  10
ATOM      9  O   UNL     1       8.525   7.425  18.957  0.00  0.00    +0.000 OA
ATOM     10  C   UNL     1       8.007   7.676  17.872  0.00  0.00    +0.000 C 
ATOM     11  N   UNL     1       7.864   8.917  17.290  0.00  0.00    +0.000 N 
ATOM     12  C   UNL     1       8.316  10.130  17.807  0.00  0.00    +0.000 A 
ATOM     13  C   UNL     1       7.824  11.279  17.198  0.00  0.00    +0.000 A 
ATOM     14  C   UNL     1       8.194  12.514  17.707  0.00  0.00    +0.000 A 
ATOM     15  C   UNL     1       9.066  12.571  18.797  0.00  0.00    +0.000 A 
ATOM     16  C   UNL     1       9.466  13.800  19.353  0.00  0.00    +0.000 A 
ATOM     17  C   UNL     1      10.356  13.824  20.423  0.00  0.00    +0.000 A 
ATOM     18  C   UNL     1      10.848  12.629  20.938  0.00  0.00    +0.000 A 
ATOM     19  C   UNL     1      10.436  11.412  20.388  0.00  0.00    +0.000 A 
ATOM     20  C   UNL     1       9.547  11.357  19.325  0.00  0.00    +0.000 A 
ATOM     21  N   UNL     1       9.170  10.165  18.840  0.00  0.00    +0.000 NA
ATOM     22  H   UNL     1       7.280   8.985  16.466  0.00  0.00    +0.000 HD
ENDBRANCH   1  10
BRANCH   4  23
ATOM     23  C   UNL     1       4.336   4.319  17.726  0.00  0.00    +0.000 C 
BRANCH  23  24
ATOM     24  C   UNL     1       3.083   3.602  18.153  0.00  0.00    +0.000 A 
ATOM     25  C   UNL     1       1.816   4.066  17.776  0.00  0.00    +0.000 A 
ATOM     26  C   UNL     1       0.667   3.396  18.204  0.00  0.00    +0.000 A 
ATOM     27  C   UNL     1       0.772   2.262  19.009  0.00  0.00    +0.000 A 
ATOM     28  C   UNL     1       2.027   1.797  19.392  0.00  0.00    +0.000 A 
ATOM     29  C   UNL     1       3.167   2.467  18.964  0.00  0.00    +0.000 A 
ATOM     30  F   UNL     1       4.367   2.006  19.348  0.00  0.00    +0.000 F 
ENDBRANCH  23  24
ENDBRANCH   4  23
TORSDOF 3
ENDMDL
