MODEL 1
REMARK VINA RESULT:      -8.0      0.000      0.000
REMARK  Name = 
REMARK  3 active torsions:
REMARK  status: ('A' for Active; 'I' for Inactive)
REMARK    1  A    between atoms: C_1  and  C_2
REMARK    2  A    between atoms: C_10  and  C_11
REMARK    3  A    between atoms: N_13  and  C_14
REMARK                            x       y       z     vdW  Elec       q    Type
REMARK                         _______ _______ _______ _____ _____    ______ ____
ROOT
ATOM      1  C   UNL     1       2.502   5.564  18.162  0.00  0.00    +0.000 C 
ATOM      2  O   UNL     1       1.324   5.367  17.880  0.00  0.00    +0.000 OA
ATOM      3  N   UNL     1       2.970   6.698  18.812  0.00  0.00    +0.000 N 
ATOM      4  H   UNL     1       3.971   6.851  18.784  0.00  0.00    +0.000 HD
ENDROOT
BRANCH   3   5
ATOM      5  C   UNL     1       2.154   7.746  19.310  0.00  0.00    +0.000 A 
ATOM      6  C   UNL     1       1.710   8.813  18.484  0.00  0.00    +0.000 A 
ATOM      7  C   UNL     1       0.933   9.868  18.974  0.00  0.00    +0.000 A 
ATOM      8  C   UNL     1       0.601   9.817  20.299  0.00  0.00    +0.000 A 
ATOM      9  N   UNL     1      -0.148  10.709  21.054  0.00  0.00    +0.000 N 
ATOM     10  C   UNL     1      -0.215  10.233  22.369  0.00  0.00    +0.000 A 
ATOM     11  O   UNL     1      -0.789  10.762  23.305  0.00  0.00    +0.000 OA
ATOM     12  N   UNL     1       0.508   9.028  22.399  0.00  0.00    +0.000 N 
ATOM     13  C   UNL     1       1.008   8.772  21.125  0.00  0.00    +0.000 A 
ATOM     14  C   UNL     1       1.775   7.719  20.663  0.00  0.00    +0.000 A 
ATOM     15  H   UNL     1      -0.576  11.564  20.740  0.00  0.00    +0.000 HD
ATOM     16  H   UNL     1       0.626   8.476  23.232  0.00  0.00    +0.000 HD
ENDBRANCH   3   5
BRANCH   1  26
ATOM     17  C   UNL     1       2.847   2.328  18.902  0.00  0.00    +0.000 C 
ATOM     18  C   UNL     1       3.638   3.241  18.036  0.00  0.00    +0.000 A 
ATOM     19  N   UNL     1       4.671   2.743  17.269  0.00  0.00    +0.000 N 
ATOM     20  C   UNL     1       5.233   3.728  16.494  0.00  0.00    +0.000 A 
ATOM     21  C   UNL     1       6.279   3.668  15.563  0.00  0.00    +0.000 A 
ATOM     22  C   UNL     1       6.641   4.854  14.914  0.00  0.00    +0.000 A 
ATOM     23  C   UNL     1       5.979   6.048  15.182  0.00  0.00    +0.000 A 
ATOM     24  C   UNL     1       4.928   6.083  16.101  0.00  0.00    +0.000 A 
ATOM     25  C   UNL     1       4.542   4.901  16.772  0.00  0.00    +0.000 A 
ATOM     26  C   UNL     1       3.513   4.595  17.730  0.00  0.00    +0.000 A 
ATOM     27  H   UNL     1       4.960   1.775  17.242  0.00  0.00    +0.000 HD
ENDBRANCH   1  26
TORSDOF 2
ENDMDL
MODEL 2
REMARK VINA RESULT:      -7.9      1.290      1.896
REMARK  Name = 
REMARK  3 active torsions:
REMARK  status: ('A' for Active; 'I' for Inactive)
REMARK    1  A    between atoms: C_1  and  C_2
REMARK    2  A    between atoms: C_10  and  C_11
REMARK    3  A    between atoms: N_13  and  C_14
REMARK                            x       y       z     vdW  Elec       q    Type
REMARK                         _______ _______ _______ _____ _____    ______ ____
ROOT
ATOM      1  C   UNL     1       2.505   5.574  18.130  0.00  0.00    +0.000 C 
ATOM      2  O   UNL     1       1.323   5.332  17.906  0.00  0.00    +0.000 OA
ATOM      3  N   UNL     1       2.966   6.753  18.702  0.00  0.00    +0.000 N 
ATOM      4  H   UNL     1       3.959   6.931  18.625  0.00  0.00    +0.000 HD
ENDROOT
BRANCH   3   5
ATOM      5  C   UNL     1       2.139   7.802  19.180  0.00  0.00    +0.000 A 
ATOM      6  C   UNL     1       1.666   7.839  20.519  0.00  0.00    +0.000 A 
ATOM      7  C   UNL     1       0.823   8.851  20.990  0.00  0.00    +0.000 A 
ATOM      8  C   UNL     1       0.484   9.828  20.095  0.00  0.00    +0.000 A 
ATOM      9  N   UNL     1      -0.324  10.942  20.273  0.00  0.00    +0.000 N 
ATOM     10  C   UNL     1      -0.378  11.650  19.067  0.00  0.00    +0.000 A 
ATOM     11  O   UNL     1      -0.997  12.678  18.855  0.00  0.00    +0.000 OA
ATOM     12  N   UNL     1       0.419  10.944  18.149  0.00  0.00    +0.000 N 
ATOM     13  C   UNL     1       0.950   9.825  18.783  0.00  0.00    +0.000 A 
ATOM     14  C   UNL     1       1.784   8.835  18.295  0.00  0.00    +0.000 A 
ATOM     15  H   UNL     1      -0.809  11.216  21.111  0.00  0.00    +0.000 HD
ATOM     16  H   UNL     1       0.549  11.234  17.195  0.00  0.00    +0.000 HD
ENDBRANCH   3   5
BRANCH   1  26
ATOM     17  C   UNL     1       2.860   2.339  18.867  0.00  0.00    +0.000 C 
ATOM     18  C   UNL     1       3.655   3.258  18.011  0.00  0.00    +0.000 A 
ATOM     19  N   UNL     1       4.699   2.767  17.254  0.00  0.00    +0.000 N 
ATOM     20  C   UNL     1       5.263   3.757  16.487  0.00  0.00    +0.000 A 
ATOM     21  C   UNL     1       6.319   3.705  15.566  0.00  0.00    +0.000 A 
ATOM     22  C   UNL     1       6.681   4.894  14.923  0.00  0.00    +0.000 A 
ATOM     23  C   UNL     1       6.010   6.085  15.187  0.00  0.00    +0.000 A 
ATOM     24  C   UNL     1       4.949   6.112  16.095  0.00  0.00    +0.000 A 
ATOM     25  C   UNL     1       4.563   4.926  16.760  0.00  0.00    +0.000 A 
ATOM     26  C   UNL     1       3.526   4.612  17.706  0.00  0.00    +0.000 A 
ATOM     27  H   UNL     1       4.994   1.801  17.228  0.00  0.00    +0.000 HD
ENDBRANCH   1  26
TORSDOF 2
ENDMDL
MODEL 3
REMARK VINA RESULT:      -7.9      4.461      5.284
REMARK  Name = 
REMARK  3 active torsions:
REMARK  status: ('A' for Active; 'I' for Inactive)
REMARK    1  A    between atoms: C_1  and  C_2
REMARK    2  A    between atoms: C_10  and  C_11
REMARK    3  A    between atoms: N_13  and  C_14
REMARK                            x       y       z     vdW  Elec       q    Type
REMARK                         _______ _______ _______ _____ _____    ______ ____
ROOT
ATOM      1  C   UNL     1       5.154   3.962  16.427  0.00  0.00    +0.000 C 
ATOM      2  O   UNL     1       5.183   2.736  16.460  0.00  0.00    +0.000 OA
ATOM      3  N   UNL     1       4.211   4.738  17.086  0.00  0.00    +0.000 N 
ATOM      4  H   UNL     1       4.149   5.708  16.803  0.00  0.00    +0.000 HD
ENDROOT
BRANCH   3   5
ATOM      5  C   UNL     1       3.204   4.236  17.950  0.00  0.00    +0.000 A 
ATOM      6  C   UNL     1       1.849   4.116  17.538  0.00  0.00    +0.000 A 
ATOM      7  C   UNL     1       0.843   3.654  18.393  0.00  0.00    +0.000 A 
ATOM      8  C   UNL     1       1.230   3.302  19.657  0.00  0.00    +0.000 A 
ATOM      9  N   UNL     1       0.465   2.818  20.709  0.00  0.00    +0.000 N 
ATOM     10  C   UNL     1       1.304   2.604  21.808  0.00  0.00    +0.000 A 
ATOM     11  O   UNL     1       0.974   2.186  22.904  0.00  0.00    +0.000 OA
ATOM     12  N   UNL     1       2.600   2.965  21.402  0.00  0.00    +0.000 N 
ATOM     13  C   UNL     1       2.554   3.393  20.078  0.00  0.00    +0.000 A 
ATOM     14  C   UNL     1       3.565   3.846  19.251  0.00  0.00    +0.000 A 
ATOM     15  H   UNL     1      -0.527   2.647  20.713  0.00  0.00    +0.000 HD
ATOM     16  H   UNL     1       3.403   2.915  22.007  0.00  0.00    +0.000 HD
ENDBRANCH   3   5
BRANCH   1  26
ATOM     17  C   UNL     1       7.377   6.323  17.214  0.00  0.00    +0.000 C 
ATOM     18  C   UNL     1       7.048   5.654  15.928  0.00  0.00    +0.000 A 
ATOM     19  N   UNL     1       7.807   5.908  14.804  0.00  0.00    +0.000 N 
ATOM     20  C   UNL     1       7.387   5.148  13.740  0.00  0.00    +0.000 A 
ATOM     21  C   UNL     1       7.875   5.068  12.429  0.00  0.00    +0.000 A 
ATOM     22  C   UNL     1       7.234   4.190  11.548  0.00  0.00    +0.000 A 
ATOM     23  C   UNL     1       6.152   3.420  11.964  0.00  0.00    +0.000 A 
ATOM     24  C   UNL     1       5.691   3.503  13.280  0.00  0.00    +0.000 A 
ATOM     25  C   UNL     1       6.318   4.382  14.190  0.00  0.00    +0.000 A 
ATOM     26  C   UNL     1       6.115   4.679  15.583  0.00  0.00    +0.000 A 
ATOM     27  H   UNL     1       8.597   6.537  14.766  0.00  0.00    +0.000 HD
ENDBRANCH   1  26
TORSDOF 2
ENDMDL
MODEL 4
REMARK VINA RESULT:      -7.8      2.460      3.620
REMARK  Name = 
REMARK  3 active torsions:
REMARK  status: ('A' for Active; 'I' for Inactive)
REMARK    1  A    between atoms: C_1  and  C_2
REMARK    2  A    between atoms: C_10  and  C_11
REMARK    3  A    between atoms: N_13  and  C_14
REMARK                            x       y       z     vdW  Elec       q    Type
REMARK                         _______ _______ _______ _____ _____    ______ ____
ROOT
ATOM      1  C   UNL     1       3.235   6.634  18.784  0.00  0.00    +0.000 C 
ATOM      2  O   UNL     1       3.592   7.429  17.920  0.00  0.00    +0.000 OA
ATOM      3  N   UNL     1       2.384   6.952  19.834  0.00  0.00    +0.000 N 
ATOM      4  H   UNL     1       2.347   6.290  20.599  0.00  0.00    +0.000 HD
ENDROOT
BRANCH   3   5
ATOM      5  C   UNL     1       1.745   8.206  20.012  0.00  0.00    +0.000 A 
ATOM      6  C   UNL     1       1.340   8.670  21.293  0.00  0.00    +0.000 A 
ATOM      7  C   UNL     1       0.680   9.890  21.475  0.00  0.00    +0.000 A 
ATOM      8  C   UNL     1       0.453  10.635  20.351  0.00  0.00    +0.000 A 
ATOM      9  N   UNL     1      -0.170  11.868  20.223  0.00  0.00    +0.000 N 
ATOM     10  C   UNL     1      -0.168  12.230  18.872  0.00  0.00    +0.000 A 
ATOM     11  O   UNL     1      -0.634  13.249  18.391  0.00  0.00    +0.000 OA
ATOM     12  N   UNL     1       0.474  11.191  18.177  0.00  0.00    +0.000 N 
ATOM     13  C   UNL     1       0.858  10.211  19.087  0.00  0.00    +0.000 A 
ATOM     14  C   UNL     1       1.512   9.010  18.883  0.00  0.00    +0.000 A 
ATOM     15  H   UNL     1      -0.573  12.427  20.957  0.00  0.00    +0.000 HD
ATOM     16  H   UNL     1       0.606  11.193  17.179  0.00  0.00    +0.000 HD
ENDBRANCH   3   5
BRANCH   1  26
ATOM     17  C   UNL     1       6.384   5.584  19.125  0.00  0.00    +0.000 C 
ATOM     18  C   UNL     1       5.105   4.851  18.937  0.00  0.00    +0.000 A 
ATOM     19  N   UNL     1       5.083   3.473  18.999  0.00  0.00    +0.000 N 
ATOM     20  C   UNL     1       3.805   2.990  18.866  0.00  0.00    +0.000 A 
ATOM     21  C   UNL     1       3.320   1.675  18.889  0.00  0.00    +0.000 A 
ATOM     22  C   UNL     1       1.944   1.485  18.726  0.00  0.00    +0.000 A 
ATOM     23  C   UNL     1       1.086   2.568  18.552  0.00  0.00    +0.000 A 
ATOM     24  C   UNL     1       1.587   3.872  18.549  0.00  0.00    +0.000 A 
ATOM     25  C   UNL     1       2.973   4.093  18.710  0.00  0.00    +0.000 A 
ATOM     26  C   UNL     1       3.787   5.277  18.780  0.00  0.00    +0.000 A 
ATOM     27  H   UNL     1       5.890   2.886  19.159  0.00  0.00    +0.000 HD
ENDBRANCH   1  26
TORSDOF 2
ENDMDL
MODEL 5
REMARK VINA RESULT:      -7.8      1.922      2.368
REMARK  Name = 
REMARK  3 active torsions:
REMARK  status: ('A' for Active; 'I' for Inactive)
REMARK    1  A    between atoms: C_1  and  C_2
REMARK    2  A    between atoms: C_10  and  C_11
REMARK    3  A    between atoms: N_13  and  C_14
REMARK                            x       y       z     vdW  Elec       q    Type
REMARK                         _______ _______ _______ _____ _____    ______ ____
ROOT
ATOM      1  C   UNL     1       2.709   5.904  19.107  0.00  0.00    +0.000 C 
ATOM      2  O   UNL     1       1.660   5.494  18.620  0.00  0.00    +0.000 OA
ATOM      3  N   UNL     1       2.861   7.152  19.696  0.00  0.00    +0.000 N 
ATOM      4  H   UNL     1       3.812   7.463  19.851  0.00  0.00    +0.000 HD
ENDROOT
BRANCH   3   5
ATOM      5  C   UNL     1       1.817   8.093  19.890  0.00  0.00    +0.000 A 
ATOM      6  C   UNL     1       1.060   8.140  21.091  0.00  0.00    +0.000 A 
ATOM      7  C   UNL     1       0.006   9.042  21.280  0.00  0.00    +0.000 A 
ATOM      8  C   UNL     1      -0.255   9.898  20.247  0.00  0.00    +0.000 A 
ATOM      9  N   UNL     1      -1.224  10.887  20.147  0.00  0.00    +0.000 N 
ATOM     10  C   UNL     1      -1.105  11.503  18.896  0.00  0.00    +0.000 A 
ATOM     11  O   UNL     1      -1.793  12.411  18.464  0.00  0.00    +0.000 OA
ATOM     12  N   UNL     1      -0.038  10.870  18.235  0.00  0.00    +0.000 N 
ATOM     13  C   UNL     1       0.485   9.884  19.067  0.00  0.00    +0.000 A 
ATOM     14  C   UNL     1       1.531   9.003  18.859  0.00  0.00    +0.000 A 
ATOM     15  H   UNL     1      -1.914  11.136  20.836  0.00  0.00    +0.000 HD
ATOM     16  H   UNL     1       0.259  11.116  17.306  0.00  0.00    +0.000 HD
ENDBRANCH   3   5
BRANCH   1  26
ATOM     17  C   UNL     1       3.329   2.838  20.269  0.00  0.00    +0.000 C 
ATOM     18  C   UNL     1       4.157   3.792  19.485  0.00  0.00    +0.000 A 
ATOM     19  N   UNL     1       5.393   3.405  19.010  0.00  0.00    +0.000 N 
ATOM     20  C   UNL     1       5.969   4.400  18.259  0.00  0.00    +0.000 A 
ATOM     21  C   UNL     1       7.193   4.434  17.577  0.00  0.00    +0.000 A 
ATOM     22  C   UNL     1       7.521   5.605  16.884  0.00  0.00    +0.000 A 
ATOM     23  C   UNL     1       6.656   6.695  16.871  0.00  0.00    +0.000 A 
ATOM     24  C   UNL     1       5.434   6.636  17.544  0.00  0.00    +0.000 A 
ATOM     25  C   UNL     1       5.078   5.466  18.253  0.00  0.00    +0.000 A 
ATOM     26  C   UNL     1       3.916   5.078  19.006  0.00  0.00    +0.000 A 
ATOM     27  H   UNL     1       5.813   2.498  19.154  0.00  0.00    +0.000 HD
ENDBRANCH   1  26
TORSDOF 2
ENDMDL
MODEL 6
REMARK VINA RESULT:      -7.7      2.597      4.190
REMARK  Name = 
REMARK  3 active torsions:
REMARK  status: ('A' for Active; 'I' for Inactive)
REMARK    1  A    between atoms: C_1  and  C_2
REMARK    2  A    between atoms: C_10  and  C_11
REMARK    3  A    between atoms: N_13  and  C_14
REMARK                            x       y       z     vdW  Elec       q    Type
REMARK                         _______ _______ _______ _____ _____    ______ ____
ROOT
ATOM      1  C   UNL     1       2.369   7.314  18.740  0.00  0.00    +0.000 C 
ATOM      2  O   UNL     1       2.331   7.486  19.954  0.00  0.00    +0.000 OA
ATOM      3  N   UNL     1       1.920   8.238  17.806  0.00  0.00    +0.000 N 
ATOM      4  H   UNL     1       1.792   7.896  16.862  0.00  0.00    +0.000 HD
ENDROOT
BRANCH   3   5
ATOM      5  C   UNL     1       1.432   9.534  18.113  0.00  0.00    +0.000 A 
ATOM      6  C   UNL     1       0.062   9.773  18.405  0.00  0.00    +0.000 A 
ATOM      7  C   UNL     1      -0.436  11.052  18.676  0.00  0.00    +0.000 A 
ATOM      8  C   UNL     1       0.472  12.075  18.663  0.00  0.00    +0.000 A 
ATOM      9  N   UNL     1       0.275  13.430  18.892  0.00  0.00    +0.000 N 
ATOM     10  C   UNL     1       1.504  14.086  18.767  0.00  0.00    +0.000 A 
ATOM     11  O   UNL     1       1.707  15.280  18.898  0.00  0.00    +0.000 OA
ATOM     12  N   UNL     1       2.458  13.101  18.460  0.00  0.00    +0.000 N 
ATOM     13  C   UNL     1       1.823  11.863  18.399  0.00  0.00    +0.000 A 
ATOM     14  C   UNL     1       2.337  10.609  18.129  0.00  0.00    +0.000 A 
ATOM     15  H   UNL     1      -0.594  13.892  19.104  0.00  0.00    +0.000 HD
ATOM     16  H   UNL     1       3.432  13.303  18.310  0.00  0.00    +0.000 HD
ENDBRANCH   3   5
BRANCH   1  26
ATOM     17  C   UNL     1       4.879   6.630  16.650  0.00  0.00    +0.000 C 
ATOM     18  C   UNL     1       3.901   5.757  17.351  0.00  0.00    +0.000 A 
ATOM     19  N   UNL     1       4.021   4.385  17.274  0.00  0.00    +0.000 N 
ATOM     20  C   UNL     1       3.065   3.760  18.037  0.00  0.00    +0.000 A 
ATOM     21  C   UNL     1       2.830   2.398  18.266  0.00  0.00    +0.000 A 
ATOM     22  C   UNL     1       1.765   2.053  19.106  0.00  0.00    +0.000 A 
ATOM     23  C   UNL     1       0.972   3.032  19.697  0.00  0.00    +0.000 A 
ATOM     24  C   UNL     1       1.233   4.385  19.468  0.00  0.00    +0.000 A 
ATOM     25  C   UNL     1       2.301   4.762  18.624  0.00  0.00    +0.000 A 
ATOM     26  C   UNL     1       2.841   6.030  18.213  0.00  0.00    +0.000 A 
ATOM     27  H   UNL     1       4.737   3.892  16.758  0.00  0.00    +0.000 HD
ENDBRANCH   1  26
TORSDOF 2
ENDMDL
MODEL 7
REMARK VINA RESULT:      -7.7      1.929      3.039
REMARK  Name = 
REMARK  3 active torsions:
REMARK  status: ('A' for Active; 'I' for Inactive)
REMARK    1  A    between atoms: C_1  and  C_2
REMARK    2  A    between atoms: C_10  and  C_11
REMARK    3  A    between atoms: N_13  and  C_14
REMARK                            x       y       z     vdW  Elec       q    Type
REMARK                         _______ _______ _______ _____ _____    ______ ____
ROOT
ATOM      1  C   UNL     1       3.040   6.715  18.727  0.00  0.00    +0.000 C 
ATOM      2  O   UNL     1       3.294   7.550  17.865  0.00  0.00    +0.000 OA
ATOM      3  N   UNL     1       2.266   6.965  19.852  0.00  0.00    +0.000 N 
ATOM      4  H   UNL     1       2.317   6.278  20.594  0.00  0.00    +0.000 HD
ENDROOT
BRANCH   3   5
ATOM      5  C   UNL     1       1.597   8.186  20.125  0.00  0.00    +0.000 A 
ATOM      6  C   UNL     1       1.449   9.200  19.141  0.00  0.00    +0.000 A 
ATOM      7  C   UNL     1       0.821  10.421  19.410  0.00  0.00    +0.000 A 
ATOM      8  C   UNL     1       0.335  10.591  20.677  0.00  0.00    +0.000 A 
ATOM      9  N   UNL     1      -0.325  11.680  21.228  0.00  0.00    +0.000 N 
ATOM     10  C   UNL     1      -0.627  11.390  22.563  0.00  0.00    +0.000 A 
ATOM     11  O   UNL     1      -1.201  12.118  23.353  0.00  0.00    +0.000 OA
ATOM     12  N   UNL     1      -0.139  10.096  22.814  0.00  0.00    +0.000 N 
ATOM     13  C   UNL     1       0.451   9.604  21.654  0.00  0.00    +0.000 A 
ATOM     14  C   UNL     1       1.067   8.390  21.410  0.00  0.00    +0.000 A 
ATOM     15  H   UNL     1      -0.554  12.548  20.772  0.00  0.00    +0.000 HD
ATOM     16  H   UNL     1      -0.218   9.640  23.708  0.00  0.00    +0.000 HD
ENDBRANCH   3   5
BRANCH   1  26
ATOM     17  C   UNL     1       6.246   5.789  18.707  0.00  0.00    +0.000 C 
ATOM     18  C   UNL     1       4.984   5.007  18.638  0.00  0.00    +0.000 A 
ATOM     19  N   UNL     1       5.023   3.629  18.668  0.00  0.00    +0.000 N 
ATOM     20  C   UNL     1       3.757   3.097  18.659  0.00  0.00    +0.000 A 
ATOM     21  C   UNL     1       3.329   1.762  18.702  0.00  0.00    +0.000 A 
ATOM     22  C   UNL     1       1.952   1.519  18.680  0.00  0.00    +0.000 A 
ATOM     23  C   UNL     1       1.039   2.568  18.626  0.00  0.00    +0.000 A 
ATOM     24  C   UNL     1       1.485   3.892  18.601  0.00  0.00    +0.000 A 
ATOM     25  C   UNL     1       2.871   4.166  18.620  0.00  0.00    +0.000 A 
ATOM     26  C   UNL     1       3.641   5.382  18.631  0.00  0.00    +0.000 A 
ATOM     27  H   UNL     1       5.864   3.072  18.727  0.00  0.00    +0.000 HD
ENDBRANCH   1  26
TORSDOF 2
ENDMDL
MODEL 8
REMARK VINA RESULT:      -7.7      2.328      3.688
REMARK  Name = 
REMARK  3 active torsions:
REMARK  status: ('A' for Active; 'I' for Inactive)
REMARK    1  A    between atoms: C_1  and  C_2
REMARK    2  A    between atoms: C_10  and  C_11
REMARK    3  A    between atoms: N_13  and  C_14
REMARK                            x       y       z     vdW  Elec       q    Type
REMARK                         _______ _______ _______ _____ _____    ______ ____
ROOT
ATOM      1  C   UNL     1       2.510   7.257  18.605  0.00  0.00    +0.000 C 
ATOM      2  O   UNL     1       2.509   7.381  19.826  0.00  0.00    +0.000 OA
ATOM      3  N   UNL     1       2.009   8.206  17.724  0.00  0.00    +0.000 N 
ATOM      4  H   UNL     1       1.856   7.898  16.772  0.00  0.00    +0.000 HD
ENDROOT
BRANCH   3   5
ATOM      5  C   UNL     1       1.504   9.478  18.098  0.00  0.00    +0.000 A 
ATOM      6  C   UNL     1       2.311  10.647  18.073  0.00  0.00    +0.000 A 
ATOM      7  C   UNL     1       1.832  11.899  18.472  0.00  0.00    +0.000 A 
ATOM      8  C   UNL     1       0.528  11.952  18.879  0.00  0.00    +0.000 A 
ATOM      9  N   UNL     1      -0.213  13.038  19.324  0.00  0.00    +0.000 N 
ATOM     10  C   UNL     1      -1.506  12.600  19.631  0.00  0.00    +0.000 A 
ATOM     11  O   UNL     1      -2.424  13.282  20.052  0.00  0.00    +0.000 OA
ATOM     12  N   UNL     1      -1.540  11.221  19.359  0.00  0.00    +0.000 N 
ATOM     13  C   UNL     1      -0.290  10.823  18.894  0.00  0.00    +0.000 A 
ATOM     14  C   UNL     1       0.162   9.576  18.504  0.00  0.00    +0.000 A 
ATOM     15  H   UNL     1       0.102  13.988  19.428  0.00  0.00    +0.000 HD
ATOM     16  H   UNL     1      -2.357  10.651  19.500  0.00  0.00    +0.000 HD
ENDBRANCH   3   5
BRANCH   1  26
ATOM     17  C   UNL     1       5.103   6.682  16.586  0.00  0.00    +0.000 C 
ATOM     18  C   UNL     1       4.085   5.777  17.181  0.00  0.00    +0.000 A 
ATOM     19  N   UNL     1       4.193   4.412  17.015  0.00  0.00    +0.000 N 
ATOM     20  C   UNL     1       3.197   3.750  17.691  0.00  0.00    +0.000 A 
ATOM     21  C   UNL     1       2.937   2.379  17.815  0.00  0.00    +0.000 A 
ATOM     22  C   UNL     1       1.832   1.992  18.582  0.00  0.00    +0.000 A 
ATOM     23  C   UNL     1       1.024   2.940  19.203  0.00  0.00    +0.000 A 
ATOM     24  C   UNL     1       1.310   4.302  19.080  0.00  0.00    +0.000 A 
ATOM     25  C   UNL     1       2.419   4.720  18.311  0.00  0.00    +0.000 A 
ATOM     26  C   UNL     1       2.990   6.006  18.013  0.00  0.00    +0.000 A 
ATOM     27  H   UNL     1       4.926   3.945  16.500  0.00  0.00    +0.000 HD
ENDBRANCH   1  26
TORSDOF 2
ENDMDL
MODEL 9
REMARK VINA RESULT:      -7.6      2.112      8.318
REMARK  Name = 
REMARK  3 active torsions:
REMARK  status: ('A' for Active; 'I' for Inactive)
REMARK    1  A    between atoms: C_1  and  C_2
REMARK    2  A    between atoms: C_10  and  C_11
REMARK    3  A    between atoms: N_13  and  C_14
REMARK                            x       y       z     vdW  Elec       q    Type
REMARK                         _______ _______ _______ _____ _____    ______ ____
ROOT
ATOM      1  C   UNL     1       1.633   9.064  18.507  0.00  0.00    +0.000 C 
ATOM      2  O   UNL     1       1.101   8.979  17.404  0.00  0.00    +0.000 OA
ATOM      3  N   UNL     1       2.548   8.147  19.006  0.00  0.00    +0.000 N 
ATOM      4  H   UNL     1       2.738   8.197  19.999  0.00  0.00    +0.000 HD
ENDROOT
BRANCH   3   5
ATOM      5  C   UNL     1       3.057   7.034  18.289  0.00  0.00    +0.000 A 
ATOM      6  C   UNL     1       2.499   5.734  18.419  0.00  0.00    +0.000 A 
ATOM      7  C   UNL     1       3.015   4.624  17.742  0.00  0.00    +0.000 A 
ATOM      8  C   UNL     1       4.087   4.852  16.925  0.00  0.00    +0.000 A 
ATOM      9  N   UNL     1       4.801   3.958  16.139  0.00  0.00    +0.000 N 
ATOM     10  C   UNL     1       5.818   4.658  15.480  0.00  0.00    +0.000 A 
ATOM     11  O   UNL     1       6.640   4.192  14.710  0.00  0.00    +0.000 OA
ATOM     12  N   UNL     1       5.707   6.001  15.879  0.00  0.00    +0.000 N 
ATOM     13  C   UNL     1       4.641   6.120  16.766  0.00  0.00    +0.000 A 
ATOM     14  C   UNL     1       4.147   7.232  17.424  0.00  0.00    +0.000 A 
ATOM     15  H   UNL     1       4.644   2.968  16.046  0.00  0.00    +0.000 HD
ATOM     16  H   UNL     1       6.326   6.726  15.555  0.00  0.00    +0.000 HD
ENDBRANCH   3   5
BRANCH   1  26
ATOM     17  C   UNL     1       1.875  12.372  18.141  0.00  0.00    +0.000 C 
ATOM     18  C   UNL     1       1.333  11.529  19.238  0.00  0.00    +0.000 A 
ATOM     19  N   UNL     1       0.696  12.118  20.311  0.00  0.00    +0.000 N 
ATOM     20  C   UNL     1       0.212  11.172  21.181  0.00  0.00    +0.000 A 
ATOM     21  C   UNL     1      -0.508  11.315  22.374  0.00  0.00    +0.000 A 
ATOM     22  C   UNL     1      -0.874  10.151  23.059  0.00  0.00    +0.000 A 
ATOM     23  C   UNL     1      -0.537   8.894  22.565  0.00  0.00    +0.000 A 
ATOM     24  C   UNL     1       0.167   8.772  21.365  0.00  0.00    +0.000 A 
ATOM     25  C   UNL     1       0.550   9.931  20.654  0.00  0.00    +0.000 A 
ATOM     26  C   UNL     1       1.238  10.149  19.410  0.00  0.00    +0.000 A 
ATOM     27  H   UNL     1       0.562  13.112  20.434  0.00  0.00    +0.000 HD
ENDBRANCH   1  26
TORSDOF 2
ENDMDL
