MODEL 1
REMARK VINA RESULT:      -8.2      0.000      0.000
REMARK  Name = 
REMARK  7 active torsions:
REMARK  status: ('A' for Active; 'I' for Inactive)
REMARK    1  A    between atoms: C_1  and  C_2
REMARK    2  A    between atoms: C_5  and  C_6
REMARK    3  A    between atoms: C_7  and  N_8
REMARK    4  A    between atoms: C_11  and  N_12
REMARK    5  A    between atoms: C_13  and  C_15
REMARK    6  A    between atoms: C_21  and  C_22
REMARK    7  A    between atoms: C_26  and  C_27
REMARK                            x       y       z     vdW  Elec       q    Type
REMARK                         _______ _______ _______ _____ _____    ______ ____
ROOT
ATOM      1  N   UNL     1       2.767   6.709  19.307  0.00  0.00    +0.000 N 
ATOM      2  C   UNL     1       2.475   5.544  18.623  0.00  0.00    +0.000 C 
ATOM      3  O   UNL     1       1.674   5.420  17.702  0.00  0.00    +0.000 OA
ATOM      4  H   UNL     1       3.385   6.687  20.106  0.00  0.00    +0.000 HD
ENDROOT
BRANCH   2   5
ATOM      5  C   UNL     1       3.135   4.306  19.111  0.00  0.00    +0.000 A 
ATOM      6  C   UNL     1       4.468   4.062  18.727  0.00  0.00    +0.000 A 
ATOM      7  C   UNL     1       5.184   3.006  19.293  0.00  0.00    +0.000 A 
ATOM      8  C   UNL     1       4.581   2.210  20.255  0.00  0.00    +0.000 A 
ATOM      9  F   UNL     1       5.281   1.228  20.835  0.00  0.00    +0.000 F 
ATOM     10  C   UNL     1       3.262   2.426  20.633  0.00  0.00    +0.000 A 
ATOM     11  C   UNL     1       2.504   3.464  20.050  0.00  0.00    +0.000 A 
BRANCH  11  12
ATOM     12  C   UNL     1       1.060   3.586  20.481  0.00  0.00    +0.000 C 
ATOM     13  F   UNL     1       0.608   4.839  20.732  0.00  0.00    +0.000 F 
ATOM     14  F   UNL     1       0.231   3.121  19.496  0.00  0.00    +0.000 F 
ATOM     15  F   UNL     1       0.776   2.824  21.572  0.00  0.00    +0.000 F 
ENDBRANCH  11  12
ENDBRANCH   2   5
BRANCH   1  19
ATOM     16  N   UNL     1       1.013   9.820  19.101  0.00  0.00    +0.000 N 
ATOM     17  N   UNL     1       1.527   9.779  17.847  0.00  0.00    +0.000 NA
ATOM     18  C   UNL     1       2.239   8.659  17.793  0.00  0.00    +0.000 A 
ATOM     19  C   UNL     1       2.197   7.935  18.995  0.00  0.00    +0.000 A 
ATOM     20  C   UNL     1       1.398   8.690  19.838  0.00  0.00    +0.000 A 
ATOM     21  C   UNL     1       0.868   8.347  21.187  0.00  0.00    +0.000 C 
BRANCH  16  28
ATOM     22  C   UNL     1       0.568  14.010  21.707  0.00  0.00    +0.000 C 
ATOM     23  C   UNL     1      -0.042  12.997  20.785  0.00  0.00    +0.000 A 
ATOM     24  C   UNL     1      -1.367  13.100  20.372  0.00  0.00    +0.000 A 
ATOM     25  C   UNL     1      -1.907  12.151  19.504  0.00  0.00    +0.000 A 
ATOM     26  C   UNL     1      -1.148  11.056  19.050  0.00  0.00    +0.000 A 
ATOM     27  C   UNL     1      -1.842  10.062  18.151  0.00  0.00    +0.000 C 
ATOM     28  C   UNL     1       0.192  10.927  19.489  0.00  0.00    +0.000 A 
ATOM     29  C   UNL     1       0.731  11.921  20.326  0.00  0.00    +0.000 A 
ENDBRANCH  16  28
ENDBRANCH   1  19
TORSDOF 4
ENDMDL
MODEL 2
REMARK VINA RESULT:      -8.0      3.788      8.434
REMARK  Name = 
REMARK  7 active torsions:
REMARK  status: ('A' for Active; 'I' for Inactive)
REMARK    1  A    between atoms: C_1  and  C_2
REMARK    2  A    between atoms: C_5  and  C_6
REMARK    3  A    between atoms: C_7  and  N_8
REMARK    4  A    between atoms: C_11  and  N_12
REMARK    5  A    between atoms: C_13  and  C_15
REMARK    6  A    between atoms: C_21  and  C_22
REMARK    7  A    between atoms: C_26  and  C_27
REMARK                            x       y       z     vdW  Elec       q    Type
REMARK                         _______ _______ _______ _____ _____    ______ ____
ROOT
ATOM      1  N   UNL     1       0.595   8.213  20.693  0.00  0.00    +0.000 N 
ATOM      2  C   UNL     1       0.885   9.246  21.565  0.00  0.00    +0.000 C 
ATOM      3  O   UNL     1       1.897   9.361  22.249  0.00  0.00    +0.000 OA
ATOM      4  H   UNL     1      -0.306   8.172  20.237  0.00  0.00    +0.000 HD
ENDROOT
BRANCH   2   5
ATOM      5  C   UNL     1      -0.173  10.271  21.752  0.00  0.00    +0.000 A 
ATOM      6  C   UNL     1      -0.838  10.330  22.993  0.00  0.00    +0.000 A 
ATOM      7  C   UNL     1      -1.716  11.377  23.274  0.00  0.00    +0.000 A 
ATOM      8  C   UNL     1      -1.914  12.375  22.332  0.00  0.00    +0.000 A 
ATOM      9  F   UNL     1      -2.717  13.406  22.618  0.00  0.00    +0.000 F 
ATOM     10  C   UNL     1      -1.281  12.323  21.096  0.00  0.00    +0.000 A 
ATOM     11  C   UNL     1      -0.417  11.257  20.772  0.00  0.00    +0.000 A 
BRANCH  11  12
ATOM     12  C   UNL     1       0.182  11.254  19.384  0.00  0.00    +0.000 C 
ATOM     13  F   UNL     1      -0.214  10.256  18.556  0.00  0.00    +0.000 F 
ATOM     14  F   UNL     1      -0.163  12.399  18.717  0.00  0.00    +0.000 F 
ATOM     15  F   UNL     1       1.543  11.252  19.403  0.00  0.00    +0.000 F 
ENDBRANCH  11  12
ENDBRANCH   2   5
BRANCH   1  19
ATOM     16  N   UNL     1       3.006   5.847  19.515  0.00  0.00    +0.000 N 
ATOM     17  N   UNL     1       2.513   5.148  20.566  0.00  0.00    +0.000 NA
ATOM     18  C   UNL     1       1.602   5.938  21.123  0.00  0.00    +0.000 A 
ATOM     19  C   UNL     1       1.466   7.161  20.446  0.00  0.00    +0.000 A 
ATOM     20  C   UNL     1       2.375   7.095  19.403  0.00  0.00    +0.000 A 
ATOM     21  C   UNL     1       2.565   8.033  18.261  0.00  0.00    +0.000 C 
BRANCH  16  28
ATOM     22  C   UNL     1       7.833   5.491  18.457  0.00  0.00    +0.000 C 
ATOM     23  C   UNL     1       6.418   5.091  18.161  0.00  0.00    +0.000 A 
ATOM     24  C   UNL     1       6.112   4.238  17.105  0.00  0.00    +0.000 A 
ATOM     25  C   UNL     1       4.788   3.873  16.860  0.00  0.00    +0.000 A 
ATOM     26  C   UNL     1       3.731   4.375  17.643  0.00  0.00    +0.000 A 
ATOM     27  C   UNL     1       2.333   3.953  17.263  0.00  0.00    +0.000 C 
ATOM     28  C   UNL     1       4.031   5.267  18.700  0.00  0.00    +0.000 A 
ATOM     29  C   UNL     1       5.377   5.584  18.960  0.00  0.00    +0.000 A 
ENDBRANCH  16  28
ENDBRANCH   1  19
TORSDOF 4
ENDMDL
MODEL 3
REMARK VINA RESULT:      -7.9      0.522      1.705
REMARK  Name = 
REMARK  7 active torsions:
REMARK  status: ('A' for Active; 'I' for Inactive)
REMARK    1  A    between atoms: C_1  and  C_2
REMARK    2  A    between atoms: C_5  and  C_6
REMARK    3  A    between atoms: C_7  and  N_8
REMARK    4  A    between atoms: C_11  and  N_12
REMARK    5  A    between atoms: C_13  and  C_15
REMARK    6  A    between atoms: C_21  and  C_22
REMARK    7  A    between atoms: C_26  and  C_27
REMARK                            x       y       z     vdW  Elec       q    Type
REMARK                         _______ _______ _______ _____ _____    ______ ____
ROOT
ATOM      1  N   UNL     1       2.784   6.692  19.278  0.00  0.00    +0.000 N 
ATOM      2  C   UNL     1       2.499   5.499  18.640  0.00  0.00    +0.000 C 
ATOM      3  O   UNL     1       1.699   5.335  17.725  0.00  0.00    +0.000 OA
ATOM      4  H   UNL     1       3.402   6.704  20.077  0.00  0.00    +0.000 HD
ENDROOT
BRANCH   2   5
ATOM      5  C   UNL     1       3.167   4.285  19.176  0.00  0.00    +0.000 A 
ATOM      6  C   UNL     1       4.514   4.054  18.833  0.00  0.00    +0.000 A 
ATOM      7  C   UNL     1       5.231   3.025  19.443  0.00  0.00    +0.000 A 
ATOM      8  C   UNL     1       4.616   2.243  20.409  0.00  0.00    +0.000 A 
ATOM      9  F   UNL     1       5.316   1.287  21.031  0.00  0.00    +0.000 F 
ATOM     10  C   UNL     1       3.284   2.445  20.746  0.00  0.00    +0.000 A 
ATOM     11  C   UNL     1       2.525   3.455  20.118  0.00  0.00    +0.000 A 
BRANCH  11  12
ATOM     12  C   UNL     1       1.068   3.563  20.508  0.00  0.00    +0.000 C 
ATOM     13  F   UNL     1       0.587   4.814  20.709  0.00  0.00    +0.000 F 
ATOM     14  F   UNL     1       0.273   3.053  19.516  0.00  0.00    +0.000 F 
ATOM     15  F   UNL     1       0.769   2.828  21.614  0.00  0.00    +0.000 F 
ENDBRANCH  11  12
ENDBRANCH   2   5
BRANCH   1  19
ATOM     16  N   UNL     1       0.965   9.751  18.924  0.00  0.00    +0.000 N 
ATOM     17  N   UNL     1       1.582   9.726  17.717  0.00  0.00    +0.000 NA
ATOM     18  C   UNL     1       2.329   8.627  17.723  0.00  0.00    +0.000 A 
ATOM     19  C   UNL     1       2.208   7.901  18.919  0.00  0.00    +0.000 A 
ATOM     20  C   UNL     1       1.320   8.632  19.692  0.00  0.00    +0.000 A 
ATOM     21  C   UNL     1       0.690   8.272  20.993  0.00  0.00    +0.000 C 
BRANCH  16  28
ATOM     22  C   UNL     1      -3.583  11.694  18.622  0.00  0.00    +0.000 C 
ATOM     23  C   UNL     1      -2.162  11.810  19.089  0.00  0.00    +0.000 A 
ATOM     24  C   UNL     1      -1.708  12.946  19.752  0.00  0.00    +0.000 A 
ATOM     25  C   UNL     1      -0.385  13.023  20.186  0.00  0.00    +0.000 A 
ATOM     26  C   UNL     1       0.529  11.980  19.942  0.00  0.00    +0.000 A 
ATOM     27  C   UNL     1       1.948  12.185  20.413  0.00  0.00    +0.000 C 
ATOM     28  C   UNL     1       0.084  10.834  19.242  0.00  0.00    +0.000 A 
ATOM     29  C   UNL     1      -1.267  10.756  18.855  0.00  0.00    +0.000 A 
ENDBRANCH  16  28
ENDBRANCH   1  19
TORSDOF 4
ENDMDL
MODEL 4
REMARK VINA RESULT:      -7.9      3.336      8.067
REMARK  Name = 
REMARK  7 active torsions:
REMARK  status: ('A' for Active; 'I' for Inactive)
REMARK    1  A    between atoms: C_1  and  C_2
REMARK    2  A    between atoms: C_5  and  C_6
REMARK    3  A    between atoms: C_7  and  N_8
REMARK    4  A    between atoms: C_11  and  N_12
REMARK    5  A    between atoms: C_13  and  C_15
REMARK    6  A    between atoms: C_21  and  C_22
REMARK    7  A    between atoms: C_26  and  C_27
REMARK                            x       y       z     vdW  Elec       q    Type
REMARK                         _______ _______ _______ _____ _____    ______ ____
ROOT
ATOM      1  N   UNL     1       0.472   9.646  19.896  0.00  0.00    +0.000 N 
ATOM      2  C   UNL     1       0.717  10.925  20.360  0.00  0.00    +0.000 C 
ATOM      3  O   UNL     1       1.694  11.620  20.100  0.00  0.00    +0.000 OA
ATOM      4  H   UNL     1      -0.326   9.128  20.237  0.00  0.00    +0.000 HD
ENDROOT
BRANCH   2   5
ATOM      5  C   UNL     1      -0.259  11.475  21.335  0.00  0.00    +0.000 A 
ATOM      6  C   UNL     1      -0.927  12.672  21.012  0.00  0.00    +0.000 A 
ATOM      7  C   UNL     1      -1.971  13.136  21.813  0.00  0.00    +0.000 A 
ATOM      8  C   UNL     1      -2.363  12.398  22.920  0.00  0.00    +0.000 A 
ATOM      9  F   UNL     1      -3.395  12.816  23.661  0.00  0.00    +0.000 F 
ATOM     10  C   UNL     1      -1.704  11.225  23.263  0.00  0.00    +0.000 A 
ATOM     11  C   UNL     1      -0.622  10.752  22.490  0.00  0.00    +0.000 A 
BRANCH  11  12
ATOM     12  C   UNL     1       0.071   9.498  22.973  0.00  0.00    +0.000 C 
ATOM     13  F   UNL     1       1.406   9.420  22.749  0.00  0.00    +0.000 F 
ATOM     14  F   UNL     1      -0.048   9.383  24.332  0.00  0.00    +0.000 F 
ATOM     15  F   UNL     1      -0.493   8.365  22.472  0.00  0.00    +0.000 F 
ENDBRANCH  11  12
ENDBRANCH   2   5
BRANCH   1  19
ATOM     16  N   UNL     1       2.737   7.516  18.128  0.00  0.00    +0.000 N 
ATOM     17  N   UNL     1       2.595   8.496  17.202  0.00  0.00    +0.000 NA
ATOM     18  C   UNL     1       1.739   9.363  17.731  0.00  0.00    +0.000 A 
ATOM     19  C   UNL     1       1.314   8.984  19.015  0.00  0.00    +0.000 A 
ATOM     20  C   UNL     1       1.967   7.788  19.268  0.00  0.00    +0.000 A 
ATOM     21  C   UNL     1       2.028   7.000  20.531  0.00  0.00    +0.000 C 
BRANCH  16  28
ATOM     22  C   UNL     1       7.338   5.874  17.300  0.00  0.00    +0.000 C 
ATOM     23  C   UNL     1       5.872   5.584  17.431  0.00  0.00    +0.000 A 
ATOM     24  C   UNL     1       5.367   4.302  17.235  0.00  0.00    +0.000 A 
ATOM     25  C   UNL     1       4.001   4.058  17.374  0.00  0.00    +0.000 A 
ATOM     26  C   UNL     1       3.098   5.093  17.681  0.00  0.00    +0.000 A 
ATOM     27  C   UNL     1       1.636   4.729  17.763  0.00  0.00    +0.000 C 
ATOM     28  C   UNL     1       3.599   6.406  17.852  0.00  0.00    +0.000 A 
ATOM     29  C   UNL     1       4.986   6.622  17.754  0.00  0.00    +0.000 A 
ENDBRANCH  16  28
ENDBRANCH   1  19
TORSDOF 4
ENDMDL
MODEL 5
REMARK VINA RESULT:      -7.8      3.196      8.241
REMARK  Name = 
REMARK  7 active torsions:
REMARK  status: ('A' for Active; 'I' for Inactive)
REMARK    1  A    between atoms: C_1  and  C_2
REMARK    2  A    between atoms: C_5  and  C_6
REMARK    3  A    between atoms: C_7  and  N_8
REMARK    4  A    between atoms: C_11  and  N_12
REMARK    5  A    between atoms: C_13  and  C_15
REMARK    6  A    between atoms: C_21  and  C_22
REMARK    7  A    between atoms: C_26  and  C_27
REMARK                            x       y       z     vdW  Elec       q    Type
REMARK                         _______ _______ _______ _____ _____    ______ ____
ROOT
ATOM      1  N   UNL     1       1.058   9.871  19.940  0.00  0.00    +0.000 N 
ATOM      2  C   UNL     1      -0.270  10.248  19.859  0.00  0.00    +0.000 C 
ATOM      3  O   UNL     1      -1.067   9.927  18.985  0.00  0.00    +0.000 OA
ATOM      4  H   UNL     1       1.652  10.258  20.660  0.00  0.00    +0.000 HD
ENDROOT
BRANCH   2   5
ATOM      5  C   UNL     1      -0.750  11.206  20.888  0.00  0.00    +0.000 A 
ATOM      6  C   UNL     1      -1.297  12.431  20.460  0.00  0.00    +0.000 A 
ATOM      7  C   UNL     1      -1.913  13.287  21.374  0.00  0.00    +0.000 A 
ATOM      8  C   UNL     1      -2.003  12.914  22.706  0.00  0.00    +0.000 A 
ATOM      9  F   UNL     1      -2.637  13.709  23.575  0.00  0.00    +0.000 F 
ATOM     10  C   UNL     1      -1.453  11.717  23.149  0.00  0.00    +0.000 A 
ATOM     11  C   UNL     1      -0.793  10.851  22.252  0.00  0.00    +0.000 A 
BRANCH  11  12
ATOM     12  C   UNL     1      -0.175   9.600  22.835  0.00  0.00    +0.000 C 
ATOM     13  F   UNL     1       1.160   9.447  22.660  0.00  0.00    +0.000 F 
ATOM     14  F   UNL     1      -0.340   9.577  24.194  0.00  0.00    +0.000 F 
ATOM     15  F   UNL     1      -0.777   8.464  22.387  0.00  0.00    +0.000 F 
ENDBRANCH  11  12
ENDBRANCH   2   5
BRANCH   1  19
ATOM     16  N   UNL     1       2.640   7.243  18.100  0.00  0.00    +0.000 N 
ATOM     17  N   UNL     1       2.667   8.215  17.155  0.00  0.00    +0.000 NA
ATOM     18  C   UNL     1       2.074   9.266  17.710  0.00  0.00    +0.000 A 
ATOM     19  C   UNL     1       1.661   9.016  19.029  0.00  0.00    +0.000 A 
ATOM     20  C   UNL     1       2.034   7.705  19.278  0.00  0.00    +0.000 A 
ATOM     21  C   UNL     1       1.997   6.945  20.558  0.00  0.00    +0.000 C 
BRANCH  16  28
ATOM     22  C   UNL     1       2.017   2.331  17.908  0.00  0.00    +0.000 C 
ATOM     23  C   UNL     1       2.906   3.524  17.718  0.00  0.00    +0.000 A 
ATOM     24  C   UNL     1       4.234   3.382  17.327  0.00  0.00    +0.000 A 
ATOM     25  C   UNL     1       5.036   4.510  17.145  0.00  0.00    +0.000 A 
ATOM     26  C   UNL     1       4.542   5.807  17.379  0.00  0.00    +0.000 A 
ATOM     27  C   UNL     1       5.506   6.953  17.197  0.00  0.00    +0.000 C 
ATOM     28  C   UNL     1       3.201   5.958  17.806  0.00  0.00    +0.000 A 
ATOM     29  C   UNL     1       2.396   4.812  17.937  0.00  0.00    +0.000 A 
ENDBRANCH  16  28
ENDBRANCH   1  19
TORSDOF 4
ENDMDL
MODEL 6
REMARK VINA RESULT:      -7.8      3.682      8.432
REMARK  Name = 
REMARK  7 active torsions:
REMARK  status: ('A' for Active; 'I' for Inactive)
REMARK    1  A    between atoms: C_1  and  C_2
REMARK    2  A    between atoms: C_5  and  C_6
REMARK    3  A    between atoms: C_7  and  N_8
REMARK    4  A    between atoms: C_11  and  N_12
REMARK    5  A    between atoms: C_13  and  C_15
REMARK    6  A    between atoms: C_21  and  C_22
REMARK    7  A    between atoms: C_26  and  C_27
REMARK                            x       y       z     vdW  Elec       q    Type
REMARK                         _______ _______ _______ _____ _____    ______ ____
ROOT
ATOM      1  N   UNL     1       1.057   9.072  20.563  0.00  0.00    +0.000 N 
ATOM      2  C   UNL     1      -0.160   9.185  21.209  0.00  0.00    +0.000 C 
ATOM      3  O   UNL     1      -0.863   8.262  21.606  0.00  0.00    +0.000 OA
ATOM      4  H   UNL     1       1.518   9.896  20.204  0.00  0.00    +0.000 HD
ENDROOT
BRANCH   2   5
ATOM      5  C   UNL     1      -0.706  10.559  21.359  0.00  0.00    +0.000 A 
ATOM      6  C   UNL     1      -0.729  11.134  22.644  0.00  0.00    +0.000 A 
ATOM      7  C   UNL     1      -1.072  12.476  22.811  0.00  0.00    +0.000 A 
ATOM      8  C   UNL     1      -1.369  13.249  21.698  0.00  0.00    +0.000 A 
ATOM      9  F   UNL     1      -1.650  14.548  21.851  0.00  0.00    +0.000 F 
ATOM     10  C   UNL     1      -1.368  12.693  20.425  0.00  0.00    +0.000 A 
ATOM     11  C   UNL     1      -1.060  11.330  20.232  0.00  0.00    +0.000 A 
BRANCH  11  12
ATOM     12  C   UNL     1      -1.141  10.800  18.818  0.00  0.00    +0.000 C 
ATOM     13  F   UNL     1      -1.844   9.655  18.641  0.00  0.00    +0.000 F 
ATOM     14  F   UNL     1      -1.768  11.708  18.007  0.00  0.00    +0.000 F 
ATOM     15  F   UNL     1       0.087  10.616  18.261  0.00  0.00    +0.000 F 
ENDBRANCH  11  12
ENDBRANCH   2   5
BRANCH   1  19
ATOM     16  N   UNL     1       2.787   6.197  19.324  0.00  0.00    +0.000 N 
ATOM     17  N   UNL     1       2.341   5.690  20.499  0.00  0.00    +0.000 NA
ATOM     18  C   UNL     1       1.686   6.684  21.088  0.00  0.00    +0.000 A 
ATOM     19  C   UNL     1       1.673   7.855  20.313  0.00  0.00    +0.000 A 
ATOM     20  C   UNL     1       2.385   7.532  19.169  0.00  0.00    +0.000 A 
ATOM     21  C   UNL     1       2.566   8.324  17.920  0.00  0.00    +0.000 C 
BRANCH  16  28
ATOM     22  C   UNL     1       7.228   5.003  17.478  0.00  0.00    +0.000 C 
ATOM     23  C   UNL     1       5.746   4.775  17.516  0.00  0.00    +0.000 A 
ATOM     24  C   UNL     1       5.137   3.835  16.689  0.00  0.00    +0.000 A 
ATOM     25  C   UNL     1       3.758   3.634  16.753  0.00  0.00    +0.000 A 
ATOM     26  C   UNL     1       2.946   4.388  17.622  0.00  0.00    +0.000 A 
ATOM     27  C   UNL     1       1.461   4.123  17.578  0.00  0.00    +0.000 C 
ATOM     28  C   UNL     1       3.553   5.367  18.444  0.00  0.00    +0.000 A 
ATOM     29  C   UNL     1       4.951   5.520  18.398  0.00  0.00    +0.000 A 
ENDBRANCH  16  28
ENDBRANCH   1  19
TORSDOF 4
ENDMDL
MODEL 7
REMARK VINA RESULT:      -7.7      1.978      2.610
REMARK  Name = 
REMARK  7 active torsions:
REMARK  status: ('A' for Active; 'I' for Inactive)
REMARK    1  A    between atoms: C_1  and  C_2
REMARK    2  A    between atoms: C_5  and  C_6
REMARK    3  A    between atoms: C_7  and  N_8
REMARK    4  A    between atoms: C_11  and  N_12
REMARK    5  A    between atoms: C_13  and  C_15
REMARK    6  A    between atoms: C_21  and  C_22
REMARK    7  A    between atoms: C_26  and  C_27
REMARK                            x       y       z     vdW  Elec       q    Type
REMARK                         _______ _______ _______ _____ _____    ______ ____
ROOT
ATOM      1  N   UNL     1       2.476   6.786  20.224  0.00  0.00    +0.000 N 
ATOM      2  C   UNL     1       1.879   5.539  20.251  0.00  0.00    +0.000 C 
ATOM      3  O   UNL     1       0.690   5.305  20.434  0.00  0.00    +0.000 OA
ATOM      4  H   UNL     1       3.480   6.866  20.146  0.00  0.00    +0.000 HD
ENDROOT
BRANCH   2   5
ATOM      5  C   UNL     1       2.785   4.369  20.130  0.00  0.00    +0.000 A 
ATOM      6  C   UNL     1       2.851   3.457  21.202  0.00  0.00    +0.000 A 
ATOM      7  C   UNL     1       3.553   2.260  21.069  0.00  0.00    +0.000 A 
ATOM      8  C   UNL     1       4.171   1.960  19.864  0.00  0.00    +0.000 A 
ATOM      9  F   UNL     1       4.804   0.791  19.718  0.00  0.00    +0.000 F 
ATOM     10  C   UNL     1       4.132   2.855  18.802  0.00  0.00    +0.000 A 
ATOM     11  C   UNL     1       3.459   4.089  18.922  0.00  0.00    +0.000 A 
BRANCH  11  12
ATOM     12  C   UNL     1       3.519   5.023  17.735  0.00  0.00    +0.000 C 
ATOM     13  F   UNL     1       4.336   6.099  17.852  0.00  0.00    +0.000 F 
ATOM     14  F   UNL     1       3.992   4.361  16.634  0.00  0.00    +0.000 F 
ATOM     15  F   UNL     1       2.291   5.482  17.371  0.00  0.00    +0.000 F 
ENDBRANCH  11  12
ENDBRANCH   2   5
BRANCH   1  19
ATOM     16  N   UNL     1       0.846   9.960  19.969  0.00  0.00    +0.000 N 
ATOM     17  N   UNL     1       0.602   9.697  21.276  0.00  0.00    +0.000 NA
ATOM     18  C   UNL     1       1.145   8.506  21.505  0.00  0.00    +0.000 A 
ATOM     19  C   UNL     1       1.767   7.970  20.366  0.00  0.00    +0.000 A 
ATOM     20  C   UNL     1       1.574   8.918  19.375  0.00  0.00    +0.000 A 
ATOM     21  C   UNL     1       2.147   8.971  18.001  0.00  0.00    +0.000 C 
BRANCH  16  28
ATOM     22  C   UNL     1       1.477  14.838  19.369  0.00  0.00    +0.000 C 
ATOM     23  C   UNL     1       0.670  13.602  19.102  0.00  0.00    +0.000 A 
ATOM     24  C   UNL     1      -0.518  13.655  18.379  0.00  0.00    +0.000 A 
ATOM     25  C   UNL     1      -1.243  12.488  18.135  0.00  0.00    +0.000 A 
ATOM     26  C   UNL     1      -0.818  11.242  18.634  0.00  0.00    +0.000 A 
ATOM     27  C   UNL     1      -1.701  10.052  18.352  0.00  0.00    +0.000 C 
ATOM     28  C   UNL     1       0.373  11.185  19.397  0.00  0.00    +0.000 A 
ATOM     29  C   UNL     1       1.113  12.365  19.590  0.00  0.00    +0.000 A 
ENDBRANCH  16  28
ENDBRANCH   1  19
TORSDOF 4
ENDMDL
MODEL 8
REMARK VINA RESULT:      -7.7      4.067      8.537
REMARK  Name = 
REMARK  7 active torsions:
REMARK  status: ('A' for Active; 'I' for Inactive)
REMARK    1  A    between atoms: C_1  and  C_2
REMARK    2  A    between atoms: C_5  and  C_6
REMARK    3  A    between atoms: C_7  and  N_8
REMARK    4  A    between atoms: C_11  and  N_12
REMARK    5  A    between atoms: C_13  and  C_15
REMARK    6  A    between atoms: C_21  and  C_22
REMARK    7  A    between atoms: C_26  and  C_27
REMARK                            x       y       z     vdW  Elec       q    Type
REMARK                         _______ _______ _______ _____ _____    ______ ____
ROOT
ATOM      1  N   UNL     1       0.599   8.880  20.542  0.00  0.00    +0.000 N 
ATOM      2  C   UNL     1       0.842   9.750  21.588  0.00  0.00    +0.000 C 
ATOM      3  O   UNL     1       1.763   9.679  22.395  0.00  0.00    +0.000 OA
ATOM      4  H   UNL     1      -0.237   8.982  19.982  0.00  0.00    +0.000 HD
ENDROOT
BRANCH   2   5
ATOM      5  C   UNL     1      -0.159  10.825  21.802  0.00  0.00    +0.000 A 
ATOM      6  C   UNL     1      -0.985  10.755  22.942  0.00  0.00    +0.000 A 
ATOM      7  C   UNL     1      -1.820  11.822  23.275  0.00  0.00    +0.000 A 
ATOM      8  C   UNL     1      -1.817  12.964  22.489  0.00  0.00    +0.000 A 
ATOM      9  F   UNL     1      -2.580  14.007  22.834  0.00  0.00    +0.000 F 
ATOM     10  C   UNL     1      -1.023  13.043  21.352  0.00  0.00    +0.000 A 
ATOM     11  C   UNL     1      -0.196  11.965  20.972  0.00  0.00    +0.000 A 
BRANCH  11  12
ATOM     12  C   UNL     1       0.589  12.119  19.689  0.00  0.00    +0.000 C 
ATOM     13  F   UNL     1       1.911  11.825  19.749  0.00  0.00    +0.000 F 
ATOM     14  F   UNL     1       0.100  11.272  18.730  0.00  0.00    +0.000 F 
ATOM     15  F   UNL     1       0.472  13.364  19.153  0.00  0.00    +0.000 F 
ENDBRANCH  11  12
ENDBRANCH   2   5
BRANCH   1  19
ATOM     16  N   UNL     1       2.811   6.415  19.191  0.00  0.00    +0.000 N 
ATOM     17  N   UNL     1       2.460   5.784  20.338  0.00  0.00    +0.000 NA
ATOM     18  C   UNL     1       1.639   6.619  20.965  0.00  0.00    +0.000 A 
ATOM     19  C   UNL     1       1.420   7.803  20.242  0.00  0.00    +0.000 A 
ATOM     20  C   UNL     1       2.180   7.663  19.092  0.00  0.00    +0.000 A 
ATOM     21  C   UNL     1       2.219   8.531  17.881  0.00  0.00    +0.000 C 
BRANCH  16  28
ATOM     22  C   UNL     1       7.292   6.326  17.079  0.00  0.00    +0.000 C 
ATOM     23  C   UNL     1       5.925   5.726  17.222  0.00  0.00    +0.000 A 
ATOM     24  C   UNL     1       5.532   4.629  16.462  0.00  0.00    +0.000 A 
ATOM     25  C   UNL     1       4.258   4.083  16.623  0.00  0.00    +0.000 A 
ATOM     26  C   UNL     1       3.331   4.639  17.526  0.00  0.00    +0.000 A 
ATOM     27  C   UNL     1       1.966   4.000  17.590  0.00  0.00    +0.000 C 
ATOM     28  C   UNL     1       3.713   5.773  18.282  0.00  0.00    +0.000 A 
ATOM     29  C   UNL     1       5.018   6.278  18.138  0.00  0.00    +0.000 A 
ENDBRANCH  16  28
ENDBRANCH   1  19
TORSDOF 4
ENDMDL
MODEL 9
REMARK VINA RESULT:      -7.6      1.975      2.761
REMARK  Name = 
REMARK  7 active torsions:
REMARK  status: ('A' for Active; 'I' for Inactive)
REMARK    1  A    between atoms: C_1  and  C_2
REMARK    2  A    between atoms: C_5  and  C_6
REMARK    3  A    between atoms: C_7  and  N_8
REMARK    4  A    between atoms: C_11  and  N_12
REMARK    5  A    between atoms: C_13  and  C_15
REMARK    6  A    between atoms: C_21  and  C_22
REMARK    7  A    between atoms: C_26  and  C_27
REMARK                            x       y       z     vdW  Elec       q    Type
REMARK                         _______ _______ _______ _____ _____    ______ ____
ROOT
ATOM      1  N   UNL     1       2.938   7.388  19.082  0.00  0.00    +0.000 N 
ATOM      2  C   UNL     1       2.754   6.337  18.203  0.00  0.00    +0.000 C 
ATOM      3  O   UNL     1       1.681   5.851  17.863  0.00  0.00    +0.000 OA
ATOM      4  H   UNL     1       3.872   7.661  19.358  0.00  0.00    +0.000 HD
ENDROOT
BRANCH   2   5
ATOM      5  C   UNL     1       3.983   5.682  17.688  0.00  0.00    +0.000 A 
ATOM      6  C   UNL     1       4.702   6.318  16.657  0.00  0.00    +0.000 A 
ATOM      7  C   UNL     1       5.946   5.831  16.258  0.00  0.00    +0.000 A 
ATOM      8  C   UNL     1       6.485   4.726  16.900  0.00  0.00    +0.000 A 
ATOM      9  F   UNL     1       7.700   4.286  16.553  0.00  0.00    +0.000 F 
ATOM     10  C   UNL     1       5.783   4.075  17.907  0.00  0.00    +0.000 A 
ATOM     11  C   UNL     1       4.507   4.525  18.304  0.00  0.00    +0.000 A 
BRANCH  11  12
ATOM     12  C   UNL     1       3.793   3.720  19.367  0.00  0.00    +0.000 C 
ATOM     13  F   UNL     1       2.685   3.046  18.973  0.00  0.00    +0.000 F 
ATOM     14  F   UNL     1       4.621   2.747  19.859  0.00  0.00    +0.000 F 
ATOM     15  F   UNL     1       3.450   4.472  20.447  0.00  0.00    +0.000 F 
ENDBRANCH  11  12
ENDBRANCH   2   5
BRANCH   1  19
ATOM     16  N   UNL     1       0.351   9.614  20.154  0.00  0.00    +0.000 N 
ATOM     17  N   UNL     1       0.266   8.691  21.143  0.00  0.00    +0.000 NA
ATOM     18  C   UNL     1       1.178   7.771  20.850  0.00  0.00    +0.000 A 
ATOM     19  C   UNL     1       1.889   8.073  19.677  0.00  0.00    +0.000 A 
ATOM     20  C   UNL     1       1.352   9.270  19.232  0.00  0.00    +0.000 A 
ATOM     21  C   UNL     1       1.813  10.153  18.125  0.00  0.00    +0.000 C 
BRANCH  16  28
ATOM     22  C   UNL     1      -1.057  13.796  22.406  0.00  0.00    +0.000 C 
ATOM     23  C   UNL     1      -1.234  12.816  21.285  0.00  0.00    +0.000 A 
ATOM     24  C   UNL     1      -2.241  12.973  20.338  0.00  0.00    +0.000 A 
ATOM     25  C   UNL     1      -2.376  12.053  19.298  0.00  0.00    +0.000 A 
ATOM     26  C   UNL     1      -1.530  10.933  19.195  0.00  0.00    +0.000 A 
ATOM     27  C   UNL     1      -1.792   9.975  18.059  0.00  0.00    +0.000 C 
ATOM     28  C   UNL     1      -0.522  10.749  20.172  0.00  0.00    +0.000 A 
ATOM     29  C   UNL     1      -0.373  11.714  21.184  0.00  0.00    +0.000 A 
ENDBRANCH  16  28
ENDBRANCH   1  19
TORSDOF 4
ENDMDL
