MODEL 1
REMARK VINA RESULT:      -9.9      0.000      0.000
REMARK  Name = 
REMARK  7 active torsions:
REMARK  status: ('A' for Active; 'I' for Inactive)
REMARK    1  A    between atoms: C_1  and  C_2
REMARK    2  A    between atoms: C_4  and  C_5
REMARK    3  A    between atoms: N_13  and  C_14
REMARK    4  A    between atoms: C_18  and  C_19
REMARK    5  A    between atoms: C_19  and  C_20
REMARK    6  A    between atoms: C_20  and  C_21
REMARK    7  A    between atoms: N_25  and  C_26
REMARK                            x       y       z     vdW  Elec       q    Type
REMARK                         _______ _______ _______ _____ _____    ______ ____
ROOT
ATOM      1  C   UNL     1       2.538   6.428  18.433  0.00  0.00    +0.000 A 
ATOM      2  C   UNL     1       1.671   5.354  18.226  0.00  0.00    +0.000 A 
ATOM      3  C   UNL     1       2.122   4.170  17.646  0.00  0.00    +0.000 A 
ATOM      4  C   UNL     1       3.452   4.045  17.246  0.00  0.00    +0.000 A 
ATOM      5  C   UNL     1       4.374   5.093  17.416  0.00  0.00    +0.000 A 
ATOM      6  C   UNL     1       3.875   6.270  18.025  0.00  0.00    +0.000 A 
ENDROOT
BRANCH   1  15
ATOM      7  C   UNL     1       0.927  11.869  18.288  0.00  0.00    +0.000 C 
ATOM      8  C   UNL     1       0.819  10.916  19.421  0.00  0.00    +0.000 A 
ATOM      9  C   UNL     1       0.185  11.036  20.651  0.00  0.00    +0.000 A 
ATOM     10  C   UNL     1       0.332   9.804  21.375  0.00  0.00    +0.000 A 
ATOM     11  C   UNL     1       1.076   9.003  20.538  0.00  0.00    +0.000 A 
ATOM     12  N   UNL     1       1.344   9.650  19.377  0.00  0.00    +0.000 N 
ATOM     13  C   UNL     1       2.005   8.874  18.432  0.00  0.00    +0.000 C 
ATOM     14  O   UNL     1       2.314   9.317  17.344  0.00  0.00    +0.000 OA
ATOM     15  N   UNL     1       2.106   7.629  19.062  0.00  0.00    +0.000 N 
ATOM     16  C   UNL     1       1.631   7.645  20.456  0.00  0.00    +0.000 C 
BRANCH  10  17
ATOM     17  C   UNL     1      -0.229   9.470  22.715  0.00  0.00    +0.000 C 
ATOM     18  F   UNL     1       0.733   9.346  23.663  0.00  0.00    +0.000 F 
ATOM     19  F   UNL     1      -1.091  10.427  23.146  0.00  0.00    +0.000 F 
ATOM     20  F   UNL     1      -0.917   8.301  22.692  0.00  0.00    +0.000 F 
ENDBRANCH  10  17
ENDBRANCH   1  15
BRANCH   5  21
ATOM     21  C   UNL     1       5.900   4.970  16.926  0.00  0.00    +0.000 C 
ATOM     22  C   UNL     1       6.948   4.615  18.018  0.00  0.00    +0.000 C 
ATOM     23  O   UNL     1       7.855   5.632  17.532  0.00  0.00    +0.000 OA
ATOM     24  C   UNL     1       6.763   6.255  16.801  0.00  0.00    +0.000 C 
BRANCH  21  25
ATOM     25  C   UNL     1       6.027   4.023  15.716  0.00  0.00    +0.000 C 
BRANCH  25  26
ATOM     26  C   UNL     1       6.804   4.582  14.570  0.00  0.00    +0.000 A 
ATOM     27  N   UNL     1       7.799   5.445  14.624  0.00  0.00    +0.000 NA
ATOM     28  N   UNL     1       8.215   5.708  13.341  0.00  0.00    +0.000 NA
ATOM     29  C   UNL     1       7.493   4.972  12.530  0.00  0.00    +0.000 A 
ATOM     30  N   UNL     1       6.605   4.244  13.255  0.00  0.00    +0.000 N 
ATOM     31  C   UNL     1       5.664   3.289  12.734  0.00  0.00    +0.000 C 
ENDBRANCH  25  26
ENDBRANCH  21  25
ENDBRANCH   5  21
TORSDOF 5
ENDMDL
MODEL 2
REMARK VINA RESULT:      -9.9      1.868      2.924
REMARK  Name = 
REMARK  7 active torsions:
REMARK  status: ('A' for Active; 'I' for Inactive)
REMARK    1  A    between atoms: C_1  and  C_2
REMARK    2  A    between atoms: C_4  and  C_5
REMARK    3  A    between atoms: N_13  and  C_14
REMARK    4  A    between atoms: C_18  and  C_19
REMARK    5  A    between atoms: C_19  and  C_20
REMARK    6  A    between atoms: C_20  and  C_21
REMARK    7  A    between atoms: N_25  and  C_26
REMARK                            x       y       z     vdW  Elec       q    Type
REMARK                         _______ _______ _______ _____ _____    ______ ____
ROOT
ATOM      1  C   UNL     1       2.548   6.158  18.437  0.00  0.00    +0.000 A 
ATOM      2  C   UNL     1       1.842   4.977  18.675  0.00  0.00    +0.000 A 
ATOM      3  C   UNL     1       2.258   3.770  18.116  0.00  0.00    +0.000 A 
ATOM      4  C   UNL     1       3.381   3.726  17.292  0.00  0.00    +0.000 A 
ATOM      5  C   UNL     1       4.129   4.881  17.003  0.00  0.00    +0.000 A 
ATOM      6  C   UNL     1       3.680   6.081  17.606  0.00  0.00    +0.000 A 
ENDROOT
BRANCH   1  15
ATOM      7  C   UNL     1       1.134  11.648  18.141  0.00  0.00    +0.000 C 
ATOM      8  C   UNL     1       1.000  10.734  19.302  0.00  0.00    +0.000 A 
ATOM      9  C   UNL     1       0.381  10.913  20.533  0.00  0.00    +0.000 A 
ATOM     10  C   UNL     1       0.488   9.699  21.292  0.00  0.00    +0.000 A 
ATOM     11  C   UNL     1       1.196   8.846  20.475  0.00  0.00    +0.000 A 
ATOM     12  N   UNL     1       1.479   9.449  19.293  0.00  0.00    +0.000 N 
ATOM     13  C   UNL     1       2.104   8.621  18.367  0.00  0.00    +0.000 C 
ATOM     14  O   UNL     1       2.420   9.020  17.264  0.00  0.00    +0.000 OA
ATOM     15  N   UNL     1       2.165   7.393  19.033  0.00  0.00    +0.000 N 
ATOM     16  C   UNL     1       1.701   7.467  20.429  0.00  0.00    +0.000 C 
BRANCH  10  17
ATOM     17  C   UNL     1      -0.074   9.424  22.645  0.00  0.00    +0.000 C 
ATOM     18  F   UNL     1      -0.785  10.472  23.132  0.00  0.00    +0.000 F 
ATOM     19  F   UNL     1      -0.908   8.353  22.629  0.00  0.00    +0.000 F 
ATOM     20  F   UNL     1       0.901   9.152  23.547  0.00  0.00    +0.000 F 
ENDBRANCH  10  17
ENDBRANCH   1  15
BRANCH   5  21
ATOM     21  C   UNL     1       5.405   4.846  16.026  0.00  0.00    +0.000 C 
ATOM     22  C   UNL     1       5.104   4.765  14.503  0.00  0.00    +0.000 C 
ATOM     23  O   UNL     1       6.110   3.741  14.320  0.00  0.00    +0.000 OA
ATOM     24  C   UNL     1       6.117   3.494  15.753  0.00  0.00    +0.000 C 
BRANCH  21  25
ATOM     25  C   UNL     1       6.377   6.003  16.330  0.00  0.00    +0.000 C 
BRANCH  25  26
ATOM     26  C   UNL     1       7.106   5.875  17.627  0.00  0.00    +0.000 A 
ATOM     27  N   UNL     1       7.254   4.787  18.356  0.00  0.00    +0.000 NA
ATOM     28  N   UNL     1       7.973   5.114  19.481  0.00  0.00    +0.000 NA
ATOM     29  C   UNL     1       8.285   6.385  19.399  0.00  0.00    +0.000 A 
ATOM     30  N   UNL     1       7.773   6.900  18.251  0.00  0.00    +0.000 N 
ATOM     31  C   UNL     1       7.929   8.250  17.781  0.00  0.00    +0.000 C 
ENDBRANCH  25  26
ENDBRANCH  21  25
ENDBRANCH   5  21
TORSDOF 5
ENDMDL
MODEL 3
REMARK VINA RESULT:      -9.8      1.636      2.697
REMARK  Name = 
REMARK  7 active torsions:
REMARK  status: ('A' for Active; 'I' for Inactive)
REMARK    1  A    between atoms: C_1  and  C_2
REMARK    2  A    between atoms: C_4  and  C_5
REMARK    3  A    between atoms: N_13  and  C_14
REMARK    4  A    between atoms: C_18  and  C_19
REMARK    5  A    between atoms: C_19  and  C_20
REMARK    6  A    between atoms: C_20  and  C_21
REMARK    7  A    between atoms: N_25  and  C_26
REMARK                            x       y       z     vdW  Elec       q    Type
REMARK                         _______ _______ _______ _____ _____    ______ ____
ROOT
ATOM      1  C   UNL     1       2.537   6.084  18.579  0.00  0.00    +0.000 A 
ATOM      2  C   UNL     1       1.793   4.925  18.806  0.00  0.00    +0.000 A 
ATOM      3  C   UNL     1       2.202   3.698  18.284  0.00  0.00    +0.000 A 
ATOM      4  C   UNL     1       3.359   3.614  17.510  0.00  0.00    +0.000 A 
ATOM      5  C   UNL     1       4.146   4.745  17.236  0.00  0.00    +0.000 A 
ATOM      6  C   UNL     1       3.702   5.966  17.800  0.00  0.00    +0.000 A 
ENDROOT
BRANCH   1  15
ATOM      7  C   UNL     1       1.169  11.575  18.124  0.00  0.00    +0.000 C 
ATOM      8  C   UNL     1       1.019  10.693  19.308  0.00  0.00    +0.000 A 
ATOM      9  C   UNL     1       0.393  10.911  20.529  0.00  0.00    +0.000 A 
ATOM     10  C   UNL     1       0.485   9.717  21.322  0.00  0.00    +0.000 A 
ATOM     11  C   UNL     1       1.192   8.837  20.533  0.00  0.00    +0.000 A 
ATOM     12  N   UNL     1       1.488   9.405  19.338  0.00  0.00    +0.000 N 
ATOM     13  C   UNL     1       2.113   8.548  18.439  0.00  0.00    +0.000 C 
ATOM     14  O   UNL     1       2.441   8.914  17.328  0.00  0.00    +0.000 OA
ATOM     15  N   UNL     1       2.160   7.337  19.139  0.00  0.00    +0.000 N 
ATOM     16  C   UNL     1       1.686   7.453  20.528  0.00  0.00    +0.000 C 
BRANCH  10  17
ATOM     17  C   UNL     1      -0.089   9.484  22.677  0.00  0.00    +0.000 C 
ATOM     18  F   UNL     1       0.867   9.251  23.612  0.00  0.00    +0.000 F 
ATOM     19  F   UNL     1      -0.808  10.554  23.104  0.00  0.00    +0.000 F 
ATOM     20  F   UNL     1      -0.925   8.416  22.690  0.00  0.00    +0.000 F 
ENDBRANCH  10  17
ENDBRANCH   1  15
BRANCH   5  21
ATOM     21  C   UNL     1       5.462   4.663  16.315  0.00  0.00    +0.000 C 
ATOM     22  C   UNL     1       5.552   5.689  15.151  0.00  0.00    +0.000 C 
ATOM     23  O   UNL     1       5.981   4.661  14.228  0.00  0.00    +0.000 OA
ATOM     24  C   UNL     1       5.511   3.639  15.150  0.00  0.00    +0.000 C 
BRANCH  21  25
ATOM     25  C   UNL     1       6.746   4.689  17.168  0.00  0.00    +0.000 C 
BRANCH  25  26
ATOM     26  C   UNL     1       7.266   6.057  17.463  0.00  0.00    +0.000 A 
ATOM     27  N   UNL     1       7.240   7.110  16.672  0.00  0.00    +0.000 NA
ATOM     28  N   UNL     1       7.842   8.159  17.325  0.00  0.00    +0.000 NA
ATOM     29  C   UNL     1       8.188   7.738  18.518  0.00  0.00    +0.000 A 
ATOM     30  N   UNL     1       7.839   6.432  18.653  0.00  0.00    +0.000 N 
ATOM     31  C   UNL     1       8.016   5.623  19.828  0.00  0.00    +0.000 C 
ENDBRANCH  25  26
ENDBRANCH  21  25
ENDBRANCH   5  21
TORSDOF 5
ENDMDL
MODEL 4
REMARK VINA RESULT:      -9.6      0.726      1.259
REMARK  Name = 
REMARK  7 active torsions:
REMARK  status: ('A' for Active; 'I' for Inactive)
REMARK    1  A    between atoms: C_1  and  C_2
REMARK    2  A    between atoms: C_4  and  C_5
REMARK    3  A    between atoms: N_13  and  C_14
REMARK    4  A    between atoms: C_18  and  C_19
REMARK    5  A    between atoms: C_19  and  C_20
REMARK    6  A    between atoms: C_20  and  C_21
REMARK    7  A    between atoms: N_25  and  C_26
REMARK                            x       y       z     vdW  Elec       q    Type
REMARK                         _______ _______ _______ _____ _____    ______ ____
ROOT
ATOM      1  C   UNL     1       2.587   6.580  18.418  0.00  0.00    +0.000 A 
ATOM      2  C   UNL     1       1.819   5.416  18.374  0.00  0.00    +0.000 A 
ATOM      3  C   UNL     1       2.313   4.254  17.782  0.00  0.00    +0.000 A 
ATOM      4  C   UNL     1       3.584   4.242  17.210  0.00  0.00    +0.000 A 
ATOM      5  C   UNL     1       4.404   5.384  17.211  0.00  0.00    +0.000 A 
ATOM      6  C   UNL     1       3.867   6.536  17.837  0.00  0.00    +0.000 A 
ENDROOT
BRANCH   1  15
ATOM      7  C   UNL     1       0.702  11.934  18.296  0.00  0.00    +0.000 C 
ATOM      8  C   UNL     1       0.680  10.985  19.437  0.00  0.00    +0.000 A 
ATOM      9  C   UNL     1       0.083  11.083  20.688  0.00  0.00    +0.000 A 
ATOM     10  C   UNL     1       0.316   9.866  21.414  0.00  0.00    +0.000 A 
ATOM     11  C   UNL     1       1.070   9.096  20.557  0.00  0.00    +0.000 A 
ATOM     12  N   UNL     1       1.266   9.747  19.383  0.00  0.00    +0.000 N 
ATOM     13  C   UNL     1       1.933   8.997  18.421  0.00  0.00    +0.000 C 
ATOM     14  O   UNL     1       2.183   9.446  17.320  0.00  0.00    +0.000 OA
ATOM     15  N   UNL     1       2.117   7.764  19.055  0.00  0.00    +0.000 N 
ATOM     16  C   UNL     1       1.689   7.766  20.464  0.00  0.00    +0.000 C 
BRANCH  10  17
ATOM     17  C   UNL     1      -0.182   9.514  22.774  0.00  0.00    +0.000 C 
ATOM     18  F   UNL     1       0.827   9.276  23.649  0.00  0.00    +0.000 F 
ATOM     19  F   UNL     1      -0.937  10.513  23.301  0.00  0.00    +0.000 F 
ATOM     20  F   UNL     1      -0.958   8.402  22.751  0.00  0.00    +0.000 F 
ENDBRANCH  10  17
ENDBRANCH   1  15
BRANCH   5  21
ATOM     21  C   UNL     1       5.856   5.390  16.522  0.00  0.00    +0.000 C 
ATOM     22  C   UNL     1       6.651   4.056  16.581  0.00  0.00    +0.000 C 
ATOM     23  O   UNL     1       7.862   4.751  16.963  0.00  0.00    +0.000 OA
ATOM     24  C   UNL     1       7.076   5.920  17.323  0.00  0.00    +0.000 C 
BRANCH  21  25
ATOM     25  C   UNL     1       5.789   5.923  15.077  0.00  0.00    +0.000 C 
BRANCH  25  26
ATOM     26  C   UNL     1       5.929   4.875  14.022  0.00  0.00    +0.000 A 
ATOM     27  N   UNL     1       5.055   3.942  13.703  0.00  0.00    +0.000 NA
ATOM     28  N   UNL     1       5.589   3.175  12.696  0.00  0.00    +0.000 NA
ATOM     29  C   UNL     1       6.761   3.677  12.392  0.00  0.00    +0.000 A 
ATOM     30  N   UNL     1       7.012   4.748  13.189  0.00  0.00    +0.000 N 
ATOM     31  C   UNL     1       8.176   5.591  13.139  0.00  0.00    +0.000 C 
ENDBRANCH  25  26
ENDBRANCH  21  25
ENDBRANCH   5  21
TORSDOF 5
ENDMDL
MODEL 5
REMARK VINA RESULT:      -9.3      4.302      9.148
REMARK  Name = 
REMARK  7 active torsions:
REMARK  status: ('A' for Active; 'I' for Inactive)
REMARK    1  A    between atoms: C_1  and  C_2
REMARK    2  A    between atoms: C_4  and  C_5
REMARK    3  A    between atoms: N_13  and  C_14
REMARK    4  A    between atoms: C_18  and  C_19
REMARK    5  A    between atoms: C_19  and  C_20
REMARK    6  A    between atoms: C_20  and  C_21
REMARK    7  A    between atoms: N_25  and  C_26
REMARK                            x       y       z     vdW  Elec       q    Type
REMARK                         _______ _______ _______ _____ _____    ______ ____
ROOT
ATOM      1  C   UNL     1       1.797   7.850  20.007  0.00  0.00    +0.000 A 
ATOM      2  C   UNL     1       1.589   7.790  21.386  0.00  0.00    +0.000 A 
ATOM      3  C   UNL     1       0.848   8.773  22.041  0.00  0.00    +0.000 A 
ATOM      4  C   UNL     1       0.315   9.845  21.327  0.00  0.00    +0.000 A 
ATOM      5  C   UNL     1       0.498   9.970  19.939  0.00  0.00    +0.000 A 
ATOM      6  C   UNL     1       1.242   8.940  19.313  0.00  0.00    +0.000 A 
ENDROOT
BRANCH   1  15
ATOM      7  C   UNL     1       2.527   2.474  18.335  0.00  0.00    +0.000 C 
ATOM      8  C   UNL     1       3.228   3.685  17.842  0.00  0.00    +0.000 A 
ATOM      9  C   UNL     1       4.107   3.857  16.779  0.00  0.00    +0.000 A 
ATOM     10  C   UNL     1       4.469   5.244  16.691  0.00  0.00    +0.000 A 
ATOM     11  C   UNL     1       3.797   5.840  17.734  0.00  0.00    +0.000 A 
ATOM     12  N   UNL     1       3.048   4.925  18.400  0.00  0.00    +0.000 N 
ATOM     13  C   UNL     1       2.255   5.463  19.407  0.00  0.00    +0.000 C 
ATOM     14  O   UNL     1       1.532   4.767  20.091  0.00  0.00    +0.000 OA
ATOM     15  N   UNL     1       2.514   6.834  19.313  0.00  0.00    +0.000 N 
ATOM     16  C   UNL     1       3.568   7.160  18.338  0.00  0.00    +0.000 C 
BRANCH  10  17
ATOM     17  C   UNL     1       5.348   5.886  15.673  0.00  0.00    +0.000 C 
ATOM     18  F   UNL     1       6.592   6.143  16.151  0.00  0.00    +0.000 F 
ATOM     19  F   UNL     1       5.499   5.098  14.578  0.00  0.00    +0.000 F 
ATOM     20  F   UNL     1       4.837   7.066  15.243  0.00  0.00    +0.000 F 
ENDBRANCH  10  17
ENDBRANCH   1  15
BRANCH   5  21
ATOM     21  C   UNL     1      -0.083  11.222  19.113  0.00  0.00    +0.000 C 
ATOM     22  C   UNL     1      -1.346  11.909  19.703  0.00  0.00    +0.000 C 
ATOM     23  O   UNL     1      -1.975  11.955  18.401  0.00  0.00    +0.000 OA
ATOM     24  C   UNL     1      -1.030  10.965  17.910  0.00  0.00    +0.000 C 
BRANCH  21  25
ATOM     25  C   UNL     1       1.018  12.260  18.819  0.00  0.00    +0.000 C 
BRANCH  25  26
ATOM     26  C   UNL     1       1.285  13.214  19.938  0.00  0.00    +0.000 A 
ATOM     27  N   UNL     1       1.968  12.981  21.040  0.00  0.00    +0.000 NA
ATOM     28  N   UNL     1       1.951  14.120  21.809  0.00  0.00    +0.000 NA
ATOM     29  C   UNL     1       1.293  15.039  21.143  0.00  0.00    +0.000 A 
ATOM     30  N   UNL     1       0.866  14.521  19.963  0.00  0.00    +0.000 N 
ATOM     31  C   UNL     1       0.142  15.223  18.938  0.00  0.00    +0.000 C 
ENDBRANCH  25  26
ENDBRANCH  21  25
ENDBRANCH   5  21
TORSDOF 5
ENDMDL
MODEL 6
REMARK VINA RESULT:      -9.3      3.739      8.905
REMARK  Name = 
REMARK  7 active torsions:
REMARK  status: ('A' for Active; 'I' for Inactive)
REMARK    1  A    between atoms: C_1  and  C_2
REMARK    2  A    between atoms: C_4  and  C_5
REMARK    3  A    between atoms: N_13  and  C_14
REMARK    4  A    between atoms: C_18  and  C_19
REMARK    5  A    between atoms: C_19  and  C_20
REMARK    6  A    between atoms: C_20  and  C_21
REMARK    7  A    between atoms: N_25  and  C_26
REMARK                            x       y       z     vdW  Elec       q    Type
REMARK                         _______ _______ _______ _____ _____    ______ ____
ROOT
ATOM      1  C   UNL     1       1.786   7.868  19.796  0.00  0.00    +0.000 A 
ATOM      2  C   UNL     1       1.732   7.734  21.184  0.00  0.00    +0.000 A 
ATOM      3  C   UNL     1       1.165   8.729  21.978  0.00  0.00    +0.000 A 
ATOM      4  C   UNL     1       0.655   9.888  21.395  0.00  0.00    +0.000 A 
ATOM      5  C   UNL     1       0.688  10.090  20.004  0.00  0.00    +0.000 A 
ATOM      6  C   UNL     1       1.258   9.045  19.236  0.00  0.00    +0.000 A 
ENDROOT
BRANCH   1  15
ATOM      7  C   UNL     1       5.466   5.970  15.912  0.00  0.00    +0.000 C 
ATOM      8  C   UNL     1       4.554   5.173  16.769  0.00  0.00    +0.000 A 
ATOM      9  C   UNL     1       4.457   3.801  16.963  0.00  0.00    +0.000 A 
ATOM     10  C   UNL     1       3.437   3.537  17.940  0.00  0.00    +0.000 A 
ATOM     11  C   UNL     1       2.952   4.782  18.272  0.00  0.00    +0.000 A 
ATOM     12  N   UNL     1       3.624   5.748  17.598  0.00  0.00    +0.000 N 
ATOM     13  C   UNL     1       3.266   7.044  17.952  0.00  0.00    +0.000 C 
ATOM     14  O   UNL     1       3.781   8.014  17.434  0.00  0.00    +0.000 OA
ATOM     15  N   UNL     1       2.322   6.844  18.965  0.00  0.00    +0.000 N 
ATOM     16  C   UNL     1       1.980   5.426  19.166  0.00  0.00    +0.000 C 
BRANCH  10  17
ATOM     17  C   UNL     1       3.030   2.212  18.487  0.00  0.00    +0.000 C 
ATOM     18  F   UNL     1       3.779   1.195  17.991  0.00  0.00    +0.000 F 
ATOM     19  F   UNL     1       3.156   2.173  19.839  0.00  0.00    +0.000 F 
ATOM     20  F   UNL     1       1.736   1.928  18.202  0.00  0.00    +0.000 F 
ENDBRANCH  10  17
ENDBRANCH   1  15
BRANCH   5  21
ATOM     21  C   UNL     1       0.134  11.439  19.326  0.00  0.00    +0.000 C 
ATOM     22  C   UNL     1      -1.008  12.171  20.085  0.00  0.00    +0.000 C 
ATOM     23  O   UNL     1      -1.752  12.360  18.858  0.00  0.00    +0.000 OA
ATOM     24  C   UNL     1      -0.941  11.342  18.210  0.00  0.00    +0.000 C 
BRANCH  21  25
ATOM     25  C   UNL     1       1.282  12.412  18.994  0.00  0.00    +0.000 C 
BRANCH  25  26
ATOM     26  C   UNL     1       1.599  13.390  20.077  0.00  0.00    +0.000 A 
ATOM     27  N   UNL     1       2.257  13.159  21.195  0.00  0.00    +0.000 NA
ATOM     28  N   UNL     1       2.305  14.326  21.919  0.00  0.00    +0.000 NA
ATOM     29  C   UNL     1       1.712  15.258  21.212  0.00  0.00    +0.000 A 
ATOM     30  N   UNL     1       1.263  14.721  20.047  0.00  0.00    +0.000 N 
ATOM     31  C   UNL     1       0.593  15.427  18.989  0.00  0.00    +0.000 C 
ENDBRANCH  25  26
ENDBRANCH  21  25
ENDBRANCH   5  21
TORSDOF 5
ENDMDL
MODEL 7
REMARK VINA RESULT:      -9.2      3.045      4.228
REMARK  Name = 
REMARK  7 active torsions:
REMARK  status: ('A' for Active; 'I' for Inactive)
REMARK    1  A    between atoms: C_1  and  C_2
REMARK    2  A    between atoms: C_4  and  C_5
REMARK    3  A    between atoms: N_13  and  C_14
REMARK    4  A    between atoms: C_18  and  C_19
REMARK    5  A    between atoms: C_19  and  C_20
REMARK    6  A    between atoms: C_20  and  C_21
REMARK    7  A    between atoms: N_25  and  C_26
REMARK                            x       y       z     vdW  Elec       q    Type
REMARK                         _______ _______ _______ _____ _____    ______ ____
ROOT
ATOM      1  C   UNL     1       2.241   7.959  18.565  0.00  0.00    +0.000 A 
ATOM      2  C   UNL     1       3.103   8.499  17.609  0.00  0.00    +0.000 A 
ATOM      3  C   UNL     1       3.996   7.688  16.910  0.00  0.00    +0.000 A 
ATOM      4  C   UNL     1       4.051   6.319  17.167  0.00  0.00    +0.000 A 
ATOM      5  C   UNL     1       3.218   5.714  18.124  0.00  0.00    +0.000 A 
ATOM      6  C   UNL     1       2.316   6.574  18.797  0.00  0.00    +0.000 A 
ENDROOT
BRANCH   1  15
ATOM      7  C   UNL     1      -0.251   9.800  23.321  0.00  0.00    +0.000 C 
ATOM      8  C   UNL     1      -0.361  10.370  21.956  0.00  0.00    +0.000 A 
ATOM      9  C   UNL     1      -0.951  11.544  21.506  0.00  0.00    +0.000 A 
ATOM     10  C   UNL     1      -0.740  11.662  20.090  0.00  0.00    +0.000 A 
ATOM     11  C   UNL     1      -0.042  10.524  19.753  0.00  0.00    +0.000 A 
ATOM     12  N   UNL     1       0.201   9.773  20.856  0.00  0.00    +0.000 N 
ATOM     13  C   UNL     1       0.993   8.655  20.620  0.00  0.00    +0.000 C 
ATOM     14  O   UNL     1       1.294   7.885  21.510  0.00  0.00    +0.000 OA
ATOM     15  N   UNL     1       1.293   8.763  19.258  0.00  0.00    +0.000 N 
ATOM     16  C   UNL     1       0.589   9.873  18.596  0.00  0.00    +0.000 C 
BRANCH  10  17
ATOM     17  C   UNL     1      -1.158  12.785  19.203  0.00  0.00    +0.000 C 
ATOM     18  F   UNL     1      -1.896  13.715  19.859  0.00  0.00    +0.000 F 
ATOM     19  F   UNL     1      -0.084  13.429  18.678  0.00  0.00    +0.000 F 
ATOM     20  F   UNL     1      -1.906  12.347  18.160  0.00  0.00    +0.000 F 
ENDBRANCH  10  17
ENDBRANCH   1  15
BRANCH   5  21
ATOM     21  C   UNL     1       3.300   4.142  18.452  0.00  0.00    +0.000 C 
ATOM     22  C   UNL     1       2.149   3.261  17.891  0.00  0.00    +0.000 C 
ATOM     23  O   UNL     1       2.018   2.564  19.152  0.00  0.00    +0.000 OA
ATOM     24  C   UNL     1       2.766   3.621  19.813  0.00  0.00    +0.000 C 
BRANCH  21  25
ATOM     25  C   UNL     1       4.674   3.560  18.066  0.00  0.00    +0.000 C 
BRANCH  25  26
ATOM     26  C   UNL     1       5.842   4.340  18.573  0.00  0.00    +0.000 A 
ATOM     27  N   UNL     1       6.061   4.737  19.810  0.00  0.00    +0.000 NA
ATOM     28  N   UNL     1       7.240   5.442  19.837  0.00  0.00    +0.000 NA
ATOM     29  C   UNL     1       7.739   5.429  18.625  0.00  0.00    +0.000 A 
ATOM     30  N   UNL     1       6.904   4.742  17.802  0.00  0.00    +0.000 N 
ATOM     31  C   UNL     1       7.118   4.473  16.406  0.00  0.00    +0.000 C 
ENDBRANCH  25  26
ENDBRANCH  21  25
ENDBRANCH   5  21
TORSDOF 5
ENDMDL
MODEL 8
REMARK VINA RESULT:      -9.1      4.529      9.699
REMARK  Name = 
REMARK  7 active torsions:
REMARK  status: ('A' for Active; 'I' for Inactive)
REMARK    1  A    between atoms: C_1  and  C_2
REMARK    2  A    between atoms: C_4  and  C_5
REMARK    3  A    between atoms: N_13  and  C_14
REMARK    4  A    between atoms: C_18  and  C_19
REMARK    5  A    between atoms: C_19  and  C_20
REMARK    6  A    between atoms: C_20  and  C_21
REMARK    7  A    between atoms: N_25  and  C_26
REMARK                            x       y       z     vdW  Elec       q    Type
REMARK                         _______ _______ _______ _____ _____    ______ ____
ROOT
ATOM      1  C   UNL     1       2.260   8.005  18.665  0.00  0.00    +0.000 A 
ATOM      2  C   UNL     1       2.401   9.007  17.704  0.00  0.00    +0.000 A 
ATOM      3  C   UNL     1       1.816  10.260  17.885  0.00  0.00    +0.000 A 
ATOM      4  C   UNL     1       1.065  10.526  19.029  0.00  0.00    +0.000 A 
ATOM      5  C   UNL     1       0.876   9.557  20.029  0.00  0.00    +0.000 A 
ATOM      6  C   UNL     1       1.501   8.306  19.811  0.00  0.00    +0.000 A 
ENDROOT
BRANCH   1  15
ATOM      7  C   UNL     1       2.410   2.375  19.382  0.00  0.00    +0.000 C 
ATOM      8  C   UNL     1       3.286   3.208  18.522  0.00  0.00    +0.000 A 
ATOM      9  C   UNL     1       4.242   2.848  17.579  0.00  0.00    +0.000 A 
ATOM     10  C   UNL     1       4.780   4.037  16.981  0.00  0.00    +0.000 A 
ATOM     11  C   UNL     1       4.126   5.067  17.619  0.00  0.00    +0.000 A 
ATOM     12  N   UNL     1       3.230   4.578  18.512  0.00  0.00    +0.000 N 
ATOM     13  C   UNL     1       2.450   5.551  19.127  0.00  0.00    +0.000 C 
ATOM     14  O   UNL     1       1.605   5.267  19.952  0.00  0.00    +0.000 OA
ATOM     15  N   UNL     1       2.884   6.734  18.519  0.00  0.00    +0.000 N 
ATOM     16  C   UNL     1       4.028   6.534  17.614  0.00  0.00    +0.000 C 
BRANCH  10  17
ATOM     17  C   UNL     1       5.793   4.123  15.891  0.00  0.00    +0.000 C 
ATOM     18  F   UNL     1       6.017   2.923  15.298  0.00  0.00    +0.000 F 
ATOM     19  F   UNL     1       5.400   4.981  14.914  0.00  0.00    +0.000 F 
ATOM     20  F   UNL     1       6.988   4.568  16.351  0.00  0.00    +0.000 F 
ENDBRANCH  10  17
ENDBRANCH   1  15
BRANCH   5  21
ATOM     21  C   UNL     1      -0.019   9.844  21.334  0.00  0.00    +0.000 C 
ATOM     22  C   UNL     1       0.755  10.064  22.664  0.00  0.00    +0.000 C 
ATOM     23  O   UNL     1      -0.154   9.196  23.380  0.00  0.00    +0.000 OA
ATOM     24  C   UNL     1      -0.625   8.650  22.118  0.00  0.00    +0.000 C 
BRANCH  21  25
ATOM     25  C   UNL     1      -1.019  10.990  21.087  0.00  0.00    +0.000 C 
BRANCH  25  26
ATOM     26  C   UNL     1      -0.752  12.228  21.880  0.00  0.00    +0.000 A 
ATOM     27  N   UNL     1       0.255  13.065  21.739  0.00  0.00    +0.000 NA
ATOM     28  N   UNL     1       0.132  14.056  22.683  0.00  0.00    +0.000 NA
ATOM     29  C   UNL     1      -0.970  13.827  23.357  0.00  0.00    +0.000 A 
ATOM     30  N   UNL     1      -1.562  12.700  22.884  0.00  0.00    +0.000 N 
ATOM     31  C   UNL     1      -2.806  12.138  23.336  0.00  0.00    +0.000 C 
ENDBRANCH  25  26
ENDBRANCH  21  25
ENDBRANCH   5  21
TORSDOF 5
ENDMDL
MODEL 9
REMARK VINA RESULT:      -9.1      4.533      9.679
REMARK  Name = 
REMARK  7 active torsions:
REMARK  status: ('A' for Active; 'I' for Inactive)
REMARK    1  A    between atoms: C_1  and  C_2
REMARK    2  A    between atoms: C_4  and  C_5
REMARK    3  A    between atoms: N_13  and  C_14
REMARK    4  A    between atoms: C_18  and  C_19
REMARK    5  A    between atoms: C_19  and  C_20
REMARK    6  A    between atoms: C_20  and  C_21
REMARK    7  A    between atoms: N_25  and  C_26
REMARK                            x       y       z     vdW  Elec       q    Type
REMARK                         _______ _______ _______ _____ _____    ______ ____
ROOT
ATOM      1  C   UNL     1       2.055   7.924  18.788  0.00  0.00    +0.000 A 
ATOM      2  C   UNL     1       1.820   8.747  17.686  0.00  0.00    +0.000 A 
ATOM      3  C   UNL     1       1.201   9.987  17.838  0.00  0.00    +0.000 A 
ATOM      4  C   UNL     1       0.791  10.419  19.099  0.00  0.00    +0.000 A 
ATOM      5  C   UNL     1       0.989   9.633  20.247  0.00  0.00    +0.000 A 
ATOM      6  C   UNL     1       1.636   8.389  20.048  0.00  0.00    +0.000 A 
ENDROOT
BRANCH   1  15
ATOM      7  C   UNL     1       2.389   2.310  19.559  0.00  0.00    +0.000 C 
ATOM      8  C   UNL     1       3.245   3.164  18.699  0.00  0.00    +0.000 A 
ATOM      9  C   UNL     1       4.222   2.828  17.770  0.00  0.00    +0.000 A 
ATOM     10  C   UNL     1       4.726   4.030  17.166  0.00  0.00    +0.000 A 
ATOM     11  C   UNL     1       4.030   5.043  17.788  0.00  0.00    +0.000 A 
ATOM     12  N   UNL     1       3.142   4.531  18.676  0.00  0.00    +0.000 N 
ATOM     13  C   UNL     1       2.324   5.483  19.275  0.00  0.00    +0.000 C 
ATOM     14  O   UNL     1       1.481   5.177  20.093  0.00  0.00    +0.000 OA
ATOM     15  N   UNL     1       2.724   6.674  18.660  0.00  0.00    +0.000 N 
ATOM     16  C   UNL     1       3.883   6.505  17.768  0.00  0.00    +0.000 C 
BRANCH  10  17
ATOM     17  C   UNL     1       5.746   4.140  16.085  0.00  0.00    +0.000 C 
ATOM     18  F   UNL     1       5.399   5.046  15.136  0.00  0.00    +0.000 F 
ATOM     19  F   UNL     1       6.952   4.524  16.577  0.00  0.00    +0.000 F 
ATOM     20  F   UNL     1       5.936   2.956  15.453  0.00  0.00    +0.000 F 
ENDBRANCH  10  17
ENDBRANCH   1  15
BRANCH   5  21
ATOM     21  C   UNL     1       0.488  10.107  21.699  0.00  0.00    +0.000 C 
ATOM     22  C   UNL     1       1.348   9.646  22.909  0.00  0.00    +0.000 C 
ATOM     23  O   UNL     1       0.166   9.272  23.655  0.00  0.00    +0.000 OA
ATOM     24  C   UNL     1      -0.613   9.290  22.427  0.00  0.00    +0.000 C 
BRANCH  21  25
ATOM     25  C   UNL     1       0.254  11.630  21.743  0.00  0.00    +0.000 C 
BRANCH  25  26
ATOM     26  C   UNL     1      -1.100  12.036  22.226  0.00  0.00    +0.000 A 
ATOM     27  N   UNL     1      -1.472  12.253  23.471  0.00  0.00    +0.000 NA
ATOM     28  N   UNL     1      -2.805  12.585  23.473  0.00  0.00    +0.000 NA
ATOM     29  C   UNL     1      -3.212  12.606  22.227  0.00  0.00    +0.000 A 
ATOM     30  N   UNL     1      -2.177  12.278  21.410  0.00  0.00    +0.000 N 
ATOM     31  C   UNL     1      -2.211  12.227  19.974  0.00  0.00    +0.000 C 
ENDBRANCH  25  26
ENDBRANCH  21  25
ENDBRANCH   5  21
TORSDOF 5
ENDMDL
