MODEL 1
REMARK VINA RESULT:      -9.7      0.000      0.000
REMARK  Name = 
REMARK  3 active torsions:
REMARK  status: ('A' for Active; 'I' for Inactive)
REMARK    1  A    between atoms: C_2  and  C_4
REMARK    2  A    between atoms: C_8  and  C_9
REMARK    3  A    between atoms: C_14  and  C_15
REMARK                            x       y       z     vdW  Elec       q    Type
REMARK                         _______ _______ _______ _____ _____    ______ ____
ROOT
ATOM      1  C   UNL     1       6.568   5.048  15.762  0.00  0.00    +0.000 C 
ATOM      2  O   UNL     1       7.549   5.049  16.491  0.00  0.00    +0.000 OA
ATOM      3  N   UNL     1       5.261   5.321  16.113  0.00  0.00    +0.000 N 
ATOM      4  C   UNL     1       4.790   5.490  17.399  0.00  0.00    +0.000 A 
ATOM      5  C   UNL     1       3.409   5.537  17.681  0.00  0.00    +0.000 A 
ATOM      6  C   UNL     1       3.304   5.362  19.048  0.00  0.00    +0.000 A 
ATOM      7  N   UNL     1       4.581   5.518  19.513  0.00  0.00    +0.000 N 
ATOM      8  N   UNL     1       5.498   5.546  18.527  0.00  0.00    +0.000 NA
ATOM      9  H   UNL     1       4.548   5.312  15.404  0.00  0.00    +0.000 HD
ATOM     10  H   UNL     1       4.918   5.517  20.469  0.00  0.00    +0.000 HD
ENDROOT
BRANCH   6  11
ATOM     11  C   UNL     1       2.105   4.913  19.807  0.00  0.00    +0.000 C 
ATOM     12  C   UNL     1       2.159   4.724  21.334  0.00  0.00    +0.000 C 
ATOM     13  C   UNL     1       1.574   3.300  21.534  0.00  0.00    +0.000 C 
ATOM     14  C   UNL     1       2.657   2.274  21.177  0.00  0.00    +0.000 C 
ATOM     15  C   UNL     1       2.797   2.457  19.661  0.00  0.00    +0.000 C 
ATOM     16  C   UNL     1       1.691   3.492  19.329  0.00  0.00    +0.000 C 
ATOM     17  C   UNL     1       0.618   3.145  20.351  0.00  0.00    +0.000 C 
ENDBRANCH   6  11
BRANCH   1  22
ATOM     18  C   UNL     1       6.302   3.494  12.273  0.00  0.00    +0.000 A 
ATOM     19  C   UNL     1       7.237   4.272  11.579  0.00  0.00    +0.000 A 
ATOM     20  C   UNL     1       7.962   5.254  12.255  0.00  0.00    +0.000 A 
ATOM     21  C   UNL     1       7.736   5.478  13.615  0.00  0.00    +0.000 A 
ATOM     22  C   UNL     1       6.777   4.733  14.312  0.00  0.00    +0.000 A 
ATOM     23  C   UNL     1       6.072   3.726  13.641  0.00  0.00    +0.000 A 
BRANCH  18  25
ATOM     24  N   UNL     1       6.070   1.203  11.450  0.00  0.00    +0.000 N 
ATOM     25  C   UNL     1       5.504   2.441  11.597  0.00  0.00    +0.000 C 
ATOM     26  O   UNL     1       4.364   2.663  11.204  0.00  0.00    +0.000 OA
ATOM     27  H   UNL     1       5.476   0.477  11.071  0.00  0.00    +0.000 HD
ATOM     28  H   UNL     1       6.898   0.915  11.951  0.00  0.00    +0.000 HD
ENDBRANCH  18  25
ENDBRANCH   1  22
TORSDOF 3
ENDMDL
MODEL 2
REMARK VINA RESULT:      -9.5      0.951      1.560
REMARK  Name = 
REMARK  3 active torsions:
REMARK  status: ('A' for Active; 'I' for Inactive)
REMARK    1  A    between atoms: C_2  and  C_4
REMARK    2  A    between atoms: C_8  and  C_9
REMARK    3  A    between atoms: C_14  and  C_15
REMARK                            x       y       z     vdW  Elec       q    Type
REMARK                         _______ _______ _______ _____ _____    ______ ____
ROOT
ATOM      1  C   UNL     1       6.897   4.498  15.823  0.00  0.00    +0.000 C 
ATOM      2  O   UNL     1       7.955   4.651  16.415  0.00  0.00    +0.000 OA
ATOM      3  N   UNL     1       5.633   4.407  16.371  0.00  0.00    +0.000 N 
ATOM      4  C   UNL     1       5.343   4.309  17.717  0.00  0.00    +0.000 A 
ATOM      5  C   UNL     1       4.047   3.990  18.173  0.00  0.00    +0.000 A 
ATOM      6  C   UNL     1       4.199   3.638  19.501  0.00  0.00    +0.000 A 
ATOM      7  N   UNL     1       5.466   4.041  19.821  0.00  0.00    +0.000 N 
ATOM      8  N   UNL     1       6.188   4.402  18.743  0.00  0.00    +0.000 NA
ATOM      9  H   UNL     1       4.837   4.309  15.763  0.00  0.00    +0.000 HD
ATOM     10  H   UNL     1       5.940   4.011  20.716  0.00  0.00    +0.000 HD
ENDROOT
BRANCH   6  11
ATOM     11  C   UNL     1       3.262   2.830  20.329  0.00  0.00    +0.000 C 
ATOM     12  C   UNL     1       2.032   2.152  19.699  0.00  0.00    +0.000 C 
ATOM     13  C   UNL     1       0.868   2.602  20.624  0.00  0.00    +0.000 C 
ATOM     14  C   UNL     1       0.494   4.046  20.267  0.00  0.00    +0.000 C 
ATOM     15  C   UNL     1       1.724   4.832  20.736  0.00  0.00    +0.000 C 
ATOM     16  C   UNL     1       2.603   3.742  21.403  0.00  0.00    +0.000 C 
ATOM     17  C   UNL     1       1.554   2.800  21.976  0.00  0.00    +0.000 C 
ENDBRANCH   6  11
BRANCH   1  22
ATOM     18  C   UNL     1       6.277   3.456  12.191  0.00  0.00    +0.000 A 
ATOM     19  C   UNL     1       7.083   4.385  11.522  0.00  0.00    +0.000 A 
ATOM     20  C   UNL     1       7.839   5.302  12.251  0.00  0.00    +0.000 A 
ATOM     21  C   UNL     1       7.772   5.311  13.647  0.00  0.00    +0.000 A 
ATOM     22  C   UNL     1       6.940   4.413  14.327  0.00  0.00    +0.000 A 
ATOM     23  C   UNL     1       6.206   3.470  13.595  0.00  0.00    +0.000 A 
BRANCH  18  25
ATOM     24  N   UNL     1       5.988   1.222  11.238  0.00  0.00    +0.000 N 
ATOM     25  C   UNL     1       5.453   2.463  11.458  0.00  0.00    +0.000 C 
ATOM     26  O   UNL     1       4.317   2.735  11.083  0.00  0.00    +0.000 OA
ATOM     27  H   UNL     1       5.376   0.534  10.819  0.00  0.00    +0.000 HD
ATOM     28  H   UNL     1       6.809   0.886  11.719  0.00  0.00    +0.000 HD
ENDBRANCH  18  25
ENDBRANCH   1  22
TORSDOF 3
ENDMDL
MODEL 3
REMARK VINA RESULT:      -8.3      5.997      8.541
REMARK  Name = 
REMARK  3 active torsions:
REMARK  status: ('A' for Active; 'I' for Inactive)
REMARK    1  A    between atoms: C_2  and  C_4
REMARK    2  A    between atoms: C_8  and  C_9
REMARK    3  A    between atoms: C_14  and  C_15
REMARK                            x       y       z     vdW  Elec       q    Type
REMARK                         _______ _______ _______ _____ _____    ______ ____
ROOT
ATOM      1  C   UNL     1       8.663   9.918  18.320  0.00  0.00    +0.000 C 
ATOM      2  O   UNL     1       8.171  10.457  17.340  0.00  0.00    +0.000 OA
ATOM      3  N   UNL     1       8.633   8.577  18.645  0.00  0.00    +0.000 N 
ATOM      4  C   UNL     1       7.894   7.607  17.997  0.00  0.00    +0.000 A 
ATOM      5  C   UNL     1       7.743   6.311  18.533  0.00  0.00    +0.000 A 
ATOM      6  C   UNL     1       6.695   5.743  17.835  0.00  0.00    +0.000 A 
ATOM      7  N   UNL     1       6.494   6.581  16.773  0.00  0.00    +0.000 N 
ATOM      8  N   UNL     1       7.176   7.737  16.883  0.00  0.00    +0.000 NA
ATOM      9  H   UNL     1       9.105   8.259  19.474  0.00  0.00    +0.000 HD
ATOM     10  H   UNL     1       5.850   6.485  15.996  0.00  0.00    +0.000 HD
ENDROOT
BRANCH   6  11
ATOM     11  C   UNL     1       5.856   4.588  18.257  0.00  0.00    +0.000 C 
ATOM     12  C   UNL     1       4.946   3.859  17.251  0.00  0.00    +0.000 C 
ATOM     13  C   UNL     1       3.572   3.830  17.973  0.00  0.00    +0.000 C 
ATOM     14  C   UNL     1       2.926   5.215  17.846  0.00  0.00    +0.000 C 
ATOM     15  C   UNL     1       3.836   6.086  18.720  0.00  0.00    +0.000 C 
ATOM     16  C   UNL     1       4.828   5.058  19.325  0.00  0.00    +0.000 C 
ATOM     17  C   UNL     1       3.955   3.817  19.453  0.00  0.00    +0.000 C 
ENDBRANCH   6  11
BRANCH   1  22
ATOM     18  C   UNL     1       9.605  12.019  21.380  0.00  0.00    +0.000 A 
ATOM     19  C   UNL     1      10.919  12.370  21.049  0.00  0.00    +0.000 A 
ATOM     20  C   UNL     1      11.463  11.958  19.832  0.00  0.00    +0.000 A 
ATOM     21  C   UNL     1      10.707  11.174  18.958  0.00  0.00    +0.000 A 
ATOM     22  C   UNL     1       9.405  10.783  19.294  0.00  0.00    +0.000 A 
ATOM     23  C   UNL     1       8.848  11.224  20.501  0.00  0.00    +0.000 A 
BRANCH  18  25
ATOM     24  N   UNL     1       8.556  11.447  23.514  0.00  0.00    +0.000 N 
ATOM     25  C   UNL     1       8.985  12.431  22.663  0.00  0.00    +0.000 C 
ATOM     26  O   UNL     1       8.880  13.615  22.967  0.00  0.00    +0.000 OA
ATOM     27  H   UNL     1       8.222  11.747  24.421  0.00  0.00    +0.000 HD
ATOM     28  H   UNL     1       8.825  10.479  23.412  0.00  0.00    +0.000 HD
ENDBRANCH  18  25
ENDBRANCH   1  22
TORSDOF 3
ENDMDL
MODEL 4
REMARK VINA RESULT:      -8.2      5.850      8.517
REMARK  Name = 
REMARK  3 active torsions:
REMARK  status: ('A' for Active; 'I' for Inactive)
REMARK    1  A    between atoms: C_2  and  C_4
REMARK    2  A    between atoms: C_8  and  C_9
REMARK    3  A    between atoms: C_14  and  C_15
REMARK                            x       y       z     vdW  Elec       q    Type
REMARK                         _______ _______ _______ _____ _____    ______ ____
ROOT
ATOM      1  C   UNL     1       1.098   9.521  18.460  0.00  0.00    +0.000 C 
ATOM      2  O   UNL     1       1.781   9.746  17.472  0.00  0.00    +0.000 OA
ATOM      3  N   UNL     1       1.298   8.544  19.414  0.00  0.00    +0.000 N 
ATOM      4  C   UNL     1       2.227   7.525  19.343  0.00  0.00    +0.000 A 
ATOM      5  C   UNL     1       2.209   6.443  20.247  0.00  0.00    +0.000 A 
ATOM      6  C   UNL     1       3.019   5.476  19.683  0.00  0.00    +0.000 A 
ATOM      7  N   UNL     1       3.679   6.126  18.677  0.00  0.00    +0.000 N 
ATOM      8  N   UNL     1       3.176   7.350  18.425  0.00  0.00    +0.000 NA
ATOM      9  H   UNL     1       0.671   8.485  20.199  0.00  0.00    +0.000 HD
ATOM     10  H   UNL     1       4.404   5.778  18.059  0.00  0.00    +0.000 HD
ENDROOT
BRANCH   6  11
ATOM     11  C   UNL     1       3.021   4.018  19.983  0.00  0.00    +0.000 C 
ATOM     12  C   UNL     1       4.070   3.082  19.356  0.00  0.00    +0.000 C 
ATOM     13  C   UNL     1       3.208   1.935  18.762  0.00  0.00    +0.000 C 
ATOM     14  C   UNL     1       2.582   2.425  17.450  0.00  0.00    +0.000 C 
ATOM     15  C   UNL     1       1.585   3.485  17.936  0.00  0.00    +0.000 C 
ATOM     16  C   UNL     1       1.693   3.385  19.480  0.00  0.00    +0.000 C 
ATOM     17  C   UNL     1       1.986   1.904  19.679  0.00  0.00    +0.000 C 
ENDBRANCH   6  11
BRANCH   1  22
ATOM     18  C   UNL     1      -2.262  11.322  18.099  0.00  0.00    +0.000 A 
ATOM     19  C   UNL     1      -2.283  12.056  19.291  0.00  0.00    +0.000 A 
ATOM     20  C   UNL     1      -1.202  11.987  20.169  0.00  0.00    +0.000 A 
ATOM     21  C   UNL     1      -0.110  11.168  19.871  0.00  0.00    +0.000 A 
ATOM     22  C   UNL     1      -0.093  10.399  18.700  0.00  0.00    +0.000 A 
ATOM     23  C   UNL     1      -1.165  10.493  17.804  0.00  0.00    +0.000 A 
BRANCH  18  25
ATOM     24  N   UNL     1      -3.095  11.333  15.800  0.00  0.00    +0.000 N 
ATOM     25  C   UNL     1      -3.391  11.360  17.136  0.00  0.00    +0.000 C 
ATOM     26  O   UNL     1      -4.554  11.388  17.522  0.00  0.00    +0.000 OA
ATOM     27  H   UNL     1      -3.879  11.267  15.164  0.00  0.00    +0.000 HD
ATOM     28  H   UNL     1      -2.183  11.083  15.444  0.00  0.00    +0.000 HD
ENDBRANCH  18  25
ENDBRANCH   1  22
TORSDOF 3
ENDMDL
MODEL 5
REMARK VINA RESULT:      -8.0      5.647      8.039
REMARK  Name = 
REMARK  3 active torsions:
REMARK  status: ('A' for Active; 'I' for Inactive)
REMARK    1  A    between atoms: C_2  and  C_4
REMARK    2  A    between atoms: C_8  and  C_9
REMARK    3  A    between atoms: C_14  and  C_15
REMARK                            x       y       z     vdW  Elec       q    Type
REMARK                         _______ _______ _______ _____ _____    ______ ____
ROOT
ATOM      1  C   UNL     1       3.252   6.930  18.131  0.00  0.00    +0.000 C 
ATOM      2  O   UNL     1       3.952   7.298  17.199  0.00  0.00    +0.000 OA
ATOM      3  N   UNL     1       2.193   7.605  18.704  0.00  0.00    +0.000 N 
ATOM      4  C   UNL     1       1.826   8.908  18.434  0.00  0.00    +0.000 A 
ATOM      5  C   UNL     1       0.881   9.590  19.228  0.00  0.00    +0.000 A 
ATOM      6  C   UNL     1       1.020  10.926  18.902  0.00  0.00    +0.000 A 
ATOM      7  N   UNL     1       1.788  10.925  17.770  0.00  0.00    +0.000 N 
ATOM      8  N   UNL     1       2.326   9.720  17.503  0.00  0.00    +0.000 NA
ATOM      9  H   UNL     1       1.680   7.172  19.454  0.00  0.00    +0.000 HD
ATOM     10  H   UNL     1       2.070  11.706  17.189  0.00  0.00    +0.000 HD
ENDROOT
BRANCH   6  11
ATOM     11  C   UNL     1       0.590  12.098  19.712  0.00  0.00    +0.000 C 
ATOM     12  C   UNL     1      -0.266  11.914  20.979  0.00  0.00    +0.000 C 
ATOM     13  C   UNL     1      -1.438  12.908  20.760  0.00  0.00    +0.000 C 
ATOM     14  C   UNL     1      -2.428  12.284  19.769  0.00  0.00    +0.000 C 
ATOM     15  C   UNL     1      -1.630  12.288  18.459  0.00  0.00    +0.000 C 
ATOM     16  C   UNL     1      -0.319  13.018  18.849  0.00  0.00    +0.000 C 
ATOM     17  C   UNL     1      -0.811  14.005  19.900  0.00  0.00    +0.000 C 
ENDBRANCH   6  11
BRANCH   1  22
ATOM     18  C   UNL     1       3.021   3.707  20.186  0.00  0.00    +0.000 A 
ATOM     19  C   UNL     1       4.178   3.049  19.752  0.00  0.00    +0.000 A 
ATOM     20  C   UNL     1       5.030   3.669  18.838  0.00  0.00    +0.000 A 
ATOM     21  C   UNL     1       4.714   4.935  18.336  0.00  0.00    +0.000 A 
ATOM     22  C   UNL     1       3.540   5.587  18.732  0.00  0.00    +0.000 A 
ATOM     23  C   UNL     1       2.702   4.977  19.675  0.00  0.00    +0.000 A 
BRANCH  18  25
ATOM     24  N   UNL     1       0.759   3.024  20.815  0.00  0.00    +0.000 N 
ATOM     25  C   UNL     1       2.084   3.086  21.154  0.00  0.00    +0.000 C 
ATOM     26  O   UNL     1       2.484   2.619  22.215  0.00  0.00    +0.000 OA
ATOM     27  H   UNL     1       0.153   2.515  21.447  0.00  0.00    +0.000 HD
ATOM     28  H   UNL     1       0.425   3.183  19.875  0.00  0.00    +0.000 HD
ENDBRANCH  18  25
ENDBRANCH   1  22
TORSDOF 3
ENDMDL
MODEL 6
REMARK VINA RESULT:      -8.0      5.632      8.388
REMARK  Name = 
REMARK  3 active torsions:
REMARK  status: ('A' for Active; 'I' for Inactive)
REMARK    1  A    between atoms: C_2  and  C_4
REMARK    2  A    between atoms: C_8  and  C_9
REMARK    3  A    between atoms: C_14  and  C_15
REMARK                            x       y       z     vdW  Elec       q    Type
REMARK                         _______ _______ _______ _____ _____    ______ ____
ROOT
ATOM      1  C   UNL     1       1.600   9.651  18.239  0.00  0.00    +0.000 C 
ATOM      2  O   UNL     1       2.414  10.187  17.502  0.00  0.00    +0.000 OA
ATOM      3  N   UNL     1       1.655   8.375  18.764  0.00  0.00    +0.000 N 
ATOM      4  C   UNL     1       2.570   7.400  18.421  0.00  0.00    +0.000 A 
ATOM      5  C   UNL     1       2.414   6.061  18.834  0.00  0.00    +0.000 A 
ATOM      6  C   UNL     1       3.279   5.328  18.045  0.00  0.00    +0.000 A 
ATOM      7  N   UNL     1       4.079   6.264  17.450  0.00  0.00    +0.000 N 
ATOM      8  N   UNL     1       3.633   7.523  17.627  0.00  0.00    +0.000 NA
ATOM      9  H   UNL     1       0.927   8.065  19.385  0.00  0.00    +0.000 HD
ATOM     10  H   UNL     1       4.877   6.129  16.839  0.00  0.00    +0.000 HD
ENDROOT
BRANCH   6  11
ATOM     11  C   UNL     1       3.220   3.867  17.763  0.00  0.00    +0.000 C 
ATOM     12  C   UNL     1       1.872   3.124  17.714  0.00  0.00    +0.000 C 
ATOM     13  C   UNL     1       2.103   1.912  18.656  0.00  0.00    +0.000 C 
ATOM     14  C   UNL     1       2.001   2.397  20.108  0.00  0.00    +0.000 C 
ATOM     15  C   UNL     1       3.248   3.277  20.251  0.00  0.00    +0.000 C 
ATOM     16  C   UNL     1       3.965   3.093  18.888  0.00  0.00    +0.000 C 
ATOM     17  C   UNL     1       3.605   1.656  18.535  0.00  0.00    +0.000 C 
ENDBRANCH   6  11
BRANCH   1  22
ATOM     18  C   UNL     1      -1.945  11.076  18.492  0.00  0.00    +0.000 A 
ATOM     19  C   UNL     1      -1.777  11.981  19.547  0.00  0.00    +0.000 A 
ATOM     20  C   UNL     1      -0.521  12.143  20.131  0.00  0.00    +0.000 A 
ATOM     21  C   UNL     1       0.563  11.385  19.680  0.00  0.00    +0.000 A 
ATOM     22  C   UNL     1       0.400  10.449  18.651  0.00  0.00    +0.000 A 
ATOM     23  C   UNL     1      -0.855  10.310  18.044  0.00  0.00    +0.000 A 
BRANCH  18  25
ATOM     24  N   UNL     1      -3.929  11.967  17.375  0.00  0.00    +0.000 N 
ATOM     25  C   UNL     1      -3.262  10.867  17.842  0.00  0.00    +0.000 C 
ATOM     26  O   UNL     1      -3.730   9.742  17.703  0.00  0.00    +0.000 OA
ATOM     27  H   UNL     1      -4.780  11.794  16.854  0.00  0.00    +0.000 HD
ATOM     28  H   UNL     1      -3.489  12.869  17.262  0.00  0.00    +0.000 HD
ENDBRANCH  18  25
ENDBRANCH   1  22
TORSDOF 3
ENDMDL
MODEL 7
REMARK VINA RESULT:      -8.0      5.692      7.791
REMARK  Name = 
REMARK  3 active torsions:
REMARK  status: ('A' for Active; 'I' for Inactive)
REMARK    1  A    between atoms: C_2  and  C_4
REMARK    2  A    between atoms: C_8  and  C_9
REMARK    3  A    between atoms: C_14  and  C_15
REMARK                            x       y       z     vdW  Elec       q    Type
REMARK                         _______ _______ _______ _____ _____    ______ ____
ROOT
ATOM      1  C   UNL     1       8.318   9.361  17.850  0.00  0.00    +0.000 C 
ATOM      2  O   UNL     1       7.786   9.830  16.855  0.00  0.00    +0.000 OA
ATOM      3  N   UNL     1       8.229   8.065  18.318  0.00  0.00    +0.000 N 
ATOM      4  C   UNL     1       7.383   7.088  17.832  0.00  0.00    +0.000 A 
ATOM      5  C   UNL     1       7.193   5.868  18.512  0.00  0.00    +0.000 A 
ATOM      6  C   UNL     1       6.061   5.306  17.955  0.00  0.00    +0.000 A 
ATOM      7  N   UNL     1       5.831   6.043  16.826  0.00  0.00    +0.000 N 
ATOM      8  N   UNL     1       6.590   7.154  16.763  0.00  0.00    +0.000 NA
ATOM      9  H   UNL     1       8.743   7.801  19.141  0.00  0.00    +0.000 HD
ATOM     10  H   UNL     1       5.124   5.915  16.111  0.00  0.00    +0.000 HD
ENDROOT
BRANCH   6  11
ATOM     11  C   UNL     1       5.186   4.262  18.557  0.00  0.00    +0.000 C 
ATOM     12  C   UNL     1       4.164   3.494  17.699  0.00  0.00    +0.000 C 
ATOM     13  C   UNL     1       2.847   3.635  18.509  0.00  0.00    +0.000 C 
ATOM     14  C   UNL     1       2.277   5.040  18.272  0.00  0.00    +0.000 C 
ATOM     15  C   UNL     1       3.300   5.935  18.983  0.00  0.00    +0.000 C 
ATOM     16  C   UNL     1       4.269   4.913  19.632  0.00  0.00    +0.000 C 
ATOM     17  C   UNL     1       3.335   3.754  19.953  0.00  0.00    +0.000 C 
ENDBRANCH   6  11
BRANCH   1  22
ATOM     18  C   UNL     1      10.895  11.977  18.934  0.00  0.00    +0.000 A 
ATOM     19  C   UNL     1      10.723  11.939  20.323  0.00  0.00    +0.000 A 
ATOM     20  C   UNL     1       9.810  11.047  20.886  0.00  0.00    +0.000 A 
ATOM     21  C   UNL     1       9.051  10.211  20.064  0.00  0.00    +0.000 A 
ATOM     22  C   UNL     1       9.185  10.266  18.671  0.00  0.00    +0.000 A 
ATOM     23  C   UNL     1      10.125  11.140  18.108  0.00  0.00    +0.000 A 
BRANCH  18  25
ATOM     24  N   UNL     1      12.332  12.582  17.051  0.00  0.00    +0.000 N 
ATOM     25  C   UNL     1      11.850  12.911  18.289  0.00  0.00    +0.000 C 
ATOM     26  O   UNL     1      12.180  13.959  18.835  0.00  0.00    +0.000 OA
ATOM     27  H   UNL     1      12.908  13.275  16.591  0.00  0.00    +0.000 HD
ATOM     28  H   UNL     1      11.921  11.861  16.476  0.00  0.00    +0.000 HD
ENDBRANCH  18  25
ENDBRANCH   1  22
TORSDOF 3
ENDMDL
MODEL 8
REMARK VINA RESULT:      -8.0      5.388      7.148
REMARK  Name = 
REMARK  3 active torsions:
REMARK  status: ('A' for Active; 'I' for Inactive)
REMARK    1  A    between atoms: C_2  and  C_4
REMARK    2  A    between atoms: C_8  and  C_9
REMARK    3  A    between atoms: C_14  and  C_15
REMARK                            x       y       z     vdW  Elec       q    Type
REMARK                         _______ _______ _______ _____ _____    ______ ____
ROOT
ATOM      1  C   UNL     1       2.521   6.959  18.977  0.00  0.00    +0.000 C 
ATOM      2  O   UNL     1       2.242   6.640  20.123  0.00  0.00    +0.000 OA
ATOM      3  N   UNL     1       2.175   8.124  18.322  0.00  0.00    +0.000 N 
ATOM      4  C   UNL     1       1.304   9.086  18.791  0.00  0.00    +0.000 A 
ATOM      5  C   UNL     1       0.832  10.126  17.964  0.00  0.00    +0.000 A 
ATOM      6  C   UNL     1      -0.250  10.667  18.630  0.00  0.00    +0.000 A 
ATOM      7  N   UNL     1      -0.175  10.143  19.891  0.00  0.00    +0.000 N 
ATOM      8  N   UNL     1       0.727   9.148  19.991  0.00  0.00    +0.000 NA
ATOM      9  H   UNL     1       2.496   8.274  17.380  0.00  0.00    +0.000 HD
ATOM     10  H   UNL     1      -0.756  10.335  20.699  0.00  0.00    +0.000 HD
ENDROOT
BRANCH   6  11
ATOM     11  C   UNL     1      -1.351  11.480  18.044  0.00  0.00    +0.000 C 
ATOM     12  C   UNL     1      -2.588  11.858  18.879  0.00  0.00    +0.000 C 
ATOM     13  C   UNL     1      -3.772  11.434  17.968  0.00  0.00    +0.000 C 
ATOM     14  C   UNL     1      -3.937   9.912  18.060  0.00  0.00    +0.000 C 
ATOM     15  C   UNL     1      -2.671   9.400  17.362  0.00  0.00    +0.000 C 
ATOM     16  C   UNL     1      -1.996  10.703  16.861  0.00  0.00    +0.000 C 
ATOM     17  C   UNL     1      -3.199  11.584  16.558  0.00  0.00    +0.000 C 
ENDBRANCH   6  11
BRANCH   1  22
ATOM     18  C   UNL     1       5.376   5.344  17.003  0.00  0.00    +0.000 A 
ATOM     19  C   UNL     1       4.797   4.109  16.687  0.00  0.00    +0.000 A 
ATOM     20  C   UNL     1       3.487   3.835  17.081  0.00  0.00    +0.000 A 
ATOM     21  C   UNL     1       2.764   4.781  17.812  0.00  0.00    +0.000 A 
ATOM     22  C   UNL     1       3.345   6.005  18.168  0.00  0.00    +0.000 A 
ATOM     23  C   UNL     1       4.650   6.292  17.744  0.00  0.00    +0.000 A 
BRANCH  18  25
ATOM     24  N   UNL     1       7.162   6.987  16.700  0.00  0.00    +0.000 N 
ATOM     25  C   UNL     1       6.767   5.679  16.608  0.00  0.00    +0.000 C 
ATOM     26  O   UNL     1       7.548   4.811  16.236  0.00  0.00    +0.000 OA
ATOM     27  H   UNL     1       8.138   7.179  16.515  0.00  0.00    +0.000 HD
ATOM     28  H   UNL     1       6.638   7.684  17.209  0.00  0.00    +0.000 HD
ENDBRANCH  18  25
ENDBRANCH   1  22
TORSDOF 3
ENDMDL
MODEL 9
REMARK VINA RESULT:      -8.0      5.488      9.041
REMARK  Name = 
REMARK  3 active torsions:
REMARK  status: ('A' for Active; 'I' for Inactive)
REMARK    1  A    between atoms: C_2  and  C_4
REMARK    2  A    between atoms: C_8  and  C_9
REMARK    3  A    between atoms: C_14  and  C_15
REMARK                            x       y       z     vdW  Elec       q    Type
REMARK                         _______ _______ _______ _____ _____    ______ ____
ROOT
ATOM      1  C   UNL     1       1.543   9.725  18.662  0.00  0.00    +0.000 C 
ATOM      2  O   UNL     1       2.197  10.271  17.785  0.00  0.00    +0.000 OA
ATOM      3  N   UNL     1       1.698   8.443  19.149  0.00  0.00    +0.000 N 
ATOM      4  C   UNL     1       2.525   7.473  18.619  0.00  0.00    +0.000 A 
ATOM      5  C   UNL     1       2.451   6.128  19.037  0.00  0.00    +0.000 A 
ATOM      6  C   UNL     1       3.142   5.406  18.083  0.00  0.00    +0.000 A 
ATOM      7  N   UNL     1       3.811   6.350  17.354  0.00  0.00    +0.000 N 
ATOM      8  N   UNL     1       3.410   7.606  17.632  0.00  0.00    +0.000 NA
ATOM      9  H   UNL     1       1.106   8.124  19.898  0.00  0.00    +0.000 HD
ATOM     10  H   UNL     1       4.471   6.223  16.596  0.00  0.00    +0.000 HD
ENDROOT
BRANCH   6  11
ATOM     11  C   UNL     1       3.025   3.949  17.800  0.00  0.00    +0.000 C 
ATOM     12  C   UNL     1       1.665   3.232  17.886  0.00  0.00    +0.000 C 
ATOM     13  C   UNL     1       1.967   2.008  18.791  0.00  0.00    +0.000 C 
ATOM     14  C   UNL     1       2.025   2.482  20.249  0.00  0.00    +0.000 C 
ATOM     15  C   UNL     1       3.298   3.337  20.267  0.00  0.00    +0.000 C 
ATOM     16  C   UNL     1       3.866   3.151  18.836  0.00  0.00    +0.000 C 
ATOM     17  C   UNL     1       3.444   1.724  18.514  0.00  0.00    +0.000 C 
ENDBRANCH   6  11
BRANCH   1  22
ATOM     18  C   UNL     1      -0.844  11.247  21.239  0.00  0.00    +0.000 A 
ATOM     19  C   UNL     1      -1.606  12.082  20.414  0.00  0.00    +0.000 A 
ATOM     20  C   UNL     1      -1.364  12.111  19.041  0.00  0.00    +0.000 A 
ATOM     21  C   UNL     1      -0.345  11.327  18.494  0.00  0.00    +0.000 A 
ATOM     22  C   UNL     1       0.451  10.517  19.313  0.00  0.00    +0.000 A 
ATOM     23  C   UNL     1       0.185  10.464  20.688  0.00  0.00    +0.000 A 
BRANCH  18  25
ATOM     24  N   UNL     1      -2.127  11.870  23.225  0.00  0.00    +0.000 N 
ATOM     25  C   UNL     1      -1.062  11.185  22.706  0.00  0.00    +0.000 C 
ATOM     26  O   UNL     1      -0.328  10.521  23.429  0.00  0.00    +0.000 OA
ATOM     27  H   UNL     1      -2.311  11.740  24.212  0.00  0.00    +0.000 HD
ATOM     28  H   UNL     1      -2.876  12.234  22.655  0.00  0.00    +0.000 HD
ENDBRANCH  18  25
ENDBRANCH   1  22
TORSDOF 3
ENDMDL
