MODEL 1
REMARK VINA RESULT:      -9.0      0.000      0.000
REMARK  Name = 
REMARK  8 active torsions:
REMARK  status: ('A' for Active; 'I' for Inactive)
REMARK    1  A    between atoms: C_1  and  C_2
REMARK    2  A    between atoms: C_4  and  C_5
REMARK    3  A    between atoms: N_6  and  C_7
REMARK    4  A    between atoms: C_10  and  C_11
REMARK    5  A    between atoms: C_11  and  C_12
REMARK    6  A    between atoms: C_11  and  N_13
REMARK    7  A    between atoms: C_14  and  C_16
REMARK    8  A    between atoms: C_18  and  C_19
REMARK                            x       y       z     vdW  Elec       q    Type
REMARK                         _______ _______ _______ _____ _____    ______ ____
ROOT
ATOM      1  C   UNL     1       2.922   5.742  19.628  0.00  0.00    +0.000 C 
ATOM      2  C   UNL     1       1.897   4.607  19.718  0.00  0.00    +0.000 C 
ENDROOT
BRANCH   1   6
ATOM      3  C   UNL     1       1.107   9.655  19.039  0.00  0.00    +0.000 A 
ATOM      4  C   UNL     1       1.742   8.986  17.987  0.00  0.00    +0.000 A 
ATOM      5  C   UNL     1       2.317   7.725  18.188  0.00  0.00    +0.000 A 
ATOM      6  C   UNL     1       2.283   7.111  19.449  0.00  0.00    +0.000 A 
ATOM      7  C   UNL     1       1.639   7.788  20.495  0.00  0.00    +0.000 A 
ATOM      8  C   UNL     1       1.080   9.056  20.303  0.00  0.00    +0.000 A 
BRANCH   3  14
ATOM      9  C   UNL     1       0.932  14.475  18.869  0.00  0.00    +0.000 C 
ATOM     10  C   UNL     1       0.445  13.077  18.775  0.00  0.00    +0.000 A 
ATOM     11  C   UNL     1      -0.810  12.633  18.323  0.00  0.00    +0.000 A 
ATOM     12  C   UNL     1      -0.777  11.258  18.434  0.00  0.00    +0.000 A 
ATOM     13  C   UNL     1      -1.891  10.295  18.247  0.00  0.00    +0.000 C 
ATOM     14  N   UNL     1       0.503  10.935  18.867  0.00  0.00    +0.000 N 
ATOM     15  N   UNL     1       1.211  12.059  19.173  0.00  0.00    +0.000 NA
ENDBRANCH   3  14
ENDBRANCH   1   6
BRANCH   1  16
ATOM     16  N   UNL     1       3.851   5.500  18.540  0.00  0.00    +0.000 N 
ATOM     17  C   UNL     1       5.192   5.264  18.727  0.00  0.00    +0.000 C 
ATOM     18  O   UNL     1       5.732   5.313  19.829  0.00  0.00    +0.000 OA
ATOM     19  H   UNL     1       3.451   5.397  17.618  0.00  0.00    +0.000 HD
BRANCH  17  20
ATOM     20  C   UNL     1       5.920   4.955  17.528  0.00  0.00    +0.000 A 
ATOM     21  C   UNL     1       5.553   4.907  16.196  0.00  0.00    +0.000 A 
ATOM     22  C   UNL     1       6.717   4.538  15.489  0.00  0.00    +0.000 A 
ATOM     23  N   UNL     1       7.759   4.360  16.308  0.00  0.00    +0.000 NA
ATOM     24  N   UNL     1       7.253   4.620  17.529  0.00  0.00    +0.000 N 
ATOM     25  H   UNL     1       7.867   4.558  18.338  0.00  0.00    +0.000 HD
BRANCH  22  26
ATOM     26  C   UNL     1       6.772   4.377  14.041  0.00  0.00    +0.000 A 
ATOM     27  C   UNL     1       7.652   5.056  13.163  0.00  0.00    +0.000 A 
ATOM     28  C   UNL     1       7.349   4.609  11.896  0.00  0.00    +0.000 A 
ATOM     29  O   UNL     1       6.343   3.697  11.940  0.00  0.00    +0.000 OA
ATOM     30  C   UNL     1       5.997   3.559  13.247  0.00  0.00    +0.000 A 
ENDBRANCH  22  26
ENDBRANCH  17  20
ENDBRANCH   1  16
TORSDOF 5
ENDMDL
MODEL 2
REMARK VINA RESULT:      -8.9      0.552      1.218
REMARK  Name = 
REMARK  8 active torsions:
REMARK  status: ('A' for Active; 'I' for Inactive)
REMARK    1  A    between atoms: C_1  and  C_2
REMARK    2  A    between atoms: C_4  and  C_5
REMARK    3  A    between atoms: N_6  and  C_7
REMARK    4  A    between atoms: C_10  and  C_11
REMARK    5  A    between atoms: C_11  and  C_12
REMARK    6  A    between atoms: C_11  and  N_13
REMARK    7  A    between atoms: C_14  and  C_16
REMARK    8  A    between atoms: C_18  and  C_19
REMARK                            x       y       z     vdW  Elec       q    Type
REMARK                         _______ _______ _______ _____ _____    ______ ____
ROOT
ATOM      1  C   UNL     1       2.991   5.892  19.735  0.00  0.00    +0.000 C 
ATOM      2  C   UNL     1       2.019   4.711  19.798  0.00  0.00    +0.000 C 
ENDROOT
BRANCH   1   6
ATOM      3  C   UNL     1       0.989   9.714  19.153  0.00  0.00    +0.000 A 
ATOM      4  C   UNL     1       0.983   9.076  20.398  0.00  0.00    +0.000 A 
ATOM      5  C   UNL     1       1.636   7.850  20.574  0.00  0.00    +0.000 A 
ATOM      6  C   UNL     1       2.296   7.226  19.505  0.00  0.00    +0.000 A 
ATOM      7  C   UNL     1       2.300   7.877  18.262  0.00  0.00    +0.000 A 
ATOM      8  C   UNL     1       1.633   9.093  18.078  0.00  0.00    +0.000 A 
BRANCH   3  14
ATOM      9  C   UNL     1       0.594  14.522  19.039  0.00  0.00    +0.000 C 
ATOM     10  C   UNL     1       0.187  13.105  18.877  0.00  0.00    +0.000 A 
ATOM     11  C   UNL     1      -0.993  12.611  18.297  0.00  0.00    +0.000 A 
ATOM     12  C   UNL     1      -0.904  11.237  18.390  0.00  0.00    +0.000 A 
ATOM     13  C   UNL     1      -1.945  10.227  18.081  0.00  0.00    +0.000 C 
ATOM     14  N   UNL     1       0.343  10.967  18.942  0.00  0.00    +0.000 N 
ATOM     15  N   UNL     1       0.961  12.117  19.333  0.00  0.00    +0.000 NA
ENDBRANCH   3  14
ENDBRANCH   1   6
BRANCH   1  16
ATOM     16  N   UNL     1       3.979   5.681  18.694  0.00  0.00    +0.000 N 
ATOM     17  C   UNL     1       4.859   4.625  18.690  0.00  0.00    +0.000 C 
ATOM     18  O   UNL     1       4.934   3.811  19.607  0.00  0.00    +0.000 OA
ATOM     19  H   UNL     1       3.928   6.289  17.891  0.00  0.00    +0.000 HD
BRANCH  17  20
ATOM     20  C   UNL     1       5.693   4.545  17.523  0.00  0.00    +0.000 A 
ATOM     21  C   UNL     1       5.410   4.473  16.172  0.00  0.00    +0.000 A 
ATOM     22  C   UNL     1       6.658   4.412  15.518  0.00  0.00    +0.000 A 
ATOM     23  N   UNL     1       7.675   4.440  16.387  0.00  0.00    +0.000 NA
ATOM     24  N   UNL     1       7.066   4.523  17.587  0.00  0.00    +0.000 N 
ATOM     25  H   UNL     1       7.640   4.568  18.425  0.00  0.00    +0.000 HD
BRANCH  22  26
ATOM     26  C   UNL     1       6.816   4.333  14.071  0.00  0.00    +0.000 A 
ATOM     27  C   UNL     1       6.169   3.409  13.214  0.00  0.00    +0.000 A 
ATOM     28  C   UNL     1       6.617   3.688  11.942  0.00  0.00    +0.000 A 
ATOM     29  O   UNL     1       7.492   4.727  11.962  0.00  0.00    +0.000 OA
ATOM     30  C   UNL     1       7.608   5.116  13.258  0.00  0.00    +0.000 A 
ENDBRANCH  22  26
ENDBRANCH  17  20
ENDBRANCH   1  16
TORSDOF 5
ENDMDL
MODEL 3
REMARK VINA RESULT:      -8.7      0.908      1.102
REMARK  Name = 
REMARK  8 active torsions:
REMARK  status: ('A' for Active; 'I' for Inactive)
REMARK    1  A    between atoms: C_1  and  C_2
REMARK    2  A    between atoms: C_4  and  C_5
REMARK    3  A    between atoms: N_6  and  C_7
REMARK    4  A    between atoms: C_10  and  C_11
REMARK    5  A    between atoms: C_11  and  C_12
REMARK    6  A    between atoms: C_11  and  N_13
REMARK    7  A    between atoms: C_14  and  C_16
REMARK    8  A    between atoms: C_18  and  C_19
REMARK                            x       y       z     vdW  Elec       q    Type
REMARK                         _______ _______ _______ _____ _____    ______ ____
ROOT
ATOM      1  C   UNL     1       2.998   5.783  19.707  0.00  0.00    +0.000 C 
ATOM      2  C   UNL     1       2.078   4.559  19.724  0.00  0.00    +0.000 C 
ENDROOT
BRANCH   1   6
ATOM      3  C   UNL     1       0.839   9.563  19.677  0.00  0.00    +0.000 A 
ATOM      4  C   UNL     1       1.543   9.122  18.551  0.00  0.00    +0.000 A 
ATOM      5  C   UNL     1       2.229   7.902  18.572  0.00  0.00    +0.000 A 
ATOM      6  C   UNL     1       2.239   7.101  19.723  0.00  0.00    +0.000 A 
ATOM      7  C   UNL     1       1.525   7.550  20.845  0.00  0.00    +0.000 A 
ATOM      8  C   UNL     1       0.854   8.777  20.834  0.00  0.00    +0.000 A 
BRANCH   3  14
ATOM      9  C   UNL     1      -0.074  14.137  20.916  0.00  0.00    +0.000 C 
ATOM     10  C   UNL     1      -0.260  12.834  20.231  0.00  0.00    +0.000 A 
ATOM     11  C   UNL     1      -1.196  12.515  19.232  0.00  0.00    +0.000 A 
ATOM     12  C   UNL     1      -0.973  11.188  18.927  0.00  0.00    +0.000 A 
ATOM     13  C   UNL     1      -1.781  10.297  18.058  0.00  0.00    +0.000 C 
ATOM     14  N   UNL     1       0.123  10.795  19.687  0.00  0.00    +0.000 N 
ATOM     15  N   UNL     1       0.487  11.778  20.558  0.00  0.00    +0.000 NA
ENDBRANCH   3  14
ENDBRANCH   1   6
BRANCH   1  16
ATOM     16  N   UNL     1       3.870   5.745  18.548  0.00  0.00    +0.000 N 
ATOM     17  C   UNL     1       5.227   5.543  18.628  0.00  0.00    +0.000 C 
ATOM     18  O   UNL     1       5.829   5.451  19.695  0.00  0.00    +0.000 OA
ATOM     19  H   UNL     1       3.422   5.764  17.644  0.00  0.00    +0.000 HD
BRANCH  17  20
ATOM     20  C   UNL     1       5.895   5.448  17.360  0.00  0.00    +0.000 A 
ATOM     21  C   UNL     1       5.587   4.787  16.186  0.00  0.00    +0.000 A 
ATOM     22  C   UNL     1       6.639   5.075  15.292  0.00  0.00    +0.000 A 
ATOM     23  N   UNL     1       7.561   5.866  15.851  0.00  0.00    +0.000 NA
ATOM     24  N   UNL     1       7.088   6.077  17.095  0.00  0.00    +0.000 N 
ATOM     25  H   UNL     1       7.621   6.669  17.728  0.00  0.00    +0.000 HD
BRANCH  22  26
ATOM     26  C   UNL     1       6.704   4.575  13.924  0.00  0.00    +0.000 A 
ATOM     27  C   UNL     1       5.849   3.601  13.354  0.00  0.00    +0.000 A 
ATOM     28  C   UNL     1       6.277   3.428  12.057  0.00  0.00    +0.000 A 
ATOM     29  O   UNL     1       7.337   4.236  11.792  0.00  0.00    +0.000 OA
ATOM     30  C   UNL     1       7.591   4.933  12.930  0.00  0.00    +0.000 A 
ENDBRANCH  22  26
ENDBRANCH  17  20
ENDBRANCH   1  16
TORSDOF 5
ENDMDL
MODEL 4
REMARK VINA RESULT:      -8.6      0.888      1.814
REMARK  Name = 
REMARK  8 active torsions:
REMARK  status: ('A' for Active; 'I' for Inactive)
REMARK    1  A    between atoms: C_1  and  C_2
REMARK    2  A    between atoms: C_4  and  C_5
REMARK    3  A    between atoms: N_6  and  C_7
REMARK    4  A    between atoms: C_10  and  C_11
REMARK    5  A    between atoms: C_11  and  C_12
REMARK    6  A    between atoms: C_11  and  N_13
REMARK    7  A    between atoms: C_14  and  C_16
REMARK    8  A    between atoms: C_18  and  C_19
REMARK                            x       y       z     vdW  Elec       q    Type
REMARK                         _______ _______ _______ _____ _____    ______ ____
ROOT
ATOM      1  C   UNL     1       3.013   5.673  19.646  0.00  0.00    +0.000 C 
ATOM      2  C   UNL     1       2.030   4.499  19.666  0.00  0.00    +0.000 C 
ENDROOT
BRANCH   1   6
ATOM      3  C   UNL     1       1.036   9.543  19.377  0.00  0.00    +0.000 A 
ATOM      4  C   UNL     1       1.053   8.820  20.575  0.00  0.00    +0.000 A 
ATOM      5  C   UNL     1       1.698   7.579  20.649  0.00  0.00    +0.000 A 
ATOM      6  C   UNL     1       2.326   7.025  19.525  0.00  0.00    +0.000 A 
ATOM      7  C   UNL     1       2.307   7.760  18.330  0.00  0.00    +0.000 A 
ATOM      8  C   UNL     1       1.648   8.992  18.246  0.00  0.00    +0.000 A 
BRANCH   3  14
ATOM      9  C   UNL     1      -2.561  12.734  19.791  0.00  0.00    +0.000 C 
ATOM     10  C   UNL     1      -1.204  12.225  19.476  0.00  0.00    +0.000 A 
ATOM     11  C   UNL     1      -0.077  12.967  19.084  0.00  0.00    +0.000 A 
ATOM     12  C   UNL     1       0.932  12.043  18.906  0.00  0.00    +0.000 A 
ATOM     13  C   UNL     1       2.286  12.259  18.339  0.00  0.00    +0.000 C 
ATOM     14  N   UNL     1       0.397  10.812  19.268  0.00  0.00    +0.000 N 
ATOM     15  N   UNL     1      -0.939  10.917  19.516  0.00  0.00    +0.000 NA
ENDBRANCH   3  14
ENDBRANCH   1   6
BRANCH   1  16
ATOM     16  N   UNL     1       3.963   5.519  18.560  0.00  0.00    +0.000 N 
ATOM     17  C   UNL     1       5.087   4.732  18.643  0.00  0.00    +0.000 C 
ATOM     18  O   UNL     1       5.422   4.151  19.672  0.00  0.00    +0.000 OA
ATOM     19  H   UNL     1       3.710   5.933  17.674  0.00  0.00    +0.000 HD
BRANCH  17  20
ATOM     20  C   UNL     1       5.847   4.641  17.427  0.00  0.00    +0.000 A 
ATOM     21  C   UNL     1       5.482   4.469  16.106  0.00  0.00    +0.000 A 
ATOM     22  C   UNL     1       6.686   4.457  15.371  0.00  0.00    +0.000 A 
ATOM     23  N   UNL     1       7.752   4.609  16.165  0.00  0.00    +0.000 NA
ATOM     24  N   UNL     1       7.218   4.720  17.397  0.00  0.00    +0.000 N 
ATOM     25  H   UNL     1       7.841   4.855  18.190  0.00  0.00    +0.000 HD
BRANCH  22  26
ATOM     26  C   UNL     1       6.754   4.303  13.923  0.00  0.00    +0.000 A 
ATOM     27  C   UNL     1       5.939   3.451  13.139  0.00  0.00    +0.000 A 
ATOM     28  C   UNL     1       6.354   3.616  11.837  0.00  0.00    +0.000 A 
ATOM     29  O   UNL     1       7.368   4.518  11.770  0.00  0.00    +0.000 OA
ATOM     30  C   UNL     1       7.606   4.934  13.041  0.00  0.00    +0.000 A 
ENDBRANCH  22  26
ENDBRANCH  17  20
ENDBRANCH   1  16
TORSDOF 5
ENDMDL
MODEL 5
REMARK VINA RESULT:      -8.5      1.078      1.847
REMARK  Name = 
REMARK  8 active torsions:
REMARK  status: ('A' for Active; 'I' for Inactive)
REMARK    1  A    between atoms: C_1  and  C_2
REMARK    2  A    between atoms: C_4  and  C_5
REMARK    3  A    between atoms: N_6  and  C_7
REMARK    4  A    between atoms: C_10  and  C_11
REMARK    5  A    between atoms: C_11  and  C_12
REMARK    6  A    between atoms: C_11  and  N_13
REMARK    7  A    between atoms: C_14  and  C_16
REMARK    8  A    between atoms: C_18  and  C_19
REMARK                            x       y       z     vdW  Elec       q    Type
REMARK                         _______ _______ _______ _____ _____    ______ ____
ROOT
ATOM      1  C   UNL     1       3.482   5.989  19.390  0.00  0.00    +0.000 C 
ATOM      2  C   UNL     1       2.723   4.733  19.829  0.00  0.00    +0.000 C 
ENDROOT
BRANCH   1   6
ATOM      3  C   UNL     1       0.940   9.500  18.984  0.00  0.00    +0.000 A 
ATOM      4  C   UNL     1       1.665   9.002  17.896  0.00  0.00    +0.000 A 
ATOM      5  C   UNL     1       2.475   7.868  18.039  0.00  0.00    +0.000 A 
ATOM      6  C   UNL     1       2.590   7.216  19.275  0.00  0.00    +0.000 A 
ATOM      7  C   UNL     1       1.854   7.721  20.358  0.00  0.00    +0.000 A 
ATOM      8  C   UNL     1       1.059   8.864  20.224  0.00  0.00    +0.000 A 
BRANCH   3  14
ATOM      9  C   UNL     1      -3.228  11.926  18.799  0.00  0.00    +0.000 C 
ATOM     10  C   UNL     1      -1.760  11.714  18.810  0.00  0.00    +0.000 A 
ATOM     11  C   UNL     1      -0.750  12.691  18.852  0.00  0.00    +0.000 A 
ATOM     12  C   UNL     1       0.440  11.993  18.841  0.00  0.00    +0.000 A 
ATOM     13  C   UNL     1       1.817  12.529  18.709  0.00  0.00    +0.000 C 
ATOM     14  N   UNL     1       0.100  10.646  18.872  0.00  0.00    +0.000 N 
ATOM     15  N   UNL     1      -1.248  10.482  18.748  0.00  0.00    +0.000 NA
ENDBRANCH   3  14
ENDBRANCH   1   6
BRANCH   1  16
ATOM     16  N   UNL     1       4.150   5.761  18.122  0.00  0.00    +0.000 N 
ATOM     17  C   UNL     1       5.505   5.568  18.005  0.00  0.00    +0.000 C 
ATOM     18  O   UNL     1       6.278   5.648  18.956  0.00  0.00    +0.000 OA
ATOM     19  H   UNL     1       3.557   5.634  17.315  0.00  0.00    +0.000 HD
BRANCH  17  20
ATOM     20  C   UNL     1       5.955   5.266  16.674  0.00  0.00    +0.000 A 
ATOM     21  C   UNL     1       5.455   4.447  15.680  0.00  0.00    +0.000 A 
ATOM     22  C   UNL     1       6.346   4.569  14.594  0.00  0.00    +0.000 A 
ATOM     23  N   UNL     1       7.352   5.406  14.870  0.00  0.00    +0.000 NA
ATOM     24  N   UNL     1       7.090   5.814  16.128  0.00  0.00    +0.000 N 
ATOM     25  H   UNL     1       7.723   6.477  16.569  0.00  0.00    +0.000 HD
BRANCH  22  26
ATOM     26  C   UNL     1       6.184   3.869  13.325  0.00  0.00    +0.000 A 
ATOM     27  C   UNL     1       4.955   3.457  12.755  0.00  0.00    +0.000 A 
ATOM     28  C   UNL     1       5.273   2.830  11.571  0.00  0.00    +0.000 A 
ATOM     29  O   UNL     1       6.617   2.835  11.375  0.00  0.00    +0.000 OA
ATOM     30  C   UNL     1       7.166   3.469  12.444  0.00  0.00    +0.000 A 
ENDBRANCH  22  26
ENDBRANCH  17  20
ENDBRANCH   1  16
TORSDOF 5
ENDMDL
MODEL 6
REMARK VINA RESULT:      -8.5      0.751      1.355
REMARK  Name = 
REMARK  8 active torsions:
REMARK  status: ('A' for Active; 'I' for Inactive)
REMARK    1  A    between atoms: C_1  and  C_2
REMARK    2  A    between atoms: C_4  and  C_5
REMARK    3  A    between atoms: N_6  and  C_7
REMARK    4  A    between atoms: C_10  and  C_11
REMARK    5  A    between atoms: C_11  and  C_12
REMARK    6  A    between atoms: C_11  and  N_13
REMARK    7  A    between atoms: C_14  and  C_16
REMARK    8  A    between atoms: C_18  and  C_19
REMARK                            x       y       z     vdW  Elec       q    Type
REMARK                         _______ _______ _______ _____ _____    ______ ____
ROOT
ATOM      1  C   UNL     1       2.909   5.514  19.742  0.00  0.00    +0.000 C 
ATOM      2  C   UNL     1       1.876   4.384  19.800  0.00  0.00    +0.000 C 
ENDROOT
BRANCH   1   6
ATOM      3  C   UNL     1       1.118   9.456  19.292  0.00  0.00    +0.000 A 
ATOM      4  C   UNL     1       1.721   8.807  18.209  0.00  0.00    +0.000 A 
ATOM      5  C   UNL     1       2.288   7.537  18.366  0.00  0.00    +0.000 A 
ATOM      6  C   UNL     1       2.280   6.892  19.611  0.00  0.00    +0.000 A 
ATOM      7  C   UNL     1       1.668   7.550  20.690  0.00  0.00    +0.000 A 
ATOM      8  C   UNL     1       1.117   8.827  20.542  0.00  0.00    +0.000 A 
BRANCH   3  14
ATOM      9  C   UNL     1      -2.351  12.785  19.708  0.00  0.00    +0.000 C 
ATOM     10  C   UNL     1      -1.021  12.220  19.375  0.00  0.00    +0.000 A 
ATOM     11  C   UNL     1       0.122  12.911  18.938  0.00  0.00    +0.000 A 
ATOM     12  C   UNL     1       1.092  11.946  18.760  0.00  0.00    +0.000 A 
ATOM     13  C   UNL     1       2.439  12.099  18.156  0.00  0.00    +0.000 C 
ATOM     14  N   UNL     1       0.523  10.745  19.166  0.00  0.00    +0.000 N 
ATOM     15  N   UNL     1      -0.802  10.904  19.442  0.00  0.00    +0.000 NA
ENDBRANCH   3  14
ENDBRANCH   1   6
BRANCH   1  16
ATOM     16  N   UNL     1       3.831   5.301  18.641  0.00  0.00    +0.000 N 
ATOM     17  C   UNL     1       5.188   5.166  18.807  0.00  0.00    +0.000 C 
ATOM     18  O   UNL     1       5.746   5.288  19.894  0.00  0.00    +0.000 OA
ATOM     19  H   UNL     1       3.422   5.141  17.732  0.00  0.00    +0.000 HD
BRANCH  17  20
ATOM     20  C   UNL     1       5.913   4.869  17.602  0.00  0.00    +0.000 A 
ATOM     21  C   UNL     1       5.557   4.888  16.267  0.00  0.00    +0.000 A 
ATOM     22  C   UNL     1       6.708   4.493  15.554  0.00  0.00    +0.000 A 
ATOM     23  N   UNL     1       7.734   4.237  16.373  0.00  0.00    +0.000 NA
ATOM     24  N   UNL     1       7.229   4.474  17.600  0.00  0.00    +0.000 N 
ATOM     25  H   UNL     1       7.832   4.353  18.410  0.00  0.00    +0.000 HD
BRANCH  22  26
ATOM     26  C   UNL     1       6.769   4.385  14.101  0.00  0.00    +0.000 A 
ATOM     27  C   UNL     1       7.662   5.084  13.253  0.00  0.00    +0.000 A 
ATOM     28  C   UNL     1       7.360   4.688  11.970  0.00  0.00    +0.000 A 
ATOM     29  O   UNL     1       6.343   3.787  11.975  0.00  0.00    +0.000 OA
ATOM     30  C   UNL     1       5.989   3.606  13.274  0.00  0.00    +0.000 A 
ENDBRANCH  22  26
ENDBRANCH  17  20
ENDBRANCH   1  16
TORSDOF 5
ENDMDL
MODEL 7
REMARK VINA RESULT:      -8.5      0.871      1.325
REMARK  Name = 
REMARK  8 active torsions:
REMARK  status: ('A' for Active; 'I' for Inactive)
REMARK    1  A    between atoms: C_1  and  C_2
REMARK    2  A    between atoms: C_4  and  C_5
REMARK    3  A    between atoms: N_6  and  C_7
REMARK    4  A    between atoms: C_10  and  C_11
REMARK    5  A    between atoms: C_11  and  C_12
REMARK    6  A    between atoms: C_11  and  N_13
REMARK    7  A    between atoms: C_14  and  C_16
REMARK    8  A    between atoms: C_18  and  C_19
REMARK                            x       y       z     vdW  Elec       q    Type
REMARK                         _______ _______ _______ _____ _____    ______ ____
ROOT
ATOM      1  C   UNL     1       3.371   6.013  19.259  0.00  0.00    +0.000 C 
ATOM      2  C   UNL     1       2.508   4.814  19.662  0.00  0.00    +0.000 C 
ENDROOT
BRANCH   1   6
ATOM      3  C   UNL     1       1.082   9.704  18.951  0.00  0.00    +0.000 A 
ATOM      4  C   UNL     1       1.117   8.970  20.142  0.00  0.00    +0.000 A 
ATOM      5  C   UNL     1       1.862   7.788  20.229  0.00  0.00    +0.000 A 
ATOM      6  C   UNL     1       2.576   7.303  19.125  0.00  0.00    +0.000 A 
ATOM      7  C   UNL     1       2.539   8.049  17.936  0.00  0.00    +0.000 A 
ATOM      8  C   UNL     1       1.781   9.221  17.839  0.00  0.00    +0.000 A 
BRANCH   3  14
ATOM      9  C   UNL     1       0.353  14.472  19.084  0.00  0.00    +0.000 C 
ATOM     10  C   UNL     1       0.037  13.038  18.874  0.00  0.00    +0.000 A 
ATOM     11  C   UNL     1      -1.134  12.488  18.327  0.00  0.00    +0.000 A 
ATOM     12  C   UNL     1      -0.946  11.121  18.350  0.00  0.00    +0.000 A 
ATOM     13  C   UNL     1      -1.930  10.054  18.041  0.00  0.00    +0.000 C 
ATOM     14  N   UNL     1       0.342  10.916  18.830  0.00  0.00    +0.000 N 
ATOM     15  N   UNL     1       0.898  12.088  19.246  0.00  0.00    +0.000 NA
ENDBRANCH   3  14
ENDBRANCH   1   6
BRANCH   1  16
ATOM     16  N   UNL     1       4.062   5.744  18.012  0.00  0.00    +0.000 N 
ATOM     17  C   UNL     1       5.430   5.662  17.906  0.00  0.00    +0.000 C 
ATOM     18  O   UNL     1       6.188   5.886  18.846  0.00  0.00    +0.000 OA
ATOM     19  H   UNL     1       3.486   5.501  17.219  0.00  0.00    +0.000 HD
BRANCH  17  20
ATOM     20  C   UNL     1       5.910   5.295  16.603  0.00  0.00    +0.000 A 
ATOM     21  C   UNL     1       5.384   4.503  15.600  0.00  0.00    +0.000 A 
ATOM     22  C   UNL     1       6.331   4.524  14.555  0.00  0.00    +0.000 A 
ATOM     23  N   UNL     1       7.394   5.275  14.864  0.00  0.00    +0.000 NA
ATOM     24  N   UNL     1       7.113   5.730  16.101  0.00  0.00    +0.000 N 
ATOM     25  H   UNL     1       7.782   6.343  16.561  0.00  0.00    +0.000 HD
BRANCH  22  26
ATOM     26  C   UNL     1       6.164   3.815  13.292  0.00  0.00    +0.000 A 
ATOM     27  C   UNL     1       7.192   3.519  12.363  0.00  0.00    +0.000 A 
ATOM     28  C   UNL     1       6.585   2.856  11.320  0.00  0.00    +0.000 A 
ATOM     29  O   UNL     1       5.253   2.721  11.550  0.00  0.00    +0.000 OA
ATOM     30  C   UNL     1       5.003   3.305  12.751  0.00  0.00    +0.000 A 
ENDBRANCH  22  26
ENDBRANCH  17  20
ENDBRANCH   1  16
TORSDOF 5
ENDMDL
MODEL 8
REMARK VINA RESULT:      -8.4      0.900      1.067
REMARK  Name = 
REMARK  8 active torsions:
REMARK  status: ('A' for Active; 'I' for Inactive)
REMARK    1  A    between atoms: C_1  and  C_2
REMARK    2  A    between atoms: C_4  and  C_5
REMARK    3  A    between atoms: N_6  and  C_7
REMARK    4  A    between atoms: C_10  and  C_11
REMARK    5  A    between atoms: C_11  and  C_12
REMARK    6  A    between atoms: C_11  and  N_13
REMARK    7  A    between atoms: C_14  and  C_16
REMARK    8  A    between atoms: C_18  and  C_19
REMARK                            x       y       z     vdW  Elec       q    Type
REMARK                         _______ _______ _______ _____ _____    ______ ____
ROOT
ATOM      1  C   UNL     1       2.872   5.996  20.033  0.00  0.00    +0.000 C 
ATOM      2  C   UNL     1       1.927   4.937  20.608  0.00  0.00    +0.000 C 
ENDROOT
BRANCH   1   6
ATOM      3  C   UNL     1       0.913   9.783  19.152  0.00  0.00    +0.000 A 
ATOM      4  C   UNL     1       1.619   9.087  18.165  0.00  0.00    +0.000 A 
ATOM      5  C   UNL     1       2.240   7.867  18.460  0.00  0.00    +0.000 A 
ATOM      6  C   UNL     1       2.182   7.322  19.751  0.00  0.00    +0.000 A 
ATOM      7  C   UNL     1       1.466   8.027  20.732  0.00  0.00    +0.000 A 
ATOM      8  C   UNL     1       0.861   9.255  20.446  0.00  0.00    +0.000 A 
BRANCH   3  14
ATOM      9  C   UNL     1       0.475  14.582  18.885  0.00  0.00    +0.000 C 
ATOM     10  C   UNL     1       0.088  13.156  18.752  0.00  0.00    +0.000 A 
ATOM     11  C   UNL     1      -1.069  12.633  18.150  0.00  0.00    +0.000 A 
ATOM     12  C   UNL     1      -0.969  11.263  18.285  0.00  0.00    +0.000 A 
ATOM     13  C   UNL     1      -1.991  10.233  17.973  0.00  0.00    +0.000 C 
ATOM     14  N   UNL     1       0.261  11.022  18.884  0.00  0.00    +0.000 N 
ATOM     15  N   UNL     1       0.856  12.190  19.260  0.00  0.00    +0.000 NA
ENDBRANCH   3  14
ENDBRANCH   1   6
BRANCH   1  16
ATOM     16  N   UNL     1       3.495   5.512  18.815  0.00  0.00    +0.000 N 
ATOM     17  C   UNL     1       4.838   5.240  18.709  0.00  0.00    +0.000 C 
ATOM     18  O   UNL     1       5.639   5.456  19.615  0.00  0.00    +0.000 OA
ATOM     19  H   UNL     1       2.876   5.268  18.056  0.00  0.00    +0.000 HD
BRANCH  17  20
ATOM     20  C   UNL     1       5.239   4.681  17.447  0.00  0.00    +0.000 A 
ATOM     21  C   UNL     1       5.799   5.237  16.313  0.00  0.00    +0.000 A 
ATOM     22  C   UNL     1       5.960   4.173  15.401  0.00  0.00    +0.000 A 
ATOM     23  N   UNL     1       5.532   3.014  15.912  0.00  0.00    +0.000 NA
ATOM     24  N   UNL     1       5.105   3.347  17.146  0.00  0.00    +0.000 N 
ATOM     25  H   UNL     1       4.732   2.618  17.749  0.00  0.00    +0.000 HD
BRANCH  22  26
ATOM     26  C   UNL     1       6.530   4.324  14.068  0.00  0.00    +0.000 A 
ATOM     27  C   UNL     1       6.162   3.583  12.918  0.00  0.00    +0.000 A 
ATOM     28  C   UNL     1       6.958   4.045  11.894  0.00  0.00    +0.000 A 
ATOM     29  O   UNL     1       7.788   5.025  12.339  0.00  0.00    +0.000 OA
ATOM     30  C   UNL     1       7.522   5.191  13.661  0.00  0.00    +0.000 A 
ENDBRANCH  22  26
ENDBRANCH  17  20
ENDBRANCH   1  16
TORSDOF 5
ENDMDL
MODEL 9
REMARK VINA RESULT:      -8.3      1.139      1.730
REMARK  Name = 
REMARK  8 active torsions:
REMARK  status: ('A' for Active; 'I' for Inactive)
REMARK    1  A    between atoms: C_1  and  C_2
REMARK    2  A    between atoms: C_4  and  C_5
REMARK    3  A    between atoms: N_6  and  C_7
REMARK    4  A    between atoms: C_10  and  C_11
REMARK    5  A    between atoms: C_11  and  C_12
REMARK    6  A    between atoms: C_11  and  N_13
REMARK    7  A    between atoms: C_14  and  C_16
REMARK    8  A    between atoms: C_18  and  C_19
REMARK                            x       y       z     vdW  Elec       q    Type
REMARK                         _______ _______ _______ _____ _____    ______ ____
ROOT
ATOM      1  C   UNL     1       2.748   5.118  19.599  0.00  0.00    +0.000 C 
ATOM      2  C   UNL     1       1.658   4.078  19.320  0.00  0.00    +0.000 C 
ENDROOT
BRANCH   1   6
ATOM      3  C   UNL     1       1.183   9.159  20.011  0.00  0.00    +0.000 A 
ATOM      4  C   UNL     1       1.077   8.232  21.053  0.00  0.00    +0.000 A 
ATOM      5  C   UNL     1       1.589   6.937  20.910  0.00  0.00    +0.000 A 
ATOM      6  C   UNL     1       2.206   6.534  19.717  0.00  0.00    +0.000 A 
ATOM      7  C   UNL     1       2.312   7.474  18.679  0.00  0.00    +0.000 A 
ATOM      8  C   UNL     1       1.785   8.763  18.812  0.00  0.00    +0.000 A 
BRANCH   3  14
ATOM      9  C   UNL     1       0.326  13.699  18.617  0.00  0.00    +0.000 C 
ATOM     10  C   UNL     1       0.290  12.498  19.486  0.00  0.00    +0.000 A 
ATOM     11  C   UNL     1      -0.427  12.323  20.682  0.00  0.00    +0.000 A 
ATOM     12  C   UNL     1      -0.129  11.045  21.109  0.00  0.00    +0.000 A 
ATOM     13  C   UNL     1      -0.485  10.402  22.397  0.00  0.00    +0.000 C 
ATOM     14  N   UNL     1       0.681  10.488  20.126  0.00  0.00    +0.000 N 
ATOM     15  N   UNL     1       1.017  11.418  19.188  0.00  0.00    +0.000 NA
ENDBRANCH   3  14
ENDBRANCH   1   6
BRANCH   1  16
ATOM     16  N   UNL     1       3.763   5.077  18.563  0.00  0.00    +0.000 N 
ATOM     17  C   UNL     1       4.910   4.324  18.656  0.00  0.00    +0.000 C 
ATOM     18  O   UNL     1       5.208   3.680  19.659  0.00  0.00    +0.000 OA
ATOM     19  H   UNL     1       3.545   5.546  17.696  0.00  0.00    +0.000 HD
BRANCH  17  20
ATOM     20  C   UNL     1       5.741   4.350  17.485  0.00  0.00    +0.000 A 
ATOM     21  C   UNL     1       5.456   4.299  16.134  0.00  0.00    +0.000 A 
ATOM     22  C   UNL     1       6.701   4.361  15.474  0.00  0.00    +0.000 A 
ATOM     23  N   UNL     1       7.717   4.443  16.340  0.00  0.00    +0.000 NA
ATOM     24  N   UNL     1       7.111   4.438  17.544  0.00  0.00    +0.000 N 
ATOM     25  H   UNL     1       7.685   4.501  18.381  0.00  0.00    +0.000 HD
BRANCH  22  26
ATOM     26  C   UNL     1       6.856   4.342  14.024  0.00  0.00    +0.000 A 
ATOM     27  C   UNL     1       6.140   3.517  13.123  0.00  0.00    +0.000 A 
ATOM     28  C   UNL     1       6.612   3.822  11.866  0.00  0.00    +0.000 A 
ATOM     29  O   UNL     1       7.568   4.785  11.937  0.00  0.00    +0.000 OA
ATOM     30  C   UNL     1       7.711   5.098  13.251  0.00  0.00    +0.000 A 
ENDBRANCH  22  26
ENDBRANCH  17  20
ENDBRANCH   1  16
TORSDOF 5
ENDMDL
