MODEL 1
REMARK VINA RESULT:      -8.6      0.000      0.000
REMARK  Name = 
REMARK  4 active torsions:
REMARK  status: ('A' for Active; 'I' for Inactive)
REMARK    1  A    between atoms: C_1  and  C_2
REMARK    2  A    between atoms: C_12  and  C_13
REMARK    3  A    between atoms: N_15  and  C_16
REMARK    4  A    between atoms: C_16  and  C_17
REMARK                            x       y       z     vdW  Elec       q    Type
REMARK                         _______ _______ _______ _____ _____    ______ ____
ROOT
ATOM      1  C   UNL     1       4.752   5.594  18.176  0.00  0.00    +0.000 C 
ATOM      2  O   UNL     1       5.116   5.123  19.244  0.00  0.00    +0.000 OA
ATOM      3  N   UNL     1       3.638   6.407  18.101  0.00  0.00    +0.000 N 
ATOM      4  H   UNL     1       3.260   6.737  17.220  0.00  0.00    +0.000 HD
ENDROOT
BRANCH   1  16
ATOM      5  C   UNL     1       7.391   6.921  17.598  0.00  0.00    +0.000 C 
ATOM      6  C   UNL     1       6.733   5.962  16.649  0.00  0.00    +0.000 A 
ATOM      7  N   UNL     1       7.424   5.782  15.485  0.00  0.00    +0.000 NA
ATOM      8  C   UNL     1       6.911   5.003  14.526  0.00  0.00    +0.000 A 
ATOM      9  C   UNL     1       7.604   4.870  13.331  0.00  0.00    +0.000 A 
ATOM     10  C   UNL     1       7.089   4.097  12.297  0.00  0.00    +0.000 A 
ATOM     11  F   UNL     1       7.765   3.994  11.144  0.00  0.00    +0.000 F 
ATOM     12  C   UNL     1       5.874   3.443  12.435  0.00  0.00    +0.000 A 
ATOM     13  C   UNL     1       5.170   3.553  13.633  0.00  0.00    +0.000 A 
ATOM     14  C   UNL     1       5.681   4.332  14.691  0.00  0.00    +0.000 A 
ATOM     15  C   UNL     1       4.996   4.493  15.912  0.00  0.00    +0.000 A 
ATOM     16  C   UNL     1       5.517   5.322  16.917  0.00  0.00    +0.000 A 
ENDBRANCH   1  16
BRANCH   3  17
ATOM     17  C   UNL     1       2.920   6.772  19.316  0.00  0.00    +0.000 C 
BRANCH  17  18
ATOM     18  C   UNL     1       1.999   7.905  19.042  0.00  0.00    +0.000 A 
ATOM     19  N   UNL     1       1.853   8.540  17.891  0.00  0.00    +0.000 NA
ATOM     20  N   UNL     1       1.287   9.766  18.152  0.00  0.00    +0.000 NA
ATOM     21  C   UNL     1       1.070   9.838  19.447  0.00  0.00    +0.000 A 
ATOM     22  C   UNL     1       0.667  10.894  20.309  0.00  0.00    +0.000 A 
ATOM     23  C   UNL     1       0.402  10.628  21.603  0.00  0.00    +0.000 A 
ATOM     24  C   UNL     1       0.479   9.270  22.127  0.00  0.00    +0.000 A 
ATOM     25  C   UNL     1       0.980   8.297  21.343  0.00  0.00    +0.000 A 
ATOM     26  N   UNL     1       1.327   8.603  20.025  0.00  0.00    +0.000 N 
ENDBRANCH  17  18
ENDBRANCH   3  17
TORSDOF 3
ENDMDL
MODEL 2
REMARK VINA RESULT:      -8.6      3.683      8.812
REMARK  Name = 
REMARK  4 active torsions:
REMARK  status: ('A' for Active; 'I' for Inactive)
REMARK    1  A    between atoms: C_1  and  C_2
REMARK    2  A    between atoms: C_12  and  C_13
REMARK    3  A    between atoms: N_15  and  C_16
REMARK    4  A    between atoms: C_16  and  C_17
REMARK                            x       y       z     vdW  Elec       q    Type
REMARK                         _______ _______ _______ _____ _____    ______ ____
ROOT
ATOM      1  C   UNL     1       2.325   5.875  19.748  0.00  0.00    +0.000 C 
ATOM      2  O   UNL     1       1.655   4.954  19.305  0.00  0.00    +0.000 OA
ATOM      3  N   UNL     1       3.668   5.707  20.026  0.00  0.00    +0.000 N 
ATOM      4  H   UNL     1       4.227   6.421  20.479  0.00  0.00    +0.000 HD
ENDROOT
BRANCH   1  16
ATOM      5  C   UNL     1       2.644   8.132  17.783  0.00  0.00    +0.000 C 
ATOM      6  C   UNL     1       1.890   8.273  19.074  0.00  0.00    +0.000 A 
ATOM      7  N   UNL     1       1.401   9.529  19.289  0.00  0.00    +0.000 NA
ATOM      8  C   UNL     1       0.767   9.804  20.434  0.00  0.00    +0.000 A 
ATOM      9  C   UNL     1       0.318  11.098  20.657  0.00  0.00    +0.000 A 
ATOM     10  C   UNL     1      -0.315  11.433  21.848  0.00  0.00    +0.000 A 
ATOM     11  F   UNL     1      -0.727  12.692  22.050  0.00  0.00    +0.000 F 
ATOM     12  C   UNL     1      -0.512  10.484  22.840  0.00  0.00    +0.000 A 
ATOM     13  C   UNL     1      -0.081   9.175  22.630  0.00  0.00    +0.000 A 
ATOM     14  C   UNL     1       0.562   8.821  21.425  0.00  0.00    +0.000 A 
ATOM     15  C   UNL     1       1.035   7.518  21.175  0.00  0.00    +0.000 A 
ATOM     16  C   UNL     1       1.717   7.224  19.986  0.00  0.00    +0.000 A 
ENDBRANCH   1  16
BRANCH   3  17
ATOM     17  C   UNL     1       4.320   4.439  19.724  0.00  0.00    +0.000 C 
BRANCH  17  18
ATOM     18  C   UNL     1       5.623   4.684  19.053  0.00  0.00    +0.000 A 
ATOM     19  N   UNL     1       6.694   5.240  19.594  0.00  0.00    +0.000 NA
ATOM     20  N   UNL     1       7.495   5.698  18.574  0.00  0.00    +0.000 NA
ATOM     21  C   UNL     1       6.914   5.382  17.437  0.00  0.00    +0.000 A 
ATOM     22  C   UNL     1       7.175   5.725  16.083  0.00  0.00    +0.000 A 
ATOM     23  C   UNL     1       6.465   5.134  15.102  0.00  0.00    +0.000 A 
ATOM     24  C   UNL     1       5.463   4.117  15.400  0.00  0.00    +0.000 A 
ATOM     25  C   UNL     1       5.132   3.887  16.685  0.00  0.00    +0.000 A 
ATOM     26  N   UNL     1       5.821   4.566  17.692  0.00  0.00    +0.000 N 
ENDBRANCH  17  18
ENDBRANCH   3  17
TORSDOF 3
ENDMDL
MODEL 3
REMARK VINA RESULT:      -8.5      3.377      8.728
REMARK  Name = 
REMARK  4 active torsions:
REMARK  status: ('A' for Active; 'I' for Inactive)
REMARK    1  A    between atoms: C_1  and  C_2
REMARK    2  A    between atoms: C_12  and  C_13
REMARK    3  A    between atoms: N_15  and  C_16
REMARK    4  A    between atoms: C_16  and  C_17
REMARK                            x       y       z     vdW  Elec       q    Type
REMARK                         _______ _______ _______ _____ _____    ______ ____
ROOT
ATOM      1  C   UNL     1       3.061   5.058  17.710  0.00  0.00    +0.000 C 
ATOM      2  O   UNL     1       2.331   4.095  17.525  0.00  0.00    +0.000 OA
ATOM      3  N   UNL     1       4.331   5.102  17.170  0.00  0.00    +0.000 N 
ATOM      4  H   UNL     1       4.991   5.842  17.382  0.00  0.00    +0.000 HD
ENDROOT
BRANCH   1  16
ATOM      5  C   UNL     1       2.331   4.810  20.620  0.00  0.00    +0.000 C 
ATOM      6  C   UNL     1       2.235   6.101  19.861  0.00  0.00    +0.000 A 
ATOM      7  N   UNL     1       1.746   7.138  20.602  0.00  0.00    +0.000 NA
ATOM      8  C   UNL     1       1.548   8.328  20.024  0.00  0.00    +0.000 A 
ATOM      9  C   UNL     1       1.006   9.357  20.781  0.00  0.00    +0.000 A 
ATOM     10  C   UNL     1       0.753  10.599  20.210  0.00  0.00    +0.000 A 
ATOM     11  F   UNL     1       0.215  11.575  20.953  0.00  0.00    +0.000 F 
ATOM     12  C   UNL     1       1.035  10.837  18.873  0.00  0.00    +0.000 A 
ATOM     13  C   UNL     1       1.592   9.820  18.100  0.00  0.00    +0.000 A 
ATOM     14  C   UNL     1       1.856   8.556  18.667  0.00  0.00    +0.000 A 
ATOM     15  C   UNL     1       2.397   7.490  17.921  0.00  0.00    +0.000 A 
ATOM     16  C   UNL     1       2.592   6.234  18.513  0.00  0.00    +0.000 A 
ENDBRANCH   1  16
BRANCH   3  17
ATOM     17  C   UNL     1       4.793   4.021  16.308  0.00  0.00    +0.000 C 
BRANCH  17  18
ATOM     18  C   UNL     1       6.094   4.384  15.690  0.00  0.00    +0.000 A 
ATOM     19  N   UNL     1       7.027   5.160  16.216  0.00  0.00    +0.000 NA
ATOM     20  N   UNL     1       7.829   5.612  15.194  0.00  0.00    +0.000 NA
ATOM     21  C   UNL     1       7.391   5.078  14.076  0.00  0.00    +0.000 A 
ATOM     22  C   UNL     1       7.703   5.293  12.707  0.00  0.00    +0.000 A 
ATOM     23  C   UNL     1       7.167   4.487  11.770  0.00  0.00    +0.000 A 
ATOM     24  C   UNL     1       6.304   3.370  12.137  0.00  0.00    +0.000 A 
ATOM     25  C   UNL     1       5.911   3.245  13.419  0.00  0.00    +0.000 A 
ATOM     26  N   UNL     1       6.412   4.138  14.369  0.00  0.00    +0.000 N 
ENDBRANCH  17  18
ENDBRANCH   3  17
TORSDOF 3
ENDMDL
MODEL 4
REMARK VINA RESULT:      -8.3      2.283      3.949
REMARK  Name = 
REMARK  4 active torsions:
REMARK  status: ('A' for Active; 'I' for Inactive)
REMARK    1  A    between atoms: C_1  and  C_2
REMARK    2  A    between atoms: C_12  and  C_13
REMARK    3  A    between atoms: N_15  and  C_16
REMARK    4  A    between atoms: C_16  and  C_17
REMARK                            x       y       z     vdW  Elec       q    Type
REMARK                         _______ _______ _______ _____ _____    ______ ____
ROOT
ATOM      1  C   UNL     1       4.846   5.755  18.218  0.00  0.00    +0.000 C 
ATOM      2  O   UNL     1       5.303   5.448  19.310  0.00  0.00    +0.000 OA
ATOM      3  N   UNL     1       3.636   6.414  18.114  0.00  0.00    +0.000 N 
ATOM      4  H   UNL     1       3.189   6.599  17.222  0.00  0.00    +0.000 HD
ENDROOT
BRANCH   1  16
ATOM      5  C   UNL     1       7.510   7.012  17.601  0.00  0.00    +0.000 C 
ATOM      6  C   UNL     1       6.824   6.053  16.672  0.00  0.00    +0.000 A 
ATOM      7  N   UNL     1       7.502   5.840  15.506  0.00  0.00    +0.000 NA
ATOM      8  C   UNL     1       6.965   5.057  14.563  0.00  0.00    +0.000 A 
ATOM      9  C   UNL     1       7.645   4.890  13.366  0.00  0.00    +0.000 A 
ATOM     10  C   UNL     1       7.106   4.113  12.347  0.00  0.00    +0.000 A 
ATOM     11  F   UNL     1       7.771   3.976  11.192  0.00  0.00    +0.000 F 
ATOM     12  C   UNL     1       5.877   3.489  12.504  0.00  0.00    +0.000 A 
ATOM     13  C   UNL     1       5.184   3.634  13.705  0.00  0.00    +0.000 A 
ATOM     14  C   UNL     1       5.721   4.418  14.747  0.00  0.00    +0.000 A 
ATOM     15  C   UNL     1       5.049   4.613  15.970  0.00  0.00    +0.000 A 
ATOM     16  C   UNL     1       5.595   5.446  16.958  0.00  0.00    +0.000 A 
ENDBRANCH   1  16
BRANCH   3  17
ATOM     17  C   UNL     1       2.920   6.816  19.317  0.00  0.00    +0.000 C 
BRANCH  17  18
ATOM     18  C   UNL     1       2.258   5.636  19.933  0.00  0.00    +0.000 A 
ATOM     19  N   UNL     1       2.055   5.433  21.224  0.00  0.00    +0.000 NA
ATOM     20  N   UNL     1       1.853   4.086  21.414  0.00  0.00    +0.000 NA
ATOM     21  C   UNL     1       1.904   3.504  20.236  0.00  0.00    +0.000 A 
ATOM     22  C   UNL     1       1.929   2.145  19.822  0.00  0.00    +0.000 A 
ATOM     23  C   UNL     1       1.855   1.850  18.510  0.00  0.00    +0.000 A 
ATOM     24  C   UNL     1       1.706   2.898  17.507  0.00  0.00    +0.000 A 
ATOM     25  C   UNL     1       1.808   4.185  17.889  0.00  0.00    +0.000 A 
ATOM     26  N   UNL     1       1.965   4.475  19.246  0.00  0.00    +0.000 N 
ENDBRANCH  17  18
ENDBRANCH   3  17
TORSDOF 3
ENDMDL
MODEL 5
REMARK VINA RESULT:      -8.1      3.607      4.981
REMARK  Name = 
REMARK  4 active torsions:
REMARK  status: ('A' for Active; 'I' for Inactive)
REMARK    1  A    between atoms: C_1  and  C_2
REMARK    2  A    between atoms: C_12  and  C_13
REMARK    3  A    between atoms: N_15  and  C_16
REMARK    4  A    between atoms: C_16  and  C_17
REMARK                            x       y       z     vdW  Elec       q    Type
REMARK                         _______ _______ _______ _____ _____    ______ ____
ROOT
ATOM      1  C   UNL     1       2.106   8.193  18.398  0.00  0.00    +0.000 C 
ATOM      2  O   UNL     1       2.123   8.879  17.386  0.00  0.00    +0.000 OA
ATOM      3  N   UNL     1       1.587   8.684  19.580  0.00  0.00    +0.000 N 
ATOM      4  H   UNL     1       1.644   8.175  20.455  0.00  0.00    +0.000 HD
ENDROOT
BRANCH   1  16
ATOM      5  C   UNL     1       4.686   7.472  17.025  0.00  0.00    +0.000 C 
ATOM      6  C   UNL     1       3.821   6.462  17.722  0.00  0.00    +0.000 A 
ATOM      7  N   UNL     1       4.293   5.184  17.637  0.00  0.00    +0.000 NA
ATOM      8  C   UNL     1       3.580   4.180  18.160  0.00  0.00    +0.000 A 
ATOM      9  C   UNL     1       4.052   2.882  18.022  0.00  0.00    +0.000 A 
ATOM     10  C   UNL     1       3.324   1.808  18.521  0.00  0.00    +0.000 A 
ATOM     11  F   UNL     1       3.788   0.561  18.364  0.00  0.00    +0.000 F 
ATOM     12  C   UNL     1       2.112   2.008  19.165  0.00  0.00    +0.000 A 
ATOM     13  C   UNL     1       1.628   3.305  19.325  0.00  0.00    +0.000 A 
ATOM     14  C   UNL     1       2.357   4.404  18.825  0.00  0.00    +0.000 A 
ATOM     15  C   UNL     1       1.898   5.732  18.942  0.00  0.00    +0.000 A 
ATOM     16  C   UNL     1       2.630   6.789  18.382  0.00  0.00    +0.000 A 
ENDBRANCH   1  16
BRANCH   3  17
ATOM     17  C   UNL     1       0.985  10.010  19.616  0.00  0.00    +0.000 C 
BRANCH  17  18
ATOM     18  C   UNL     1       0.667  10.387  21.017  0.00  0.00    +0.000 A 
ATOM     19  N   UNL     1       1.117   9.798  22.112  0.00  0.00    +0.000 NA
ATOM     20  N   UNL     1       0.268  10.119  23.146  0.00  0.00    +0.000 NA
ATOM     21  C   UNL     1      -0.658  10.921  22.668  0.00  0.00    +0.000 A 
ATOM     22  C   UNL     1      -1.867  11.439  23.205  0.00  0.00    +0.000 A 
ATOM     23  C   UNL     1      -2.561  12.360  22.506  0.00  0.00    +0.000 A 
ATOM     24  C   UNL     1      -2.073  12.865  21.228  0.00  0.00    +0.000 A 
ATOM     25  C   UNL     1      -0.996  12.284  20.666  0.00  0.00    +0.000 A 
ATOM     26  N   UNL     1      -0.332  11.274  21.366  0.00  0.00    +0.000 N 
ENDBRANCH  17  18
ENDBRANCH   3  17
TORSDOF 3
ENDMDL
MODEL 6
REMARK VINA RESULT:      -8.1      5.534      9.048
REMARK  Name = 
REMARK  4 active torsions:
REMARK  status: ('A' for Active; 'I' for Inactive)
REMARK    1  A    between atoms: C_1  and  C_2
REMARK    2  A    between atoms: C_12  and  C_13
REMARK    3  A    between atoms: N_15  and  C_16
REMARK    4  A    between atoms: C_16  and  C_17
REMARK                            x       y       z     vdW  Elec       q    Type
REMARK                         _______ _______ _______ _____ _____    ______ ____
ROOT
ATOM      1  C   UNL     1       1.383   9.151  18.247  0.00  0.00    +0.000 C 
ATOM      2  O   UNL     1       2.269   9.501  17.482  0.00  0.00    +0.000 OA
ATOM      3  N   UNL     1       1.508   8.000  19.001  0.00  0.00    +0.000 N 
ATOM      4  H   UNL     1       0.754   7.635  19.573  0.00  0.00    +0.000 HD
ENDROOT
BRANCH   1  16
ATOM      5  C   UNL     1       1.144  11.275  20.366  0.00  0.00    +0.000 C 
ATOM      6  C   UNL     1       0.033  10.943  19.413  0.00  0.00    +0.000 A 
ATOM      7  N   UNL     1      -1.106  11.664  19.627  0.00  0.00    +0.000 NA
ATOM      8  C   UNL     1      -2.193  11.417  18.887  0.00  0.00    +0.000 A 
ATOM      9  C   UNL     1      -3.356  12.127  19.150  0.00  0.00    +0.000 A 
ATOM     10  C   UNL     1      -4.518  11.876  18.428  0.00  0.00    +0.000 A 
ATOM     11  F   UNL     1      -5.635  12.560  18.707  0.00  0.00    +0.000 F 
ATOM     12  C   UNL     1      -4.540  10.911  17.431  0.00  0.00    +0.000 A 
ATOM     13  C   UNL     1      -3.378  10.197  17.144  0.00  0.00    +0.000 A 
ATOM     14  C   UNL     1      -2.193  10.443  17.867  0.00  0.00    +0.000 A 
ATOM     15  C   UNL     1      -1.000   9.732  17.629  0.00  0.00    +0.000 A 
ATOM     16  C   UNL     1       0.140   9.972  18.409  0.00  0.00    +0.000 A 
ENDBRANCH   1  16
BRANCH   3  17
ATOM     17  C   UNL     1       2.739   7.221  18.942  0.00  0.00    +0.000 C 
BRANCH  17  18
ATOM     18  C   UNL     1       2.431   5.807  18.608  0.00  0.00    +0.000 A 
ATOM     19  N   UNL     1       2.077   5.337  17.424  0.00  0.00    +0.000 NA
ATOM     20  N   UNL     1       1.452   4.127  17.617  0.00  0.00    +0.000 NA
ATOM     21  C   UNL     1       1.469   3.870  18.907  0.00  0.00    +0.000 A 
ATOM     22  C   UNL     1       0.848   2.875  19.709  0.00  0.00    +0.000 A 
ATOM     23  C   UNL     1       1.160   2.789  21.017  0.00  0.00    +0.000 A 
ATOM     24  C   UNL     1       2.153   3.672  21.617  0.00  0.00    +0.000 A 
ATOM     25  C   UNL     1       2.644   4.691  20.888  0.00  0.00    +0.000 A 
ATOM     26  N   UNL     1       2.252   4.816  19.553  0.00  0.00    +0.000 N 
ENDBRANCH  17  18
ENDBRANCH   3  17
TORSDOF 3
ENDMDL
MODEL 7
REMARK VINA RESULT:      -8.0      5.076      7.406
REMARK  Name = 
REMARK  4 active torsions:
REMARK  status: ('A' for Active; 'I' for Inactive)
REMARK    1  A    between atoms: C_1  and  C_2
REMARK    2  A    between atoms: C_12  and  C_13
REMARK    3  A    between atoms: N_15  and  C_16
REMARK    4  A    between atoms: C_16  and  C_17
REMARK                            x       y       z     vdW  Elec       q    Type
REMARK                         _______ _______ _______ _____ _____    ______ ____
ROOT
ATOM      1  C   UNL     1       7.427   7.448  17.548  0.00  0.00    +0.000 C 
ATOM      2  O   UNL     1       7.978   7.275  16.471  0.00  0.00    +0.000 OA
ATOM      3  N   UNL     1       7.655   8.593  18.287  0.00  0.00    +0.000 N 
ATOM      4  H   UNL     1       7.287   8.723  19.223  0.00  0.00    +0.000 HD
ENDROOT
BRANCH   1  16
ATOM      5  C   UNL     1       8.259   5.425  19.616  0.00  0.00    +0.000 C 
ATOM      6  C   UNL     1       6.875   5.483  19.040  0.00  0.00    +0.000 A 
ATOM      7  N   UNL     1       6.044   4.507  19.510  0.00  0.00    +0.000 NA
ATOM      8  C   UNL     1       4.801   4.407  19.026  0.00  0.00    +0.000 A 
ATOM      9  C   UNL     1       3.987   3.379  19.481  0.00  0.00    +0.000 A 
ATOM     10  C   UNL     1       2.700   3.219  18.979  0.00  0.00    +0.000 A 
ATOM     11  F   UNL     1       1.935   2.211  19.419  0.00  0.00    +0.000 F 
ATOM     12  C   UNL     1       2.203   4.080  18.012  0.00  0.00    +0.000 A 
ATOM     13  C   UNL     1       3.001   5.127  17.552  0.00  0.00    +0.000 A 
ATOM     14  C   UNL     1       4.307   5.301  18.055  0.00  0.00    +0.000 A 
ATOM     15  C   UNL     1       5.159   6.330  17.605  0.00  0.00    +0.000 A 
ATOM     16  C   UNL     1       6.470   6.433  18.094  0.00  0.00    +0.000 A 
ENDBRANCH   1  16
BRANCH   3  17
ATOM     17  C   UNL     1       8.508   9.647  17.751  0.00  0.00    +0.000 C 
BRANCH  17  18
ATOM     18  C   UNL     1       9.261  10.301  18.852  0.00  0.00    +0.000 A 
ATOM     19  N   UNL     1       9.018  10.188  20.147  0.00  0.00    +0.000 NA
ATOM     20  N   UNL     1       9.600  11.261  20.782  0.00  0.00    +0.000 NA
ATOM     21  C   UNL     1      10.211  11.983  19.870  0.00  0.00    +0.000 A 
ATOM     22  C   UNL     1      10.831  13.261  19.895  0.00  0.00    +0.000 A 
ATOM     23  C   UNL     1      11.498  13.695  18.807  0.00  0.00    +0.000 A 
ATOM     24  C   UNL     1      11.630  12.861  17.618  0.00  0.00    +0.000 A 
ATOM     25  C   UNL     1      10.939  11.708  17.551  0.00  0.00    +0.000 A 
ATOM     26  N   UNL     1      10.186  11.307  18.658  0.00  0.00    +0.000 N 
ENDBRANCH  17  18
ENDBRANCH   3  17
TORSDOF 3
ENDMDL
MODEL 8
REMARK VINA RESULT:      -7.9      4.291      6.463
REMARK  Name = 
REMARK  4 active torsions:
REMARK  status: ('A' for Active; 'I' for Inactive)
REMARK    1  A    between atoms: C_1  and  C_2
REMARK    2  A    between atoms: C_12  and  C_13
REMARK    3  A    between atoms: N_15  and  C_16
REMARK    4  A    between atoms: C_16  and  C_17
REMARK                            x       y       z     vdW  Elec       q    Type
REMARK                         _______ _______ _______ _____ _____    ______ ____
ROOT
ATOM      1  C   UNL     1       0.793  10.249  18.728  0.00  0.00    +0.000 C 
ATOM      2  O   UNL     1       1.271  11.292  19.151  0.00  0.00    +0.000 OA
ATOM      3  N   UNL     1      -0.438  10.235  18.101  0.00  0.00    +0.000 N 
ATOM      4  H   UNL     1      -0.900   9.376  17.824  0.00  0.00    +0.000 HD
ENDROOT
BRANCH   1  16
ATOM      5  C   UNL     1       0.643   8.567  21.218  0.00  0.00    +0.000 C 
ATOM      6  C   UNL     1       1.477   8.192  20.029  0.00  0.00    +0.000 A 
ATOM      7  N   UNL     1       2.191   7.041  20.200  0.00  0.00    +0.000 NA
ATOM      8  C   UNL     1       3.026   6.632  19.239  0.00  0.00    +0.000 A 
ATOM      9  C   UNL     1       3.780   5.486  19.450  0.00  0.00    +0.000 A 
ATOM     10  C   UNL     1       4.685   5.046  18.491  0.00  0.00    +0.000 A 
ATOM     11  F   UNL     1       5.415   3.946  18.721  0.00  0.00    +0.000 F 
ATOM     12  C   UNL     1       4.855   5.742  17.303  0.00  0.00    +0.000 A 
ATOM     13  C   UNL     1       4.098   6.888  17.066  0.00  0.00    +0.000 A 
ATOM     14  C   UNL     1       3.175   7.344  18.031  0.00  0.00    +0.000 A 
ATOM     15  C   UNL     1       2.404   8.509  17.847  0.00  0.00    +0.000 A 
ATOM     16  C   UNL     1       1.538   8.956  18.856  0.00  0.00    +0.000 A 
ENDBRANCH   1  16
BRANCH   3  17
ATOM     17  C   UNL     1      -1.154  11.483  17.874  0.00  0.00    +0.000 C 
BRANCH  17  18
ATOM     18  C   UNL     1      -2.515  11.202  17.348  0.00  0.00    +0.000 A 
ATOM     19  N   UNL     1      -2.811  10.703  16.160  0.00  0.00    +0.000 NA
ATOM     20  N   UNL     1      -4.121  11.018  15.883  0.00  0.00    +0.000 NA
ATOM     21  C   UNL     1      -4.603  11.669  16.918  0.00  0.00    +0.000 A 
ATOM     22  C   UNL     1      -5.816  12.375  17.145  0.00  0.00    +0.000 A 
ATOM     23  C   UNL     1      -6.087  12.845  18.378  0.00  0.00    +0.000 A 
ATOM     24  C   UNL     1      -5.180  12.607  19.495  0.00  0.00    +0.000 A 
ATOM     25  C   UNL     1      -3.979  12.050  19.251  0.00  0.00    +0.000 A 
ATOM     26  N   UNL     1      -3.677  11.639  17.951  0.00  0.00    +0.000 N 
ENDBRANCH  17  18
ENDBRANCH   3  17
TORSDOF 3
ENDMDL
MODEL 9
REMARK VINA RESULT:      -7.9      5.096      6.861
REMARK  Name = 
REMARK  4 active torsions:
REMARK  status: ('A' for Active; 'I' for Inactive)
REMARK    1  A    between atoms: C_1  and  C_2
REMARK    2  A    between atoms: C_12  and  C_13
REMARK    3  A    between atoms: N_15  and  C_16
REMARK    4  A    between atoms: C_16  and  C_17
REMARK                            x       y       z     vdW  Elec       q    Type
REMARK                         _______ _______ _______ _____ _____    ______ ____
ROOT
ATOM      1  C   UNL     1       7.284   7.313  17.430  0.00  0.00    +0.000 C 
ATOM      2  O   UNL     1       7.892   7.083  16.395  0.00  0.00    +0.000 OA
ATOM      3  N   UNL     1       7.411   8.529  18.074  0.00  0.00    +0.000 N 
ATOM      4  H   UNL     1       6.993   8.715  18.979  0.00  0.00    +0.000 HD
ENDROOT
BRANCH   1  16
ATOM      5  C   UNL     1       8.152   5.491  19.662  0.00  0.00    +0.000 C 
ATOM      6  C   UNL     1       6.785   5.434  19.046  0.00  0.00    +0.000 A 
ATOM      7  N   UNL     1       5.990   4.452  19.565  0.00  0.00    +0.000 NA
ATOM      8  C   UNL     1       4.769   4.252  19.056  0.00  0.00    +0.000 A 
ATOM      9  C   UNL     1       3.994   3.219  19.563  0.00  0.00    +0.000 A 
ATOM     10  C   UNL     1       2.734   2.956  19.039  0.00  0.00    +0.000 A 
ATOM     11  F   UNL     1       2.007   1.944  19.531  0.00  0.00    +0.000 F 
ATOM     12  C   UNL     1       2.224   3.719  17.999  0.00  0.00    +0.000 A 
ATOM     13  C   UNL     1       2.981   4.770  17.485  0.00  0.00    +0.000 A 
ATOM     14  C   UNL     1       4.261   5.048  18.008  0.00  0.00    +0.000 A 
ATOM     15  C   UNL     1       5.074   6.085  17.508  0.00  0.00    +0.000 A 
ATOM     16  C   UNL     1       6.362   6.291  18.022  0.00  0.00    +0.000 A 
ENDBRANCH   1  16
BRANCH   3  17
ATOM     17  C   UNL     1       8.225   9.584  17.484  0.00  0.00    +0.000 C 
BRANCH  17  18
ATOM     18  C   UNL     1       8.946  10.327  18.550  0.00  0.00    +0.000 A 
ATOM     19  N   UNL     1       9.361   9.839  19.706  0.00  0.00    +0.000 NA
ATOM     20  N   UNL     1       9.551  10.894  20.568  0.00  0.00    +0.000 NA
ATOM     21  C   UNL     1       9.281  12.000  19.911  0.00  0.00    +0.000 A 
ATOM     22  C   UNL     1       9.143  13.358  20.307  0.00  0.00    +0.000 A 
ATOM     23  C   UNL     1       8.982  14.309  19.366  0.00  0.00    +0.000 A 
ATOM     24  C   UNL     1       8.988  13.977  17.946  0.00  0.00    +0.000 A 
ATOM     25  C   UNL     1       8.994  12.682  17.580  0.00  0.00    +0.000 A 
ATOM     26  N   UNL     1       9.081  11.701  18.571  0.00  0.00    +0.000 N 
ENDBRANCH  17  18
ENDBRANCH   3  17
TORSDOF 3
ENDMDL
