MODEL 1
REMARK VINA RESULT:      -8.7      0.000      0.000
REMARK  Name = 
REMARK  4 active torsions:
REMARK  status: ('A' for Active; 'I' for Inactive)
REMARK    1  A    between atoms: C_2  and  C_20
REMARK    2  A    between atoms: N_3  and  C_4
REMARK    3  A    between atoms: C_7  and  C_8
REMARK    4  A    between atoms: C_23  and  C_24
REMARK                            x       y       z     vdW  Elec       q    Type
REMARK                         _______ _______ _______ _____ _____    ______ ____
ROOT
ATOM      1  C   UNL     1       0.742   9.600  20.133  0.00  0.00    +0.000 A 
ATOM      2  C   UNL     1       1.062   9.768  18.786  0.00  0.00    +0.000 A 
ATOM      3  C   UNL     1       1.843   8.823  18.115  0.00  0.00    +0.000 A 
ATOM      4  C   UNL     1       2.325   7.695  18.786  0.00  0.00    +0.000 A 
ATOM      5  C   UNL     1       2.052   7.567  20.155  0.00  0.00    +0.000 A 
ATOM      6  C   UNL     1       1.257   8.501  20.821  0.00  0.00    +0.000 A 
ENDROOT
BRANCH   4   7
ATOM      7  C   UNL     1       3.115   6.706  18.052  0.00  0.00    +0.000 A 
ATOM      8  N   UNL     1       4.104   6.983  17.223  0.00  0.00    +0.000 NA
ATOM      9  N   UNL     1       4.658   5.809  16.790  0.00  0.00    +0.000 NA
ATOM     10  C   UNL     1       3.985   4.811  17.333  0.00  0.00    +0.000 A 
ATOM     11  N   UNL     1       2.951   5.334  18.070  0.00  0.00    +0.000 N 
ATOM     12  C   UNL     1       1.880   4.604  18.713  0.00  0.00    +0.000 C 
ATOM     13  C   UNL     1       1.410   3.371  17.955  0.00  0.00    +0.000 C 
ATOM     14  C   UNL     1       2.311   2.156  18.159  0.00  0.00    +0.000 C 
ATOM     15  C   UNL     1       3.807   2.457  18.252  0.00  0.00    +0.000 C 
ATOM     16  C   UNL     1       4.307   3.371  17.141  0.00  0.00    +0.000 C 
ENDBRANCH   4   7
BRANCH   1  19
ATOM     17  O   UNL     1       1.462  12.212  21.266  0.00  0.00    +0.000 OA
ATOM     18  C   UNL     1       0.358  11.695  21.399  0.00  0.00    +0.000 C 
ATOM     19  N   UNL     1      -0.064  10.496  20.857  0.00  0.00    +0.000 N 
ATOM     20  H   UNL     1      -1.055  10.301  20.874  0.00  0.00    +0.000 HD
BRANCH  18  21
ATOM     21  C   UNL     1      -0.665  12.443  22.163  0.00  0.00    +0.000 A 
ATOM     22  C   UNL     1      -0.423  13.798  22.420  0.00  0.00    +0.000 A 
ATOM     23  C   UNL     1      -1.310  14.532  23.206  0.00  0.00    +0.000 A 
ATOM     24  C   UNL     1      -2.445  13.916  23.753  0.00  0.00    +0.000 A 
ATOM     25  C   UNL     1      -2.689  12.560  23.477  0.00  0.00    +0.000 A 
ATOM     26  C   UNL     1      -1.803  11.822  22.689  0.00  0.00    +0.000 A 
BRANCH  24  27
ATOM     27  C   UNL     1      -3.381  14.684  24.653  0.00  0.00    +0.000 C 
ATOM     28  F   UNL     1      -4.699  14.461  24.388  0.00  0.00    +0.000 F 
ATOM     29  F   UNL     1      -3.206  14.375  25.968  0.00  0.00    +0.000 F 
ATOM     30  F   UNL     1      -3.203  16.030  24.557  0.00  0.00    +0.000 F 
ENDBRANCH  24  27
ENDBRANCH  18  21
ENDBRANCH   1  19
TORSDOF 4
ENDMDL
MODEL 2
REMARK VINA RESULT:      -8.6      0.877      1.285
REMARK  Name = 
REMARK  4 active torsions:
REMARK  status: ('A' for Active; 'I' for Inactive)
REMARK    1  A    between atoms: C_2  and  C_20
REMARK    2  A    between atoms: N_3  and  C_4
REMARK    3  A    between atoms: C_7  and  C_8
REMARK    4  A    between atoms: C_23  and  C_24
REMARK                            x       y       z     vdW  Elec       q    Type
REMARK                         _______ _______ _______ _____ _____    ______ ____
ROOT
ATOM      1  C   UNL     1       0.462   9.669  19.857  0.00  0.00    +0.000 A 
ATOM      2  C   UNL     1       0.825   9.805  18.518  0.00  0.00    +0.000 A 
ATOM      3  C   UNL     1       1.711   8.902  17.924  0.00  0.00    +0.000 A 
ATOM      4  C   UNL     1       2.257   7.851  18.666  0.00  0.00    +0.000 A 
ATOM      5  C   UNL     1       1.937   7.760  20.027  0.00  0.00    +0.000 A 
ATOM      6  C   UNL     1       1.037   8.650  20.616  0.00  0.00    +0.000 A 
ENDROOT
BRANCH   4   7
ATOM      7  C   UNL     1       3.158   6.903  18.011  0.00  0.00    +0.000 A 
ATOM      8  N   UNL     1       4.240   7.225  17.329  0.00  0.00    +0.000 NA
ATOM      9  N   UNL     1       4.873   6.077  16.935  0.00  0.00    +0.000 NA
ATOM     10  C   UNL     1       4.158   5.049  17.353  0.00  0.00    +0.000 A 
ATOM     11  N   UNL     1       3.024   5.528  17.964  0.00  0.00    +0.000 N 
ATOM     12  C   UNL     1       1.895   4.756  18.437  0.00  0.00    +0.000 C 
ATOM     13  C   UNL     1       1.557   3.542  17.585  0.00  0.00    +0.000 C 
ATOM     14  C   UNL     1       2.451   2.337  17.866  0.00  0.00    +0.000 C 
ATOM     15  C   UNL     1       3.914   2.662  18.165  0.00  0.00    +0.000 C 
ATOM     16  C   UNL     1       4.535   3.623  17.159  0.00  0.00    +0.000 C 
ENDBRANCH   4   7
BRANCH   1  19
ATOM     17  O   UNL     1       1.018  12.071  21.453  0.00  0.00    +0.000 OA
ATOM     18  C   UNL     1      -0.107  11.617  21.279  0.00  0.00    +0.000 C 
ATOM     19  N   UNL     1      -0.448  10.523  20.507  0.00  0.00    +0.000 N 
ATOM     20  H   UNL     1      -1.425  10.395  20.286  0.00  0.00    +0.000 HD
BRANCH  18  21
ATOM     21  C   UNL     1      -1.242  12.334  21.901  0.00  0.00    +0.000 A 
ATOM     22  C   UNL     1      -1.871  11.732  22.998  0.00  0.00    +0.000 A 
ATOM     23  C   UNL     1      -2.997  12.320  23.571  0.00  0.00    +0.000 A 
ATOM     24  C   UNL     1      -3.514  13.514  23.048  0.00  0.00    +0.000 A 
ATOM     25  C   UNL     1      -2.868  14.121  21.958  0.00  0.00    +0.000 A 
ATOM     26  C   UNL     1      -1.738  13.535  21.382  0.00  0.00    +0.000 A 
BRANCH  24  27
ATOM     27  C   UNL     1      -4.766  14.130  23.622  0.00  0.00    +0.000 C 
ATOM     28  F   UNL     1      -5.557  14.729  22.689  0.00  0.00    +0.000 F 
ATOM     29  F   UNL     1      -5.555  13.213  24.248  0.00  0.00    +0.000 F 
ATOM     30  F   UNL     1      -4.493  15.087  24.551  0.00  0.00    +0.000 F 
ENDBRANCH  24  27
ENDBRANCH  18  21
ENDBRANCH   1  19
TORSDOF 4
ENDMDL
MODEL 3
REMARK VINA RESULT:      -8.6      0.227      1.151
REMARK  Name = 
REMARK  4 active torsions:
REMARK  status: ('A' for Active; 'I' for Inactive)
REMARK    1  A    between atoms: C_2  and  C_20
REMARK    2  A    between atoms: N_3  and  C_4
REMARK    3  A    between atoms: C_7  and  C_8
REMARK    4  A    between atoms: C_23  and  C_24
REMARK                            x       y       z     vdW  Elec       q    Type
REMARK                         _______ _______ _______ _____ _____    ______ ____
ROOT
ATOM      1  C   UNL     1       0.708   9.552  20.304  0.00  0.00    +0.000 A 
ATOM      2  C   UNL     1       1.251   8.410  20.891  0.00  0.00    +0.000 A 
ATOM      3  C   UNL     1       2.041   7.531  20.143  0.00  0.00    +0.000 A 
ATOM      4  C   UNL     1       2.292   7.779  18.791  0.00  0.00    +0.000 A 
ATOM      5  C   UNL     1       1.690   8.894  18.194  0.00  0.00    +0.000 A 
ATOM      6  C   UNL     1       0.916   9.782  18.944  0.00  0.00    +0.000 A 
ENDROOT
BRANCH   4   7
ATOM      7  C   UNL     1       3.147   6.858  18.040  0.00  0.00    +0.000 A 
ATOM      8  N   UNL     1       4.169   7.211  17.284  0.00  0.00    +0.000 NA
ATOM      9  N   UNL     1       4.777   6.081  16.808  0.00  0.00    +0.000 NA
ATOM     10  C   UNL     1       4.106   5.035  17.252  0.00  0.00    +0.000 A 
ATOM     11  N   UNL     1       3.020   5.484  17.964  0.00  0.00    +0.000 N 
ATOM     12  C   UNL     1       1.938   4.688  18.502  0.00  0.00    +0.000 C 
ATOM     13  C   UNL     1       1.544   3.495  17.645  0.00  0.00    +0.000 C 
ATOM     14  C   UNL     1       2.466   2.292  17.820  0.00  0.00    +0.000 C 
ATOM     15  C   UNL     1       3.946   2.623  18.011  0.00  0.00    +0.000 C 
ATOM     16  C   UNL     1       4.478   3.618  16.987  0.00  0.00    +0.000 C 
ENDBRANCH   4   7
BRANCH   1  19
ATOM     17  O   UNL     1       1.432  12.274  21.133  0.00  0.00    +0.000 OA
ATOM     18  C   UNL     1       0.358  11.746  21.401  0.00  0.00    +0.000 C 
ATOM     19  N   UNL     1      -0.068  10.492  21.006  0.00  0.00    +0.000 N 
ATOM     20  H   UNL     1      -1.048  10.277  21.118  0.00  0.00    +0.000 HD
BRANCH  18  21
ATOM     21  C   UNL     1      -0.624  12.538  22.172  0.00  0.00    +0.000 A 
ATOM     22  C   UNL     1      -0.302  13.869  22.466  0.00  0.00    +0.000 A 
ATOM     23  C   UNL     1      -1.151  14.637  23.261  0.00  0.00    +0.000 A 
ATOM     24  C   UNL     1      -2.328  14.081  23.780  0.00  0.00    +0.000 A 
ATOM     25  C   UNL     1      -2.654  12.750  23.467  0.00  0.00    +0.000 A 
ATOM     26  C   UNL     1      -1.806  11.978  22.670  0.00  0.00    +0.000 A 
BRANCH  24  27
ATOM     27  C   UNL     1      -3.226  14.884  24.689  0.00  0.00    +0.000 C 
ATOM     28  F   UNL     1      -3.091  14.568  26.008  0.00  0.00    +0.000 F 
ATOM     29  F   UNL     1      -2.991  16.223  24.599  0.00  0.00    +0.000 F 
ATOM     30  F   UNL     1      -4.545  14.714  24.397  0.00  0.00    +0.000 F 
ENDBRANCH  24  27
ENDBRANCH  18  21
ENDBRANCH   1  19
TORSDOF 4
ENDMDL
MODEL 4
REMARK VINA RESULT:      -8.1      1.845      2.758
REMARK  Name = 
REMARK  4 active torsions:
REMARK  status: ('A' for Active; 'I' for Inactive)
REMARK    1  A    between atoms: C_2  and  C_20
REMARK    2  A    between atoms: N_3  and  C_4
REMARK    3  A    between atoms: C_7  and  C_8
REMARK    4  A    between atoms: C_23  and  C_24
REMARK                            x       y       z     vdW  Elec       q    Type
REMARK                         _______ _______ _______ _____ _____    ______ ____
ROOT
ATOM      1  C   UNL     1       1.279   8.972  19.756  0.00  0.00    +0.000 A 
ATOM      2  C   UNL     1       1.660   8.998  18.415  0.00  0.00    +0.000 A 
ATOM      3  C   UNL     1       2.274   7.889  17.826  0.00  0.00    +0.000 A 
ATOM      4  C   UNL     1       2.523   6.736  18.575  0.00  0.00    +0.000 A 
ATOM      5  C   UNL     1       2.195   6.742  19.938  0.00  0.00    +0.000 A 
ATOM      6  C   UNL     1       1.565   7.843  20.521  0.00  0.00    +0.000 A 
ENDROOT
BRANCH   4   7
ATOM      7  C   UNL     1       3.140   5.578  17.927  0.00  0.00    +0.000 A 
ATOM      8  N   UNL     1       2.622   4.365  17.879  0.00  0.00    +0.000 NA
ATOM      9  N   UNL     1       3.437   3.567  17.122  0.00  0.00    +0.000 NA
ATOM     10  C   UNL     1       4.472   4.288  16.732  0.00  0.00    +0.000 A 
ATOM     11  N   UNL     1       4.365   5.540  17.288  0.00  0.00    +0.000 N 
ATOM     12  C   UNL     1       5.348   6.601  17.246  0.00  0.00    +0.000 C 
ATOM     13  C   UNL     1       6.793   6.128  17.299  0.00  0.00    +0.000 C 
ATOM     14  C   UNL     1       7.318   5.638  15.952  0.00  0.00    +0.000 C 
ATOM     15  C   UNL     1       6.309   4.879  15.091  0.00  0.00    +0.000 C 
ATOM     16  C   UNL     1       5.565   3.790  15.854  0.00  0.00    +0.000 C 
ENDBRANCH   4   7
BRANCH   1  19
ATOM     17  O   UNL     1      -1.334  10.166  19.147  0.00  0.00    +0.000 OA
ATOM     18  C   UNL     1      -0.588  10.579  20.028  0.00  0.00    +0.000 C 
ATOM     19  N   UNL     1       0.630  10.041  20.400  0.00  0.00    +0.000 N 
ATOM     20  H   UNL     1       1.029  10.353  21.273  0.00  0.00    +0.000 HD
BRANCH  18  21
ATOM     21  C   UNL     1      -1.045  11.734  20.831  0.00  0.00    +0.000 A 
ATOM     22  C   UNL     1      -0.763  11.726  22.203  0.00  0.00    +0.000 A 
ATOM     23  C   UNL     1      -1.242  12.746  23.024  0.00  0.00    +0.000 A 
ATOM     24  C   UNL     1      -2.016  13.782  22.484  0.00  0.00    +0.000 A 
ATOM     25  C   UNL     1      -2.282  13.792  21.104  0.00  0.00    +0.000 A 
ATOM     26  C   UNL     1      -1.803  12.772  20.278  0.00  0.00    +0.000 A 
BRANCH  24  27
ATOM     27  C   UNL     1      -2.590  14.860  23.371  0.00  0.00    +0.000 C 
ATOM     28  F   UNL     1      -2.119  16.107  23.089  0.00  0.00    +0.000 F 
ATOM     29  F   UNL     1      -3.946  14.941  23.277  0.00  0.00    +0.000 F 
ATOM     30  F   UNL     1      -2.317  14.646  24.687  0.00  0.00    +0.000 F 
ENDBRANCH  24  27
ENDBRANCH  18  21
ENDBRANCH   1  19
TORSDOF 4
ENDMDL
MODEL 5
REMARK VINA RESULT:      -8.1      0.887      1.691
REMARK  Name = 
REMARK  4 active torsions:
REMARK  status: ('A' for Active; 'I' for Inactive)
REMARK    1  A    between atoms: C_2  and  C_20
REMARK    2  A    between atoms: N_3  and  C_4
REMARK    3  A    between atoms: C_7  and  C_8
REMARK    4  A    between atoms: C_23  and  C_24
REMARK                            x       y       z     vdW  Elec       q    Type
REMARK                         _______ _______ _______ _____ _____    ______ ____
ROOT
ATOM      1  C   UNL     1       0.834   9.717  20.294  0.00  0.00    +0.000 A 
ATOM      2  C   UNL     1       1.296   8.558  20.916  0.00  0.00    +0.000 A 
ATOM      3  C   UNL     1       2.016   7.601  20.196  0.00  0.00    +0.000 A 
ATOM      4  C   UNL     1       2.277   7.786  18.835  0.00  0.00    +0.000 A 
ATOM      5  C   UNL     1       1.753   8.922  18.204  0.00  0.00    +0.000 A 
ATOM      6  C   UNL     1       1.051   9.887  18.927  0.00  0.00    +0.000 A 
ENDROOT
BRANCH   4   7
ATOM      7  C   UNL     1       3.058   6.782  18.112  0.00  0.00    +0.000 A 
ATOM      8  N   UNL     1       4.048   7.041  17.279  0.00  0.00    +0.000 NA
ATOM      9  N   UNL     1       4.592   5.857  16.858  0.00  0.00    +0.000 NA
ATOM     10  C   UNL     1       3.912   4.871  17.413  0.00  0.00    +0.000 A 
ATOM     11  N   UNL     1       2.882   5.411  18.145  0.00  0.00    +0.000 N 
ATOM     12  C   UNL     1       1.806   4.697  18.797  0.00  0.00    +0.000 C 
ATOM     13  C   UNL     1       1.325   3.460  18.053  0.00  0.00    +0.000 C 
ATOM     14  C   UNL     1       2.216   2.240  18.270  0.00  0.00    +0.000 C 
ATOM     15  C   UNL     1       3.714   2.529  18.359  0.00  0.00    +0.000 C 
ATOM     16  C   UNL     1       4.222   3.427  17.237  0.00  0.00    +0.000 C 
ENDBRANCH   4   7
BRANCH   1  19
ATOM     17  O   UNL     1      -0.242   9.703  23.027  0.00  0.00    +0.000 OA
ATOM     18  C   UNL     1      -0.383  10.638  22.246  0.00  0.00    +0.000 C 
ATOM     19  N   UNL     1       0.132  10.734  20.968  0.00  0.00    +0.000 N 
ATOM     20  H   UNL     1       0.115  11.641  20.525  0.00  0.00    +0.000 HD
BRANCH  18  21
ATOM     21  C   UNL     1      -1.127  11.826  22.723  0.00  0.00    +0.000 A 
ATOM     22  C   UNL     1      -2.386  11.617  23.300  0.00  0.00    +0.000 A 
ATOM     23  C   UNL     1      -3.167  12.704  23.689  0.00  0.00    +0.000 A 
ATOM     24  C   UNL     1      -2.702  14.013  23.499  0.00  0.00    +0.000 A 
ATOM     25  C   UNL     1      -1.430  14.214  22.934  0.00  0.00    +0.000 A 
ATOM     26  C   UNL     1      -0.645  13.127  22.543  0.00  0.00    +0.000 A 
BRANCH  24  27
ATOM     27  C   UNL     1      -3.562  15.198  23.862  0.00  0.00    +0.000 C 
ATOM     28  F   UNL     1      -3.051  16.391  23.449  0.00  0.00    +0.000 F 
ATOM     29  F   UNL     1      -4.810  15.118  23.322  0.00  0.00    +0.000 F 
ATOM     30  F   UNL     1      -3.742  15.314  25.207  0.00  0.00    +0.000 F 
ENDBRANCH  24  27
ENDBRANCH  18  21
ENDBRANCH   1  19
TORSDOF 4
ENDMDL
MODEL 6
REMARK VINA RESULT:      -8.1      1.247      1.400
REMARK  Name = 
REMARK  4 active torsions:
REMARK  status: ('A' for Active; 'I' for Inactive)
REMARK    1  A    between atoms: C_2  and  C_20
REMARK    2  A    between atoms: N_3  and  C_4
REMARK    3  A    between atoms: C_7  and  C_8
REMARK    4  A    between atoms: C_23  and  C_24
REMARK                            x       y       z     vdW  Elec       q    Type
REMARK                         _______ _______ _______ _____ _____    ______ ____
ROOT
ATOM      1  C   UNL     1       0.721   9.723  19.965  0.00  0.00    +0.000 A 
ATOM      2  C   UNL     1       1.109   9.902  18.638  0.00  0.00    +0.000 A 
ATOM      3  C   UNL     1       1.915   8.958  17.996  0.00  0.00    +0.000 A 
ATOM      4  C   UNL     1       2.353   7.818  18.678  0.00  0.00    +0.000 A 
ATOM      5  C   UNL     1       2.011   7.678  20.030  0.00  0.00    +0.000 A 
ATOM      6  C   UNL     1       1.191   8.612  20.665  0.00  0.00    +0.000 A 
ENDROOT
BRANCH   4   7
ATOM      7  C   UNL     1       3.171   6.830  17.974  0.00  0.00    +0.000 A 
ATOM      8  N   UNL     1       4.199   7.107  17.195  0.00  0.00    +0.000 NA
ATOM      9  N   UNL     1       4.766   5.933  16.778  0.00  0.00    +0.000 NA
ATOM     10  C   UNL     1       4.062   4.935  17.280  0.00  0.00    +0.000 A 
ATOM     11  N   UNL     1       2.996   5.459  17.971  0.00  0.00    +0.000 N 
ATOM     12  C   UNL     1       1.891   4.731  18.556  0.00  0.00    +0.000 C 
ATOM     13  C   UNL     1       1.450   3.508  17.766  0.00  0.00    +0.000 C 
ATOM     14  C   UNL     1       2.332   2.285  18.001  0.00  0.00    +0.000 C 
ATOM     15  C   UNL     1       3.823   2.574  18.168  0.00  0.00    +0.000 C 
ATOM     16  C   UNL     1       4.383   3.495  17.090  0.00  0.00    +0.000 C 
ENDBRANCH   4   7
BRANCH   1  19
ATOM     17  O   UNL     1      -1.678  11.115  19.001  0.00  0.00    +0.000 OA
ATOM     18  C   UNL     1      -1.207  11.271  20.122  0.00  0.00    +0.000 C 
ATOM     19  N   UNL     1      -0.113  10.618  20.658  0.00  0.00    +0.000 N 
ATOM     20  H   UNL     1       0.029  10.689  21.655  0.00  0.00    +0.000 HD
BRANCH  18  21
ATOM     21  C   UNL     1      -1.902  12.204  21.037  0.00  0.00    +0.000 A 
ATOM     22  C   UNL     1      -1.896  11.900  22.404  0.00  0.00    +0.000 A 
ATOM     23  C   UNL     1      -2.605  12.697  23.302  0.00  0.00    +0.000 A 
ATOM     24  C   UNL     1      -3.336  13.801  22.842  0.00  0.00    +0.000 A 
ATOM     25  C   UNL     1      -3.323  14.110  21.470  0.00  0.00    +0.000 A 
ATOM     26  C   UNL     1      -2.613  13.314  20.568  0.00  0.00    +0.000 A 
BRANCH  24  27
ATOM     27  C   UNL     1      -4.155  14.637  23.795  0.00  0.00    +0.000 C 
ATOM     28  F   UNL     1      -5.373  14.100  24.084  0.00  0.00    +0.000 F 
ATOM     29  F   UNL     1      -3.532  14.816  24.993  0.00  0.00    +0.000 F 
ATOM     30  F   UNL     1      -4.401  15.884  23.310  0.00  0.00    +0.000 F 
ENDBRANCH  24  27
ENDBRANCH  18  21
ENDBRANCH   1  19
TORSDOF 4
ENDMDL
MODEL 7
REMARK VINA RESULT:      -8.1      1.591      2.513
REMARK  Name = 
REMARK  4 active torsions:
REMARK  status: ('A' for Active; 'I' for Inactive)
REMARK    1  A    between atoms: C_2  and  C_20
REMARK    2  A    between atoms: N_3  and  C_4
REMARK    3  A    between atoms: C_7  and  C_8
REMARK    4  A    between atoms: C_23  and  C_24
REMARK                            x       y       z     vdW  Elec       q    Type
REMARK                         _______ _______ _______ _____ _____    ______ ____
ROOT
ATOM      1  C   UNL     1       1.396   8.792  20.284  0.00  0.00    +0.000 A 
ATOM      2  C   UNL     1       1.819   8.921  18.961  0.00  0.00    +0.000 A 
ATOM      3  C   UNL     1       2.309   7.816  18.259  0.00  0.00    +0.000 A 
ATOM      4  C   UNL     1       2.390   6.563  18.874  0.00  0.00    +0.000 A 
ATOM      5  C   UNL     1       2.023   6.458  20.222  0.00  0.00    +0.000 A 
ATOM      6  C   UNL     1       1.517   7.556  20.919  0.00  0.00    +0.000 A 
ENDROOT
BRANCH   4   7
ATOM      7  C   UNL     1       2.878   5.417  18.106  0.00  0.00    +0.000 A 
ATOM      8  N   UNL     1       2.136   4.414  17.678  0.00  0.00    +0.000 NA
ATOM      9  N   UNL     1       2.917   3.575  16.929  0.00  0.00    +0.000 NA
ATOM     10  C   UNL     1       4.148   4.053  16.925  0.00  0.00    +0.000 A 
ATOM     11  N   UNL     1       4.184   5.169  17.726  0.00  0.00    +0.000 N 
ATOM     12  C   UNL     1       5.355   5.921  18.124  0.00  0.00    +0.000 C 
ATOM     13  C   UNL     1       6.603   5.079  18.344  0.00  0.00    +0.000 C 
ATOM     14  C   UNL     1       7.323   4.715  17.049  0.00  0.00    +0.000 C 
ATOM     15  C   UNL     1       6.415   4.416  15.856  0.00  0.00    +0.000 C 
ATOM     16  C   UNL     1       5.287   3.446  16.185  0.00  0.00    +0.000 C 
ENDBRANCH   4   7
BRANCH   1  19
ATOM     17  O   UNL     1      -0.974  10.432  19.722  0.00  0.00    +0.000 OA
ATOM     18  C   UNL     1      -0.237  10.612  20.685  0.00  0.00    +0.000 C 
ATOM     19  N   UNL     1       0.865   9.855  21.036  0.00  0.00    +0.000 N 
ATOM     20  H   UNL     1       1.246   9.990  21.962  0.00  0.00    +0.000 HD
BRANCH  18  21
ATOM     21  C   UNL     1      -0.577  11.711  21.616  0.00  0.00    +0.000 A 
ATOM     22  C   UNL     1      -1.582  11.475  22.562  0.00  0.00    +0.000 A 
ATOM     23  C   UNL     1      -2.002  12.499  23.409  0.00  0.00    +0.000 A 
ATOM     24  C   UNL     1      -1.429  13.775  23.313  0.00  0.00    +0.000 A 
ATOM     25  C   UNL     1      -0.409  14.000  22.372  0.00  0.00    +0.000 A 
ATOM     26  C   UNL     1       0.015  12.976  21.523  0.00  0.00    +0.000 A 
BRANCH  24  27
ATOM     27  C   UNL     1      -1.916  14.907  24.184  0.00  0.00    +0.000 C 
ATOM     28  F   UNL     1      -2.751  15.770  23.540  0.00  0.00    +0.000 F 
ATOM     29  F   UNL     1      -2.602  14.465  25.274  0.00  0.00    +0.000 F 
ATOM     30  F   UNL     1      -0.893  15.666  24.666  0.00  0.00    +0.000 F 
ENDBRANCH  24  27
ENDBRANCH  18  21
ENDBRANCH   1  19
TORSDOF 4
ENDMDL
MODEL 8
REMARK VINA RESULT:      -8.1      1.566      2.476
REMARK  Name = 
REMARK  4 active torsions:
REMARK  status: ('A' for Active; 'I' for Inactive)
REMARK    1  A    between atoms: C_2  and  C_20
REMARK    2  A    between atoms: N_3  and  C_4
REMARK    3  A    between atoms: C_7  and  C_8
REMARK    4  A    between atoms: C_23  and  C_24
REMARK                            x       y       z     vdW  Elec       q    Type
REMARK                         _______ _______ _______ _____ _____    ______ ____
ROOT
ATOM      1  C   UNL     1       1.217   8.935  20.017  0.00  0.00    +0.000 A 
ATOM      2  C   UNL     1       1.512   9.004  18.656  0.00  0.00    +0.000 A 
ATOM      3  C   UNL     1       2.111   7.925  18.000  0.00  0.00    +0.000 A 
ATOM      4  C   UNL     1       2.433   6.759  18.702  0.00  0.00    +0.000 A 
ATOM      5  C   UNL     1       2.192   6.723  20.082  0.00  0.00    +0.000 A 
ATOM      6  C   UNL     1       1.577   7.794  20.733  0.00  0.00    +0.000 A 
ENDROOT
BRANCH   4   7
ATOM      7  C   UNL     1       3.033   5.633  17.985  0.00  0.00    +0.000 A 
ATOM      8  N   UNL     1       2.469   4.454  17.809  0.00  0.00    +0.000 NA
ATOM      9  N   UNL     1       3.286   3.686  17.025  0.00  0.00    +0.000 NA
ATOM     10  C   UNL     1       4.368   4.389  16.746  0.00  0.00    +0.000 A 
ATOM     11  N   UNL     1       4.286   5.593  17.402  0.00  0.00    +0.000 N 
ATOM     12  C   UNL     1       5.312   6.608  17.498  0.00  0.00    +0.000 C 
ATOM     13  C   UNL     1       6.732   6.067  17.576  0.00  0.00    +0.000 C 
ATOM     14  C   UNL     1       7.303   5.669  16.218  0.00  0.00    +0.000 C 
ATOM     15  C   UNL     1       6.308   5.032  15.249  0.00  0.00    +0.000 C 
ATOM     16  C   UNL     1       5.483   3.917  15.880  0.00  0.00    +0.000 C 
ENDBRANCH   4   7
BRANCH   1  19
ATOM     17  O   UNL     1       1.597  11.835  19.756  0.00  0.00    +0.000 OA
ATOM     18  C   UNL     1       0.849  11.320  20.580  0.00  0.00    +0.000 C 
ATOM     19  N   UNL     1       0.586   9.972  20.729  0.00  0.00    +0.000 N 
ATOM     20  H   UNL     1      -0.204   9.712  21.301  0.00  0.00    +0.000 HD
BRANCH  18  21
ATOM     21  C   UNL     1       0.091  12.219  21.478  0.00  0.00    +0.000 A 
ATOM     22  C   UNL     1       0.436  13.576  21.484  0.00  0.00    +0.000 A 
ATOM     23  C   UNL     1      -0.186  14.454  22.370  0.00  0.00    +0.000 A 
ATOM     24  C   UNL     1      -1.155  13.984  23.267  0.00  0.00    +0.000 A 
ATOM     25  C   UNL     1      -1.508  12.623  23.244  0.00  0.00    +0.000 A 
ATOM     26  C   UNL     1      -0.887  11.741  22.357  0.00  0.00    +0.000 A 
BRANCH  24  27
ATOM     27  C   UNL     1      -1.793  14.912  24.271  0.00  0.00    +0.000 C 
ATOM     28  F   UNL     1      -2.069  16.150  23.772  0.00  0.00    +0.000 F 
ATOM     29  F   UNL     1      -2.974  14.429  24.747  0.00  0.00    +0.000 F 
ATOM     30  F   UNL     1      -1.004  15.116  25.362  0.00  0.00    +0.000 F 
ENDBRANCH  24  27
ENDBRANCH  18  21
ENDBRANCH   1  19
TORSDOF 4
ENDMDL
MODEL 9
REMARK VINA RESULT:      -8.1      1.751      2.586
REMARK  Name = 
REMARK  4 active torsions:
REMARK  status: ('A' for Active; 'I' for Inactive)
REMARK    1  A    between atoms: C_2  and  C_20
REMARK    2  A    between atoms: N_3  and  C_4
REMARK    3  A    between atoms: C_7  and  C_8
REMARK    4  A    between atoms: C_23  and  C_24
REMARK                            x       y       z     vdW  Elec       q    Type
REMARK                         _______ _______ _______ _____ _____    ______ ____
ROOT
ATOM      1  C   UNL     1       1.429   8.950  19.842  0.00  0.00    +0.000 A 
ATOM      2  C   UNL     1       1.722   8.979  18.479  0.00  0.00    +0.000 A 
ATOM      3  C   UNL     1       2.274   7.863  17.844  0.00  0.00    +0.000 A 
ATOM      4  C   UNL     1       2.550   6.699  18.568  0.00  0.00    +0.000 A 
ATOM      5  C   UNL     1       2.311   6.701  19.949  0.00  0.00    +0.000 A 
ATOM      6  C   UNL     1       1.743   7.809  20.580  0.00  0.00    +0.000 A 
ENDROOT
BRANCH   4   7
ATOM      7  C   UNL     1       3.100   5.535  17.873  0.00  0.00    +0.000 A 
ATOM      8  N   UNL     1       2.499   4.367  17.748  0.00  0.00    +0.000 NA
ATOM      9  N   UNL     1       3.276   3.552  16.969  0.00  0.00    +0.000 NA
ATOM     10  C   UNL     1       4.369   4.216  16.641  0.00  0.00    +0.000 A 
ATOM     11  N   UNL     1       4.336   5.442  17.261  0.00  0.00    +0.000 N 
ATOM     12  C   UNL     1       5.392   6.430  17.299  0.00  0.00    +0.000 C 
ATOM     13  C   UNL     1       6.798   5.852  17.359  0.00  0.00    +0.000 C 
ATOM     14  C   UNL     1       7.323   5.396  16.001  0.00  0.00    +0.000 C 
ATOM     15  C   UNL     1       6.287   4.757  15.077  0.00  0.00    +0.000 C 
ATOM     16  C   UNL     1       5.447   3.687  15.764  0.00  0.00    +0.000 C 
ENDBRANCH   4   7
BRANCH   1  19
ATOM     17  O   UNL     1      -0.593   8.879  21.971  0.00  0.00    +0.000 OA
ATOM     18  C   UNL     1      -0.139   9.916  21.500  0.00  0.00    +0.000 C 
ATOM     19  N   UNL     1       0.844  10.025  20.534  0.00  0.00    +0.000 N 
ATOM     20  H   UNL     1       1.265  10.933  20.399  0.00  0.00    +0.000 HD
BRANCH  18  21
ATOM     21  C   UNL     1      -0.633  11.197  22.052  0.00  0.00    +0.000 A 
ATOM     22  C   UNL     1       0.002  12.374  21.636  0.00  0.00    +0.000 A 
ATOM     23  C   UNL     1      -0.365  13.601  22.186  0.00  0.00    +0.000 A 
ATOM     24  C   UNL     1      -1.366  13.665  23.166  0.00  0.00    +0.000 A 
ATOM     25  C   UNL     1      -2.010  12.482  23.567  0.00  0.00    +0.000 A 
ATOM     26  C   UNL     1      -1.645  11.250  23.017  0.00  0.00    +0.000 A 
BRANCH  24  27
ATOM     27  C   UNL     1      -1.731  14.979  23.811  0.00  0.00    +0.000 C 
ATOM     28  F   UNL     1      -3.062  15.265  23.752  0.00  0.00    +0.000 F 
ATOM     29  F   UNL     1      -1.399  15.019  25.131  0.00  0.00    +0.000 F 
ATOM     30  F   UNL     1      -1.095  16.034  23.232  0.00  0.00    +0.000 F 
ENDBRANCH  24  27
ENDBRANCH  18  21
ENDBRANCH   1  19
TORSDOF 4
ENDMDL
