MODEL 1
REMARK VINA RESULT:      -9.5      0.000      0.000
REMARK  Name = 
REMARK  4 active torsions:
REMARK  status: ('A' for Active; 'I' for Inactive)
REMARK    1  A    between atoms: C_1  and  O_2
REMARK    2  A    between atoms: O_2  and  C_3
REMARK    3  A    between atoms: C_9  and  C_10
REMARK    4  A    between atoms: C_14  and  C_16
REMARK                            x       y       z     vdW  Elec       q    Type
REMARK                         _______ _______ _______ _____ _____    ______ ____
ROOT
ATOM      1  C   UNL     1       0.023   9.644  19.403  0.00  0.00    +0.000 C 
ATOM      2  C   UNL     1       0.333   9.210  20.649  0.00  0.00    +0.000 C 
ATOM      3  C   UNL     1       1.493   8.313  21.029  0.00  0.00    +0.000 C 
ATOM      4  N   UNL     1       1.953   7.590  19.861  0.00  0.00    +0.000 N 
ATOM      5  C   UNL     1       2.221   6.190  19.974  0.00  0.00    +0.000 C 
ATOM      6  O   UNL     1       2.405   5.646  21.058  0.00  0.00    +0.000 OA
ATOM      7  C   UNL     1       2.203   8.476  18.699  0.00  0.00    +0.000 C 
ATOM      8  C   UNL     1       0.929   9.265  18.254  0.00  0.00    +0.000 C 
ENDROOT
BRANCH   5   9
ATOM      9  C   UNL     1       2.206   5.382  18.668  0.00  0.00    +0.000 C 
ATOM     10  C   UNL     1       2.351   3.939  19.073  0.00  0.00    +0.000 C 
ATOM     11  C   UNL     1       3.789   3.592  19.599  0.00  0.00    +0.000 C 
ATOM     12  C   UNL     1       4.894   4.652  19.377  0.00  0.00    +0.000 C 
ATOM     13  C   UNL     1       4.785   4.892  17.889  0.00  0.00    +0.000 C 
ATOM     14  C   UNL     1       4.494   3.476  17.348  0.00  0.00    +0.000 C 
ATOM     15  C   UNL     1       4.168   2.544  18.544  0.00  0.00    +0.000 C 
ATOM     16  C   UNL     1       2.867   1.882  18.120  0.00  0.00    +0.000 C 
ATOM     17  C   UNL     1       2.188   3.181  17.757  0.00  0.00    +0.000 C 
ATOM     18  C   UNL     1       3.125   3.974  16.852  0.00  0.00    +0.000 C 
ATOM     19  C   UNL     1       3.328   5.381  17.553  0.00  0.00    +0.000 C 
ENDBRANCH   5   9
BRANCH   1  26
ATOM     20  C   UNL     1      -3.272  10.191  15.877  0.00  0.00    +0.000 A 
ATOM     21  C   UNL     1      -4.173  11.189  16.221  0.00  0.00    +0.000 A 
ATOM     22  C   UNL     1      -4.039  11.894  17.422  0.00  0.00    +0.000 A 
ATOM     23  C   UNL     1      -2.971  11.567  18.266  0.00  0.00    +0.000 A 
ATOM     24  N   UNL     1      -2.634  12.111  19.479  0.00  0.00    +0.000 N 
ATOM     25  C   UNL     1      -1.521  11.488  19.992  0.00  0.00    +0.000 A 
ATOM     26  C   UNL     1      -1.110  10.508  19.108  0.00  0.00    +0.000 A 
ATOM     27  C   UNL     1      -2.027  10.562  17.981  0.00  0.00    +0.000 A 
ATOM     28  C   UNL     1      -2.206   9.870  16.756  0.00  0.00    +0.000 A 
ATOM     29  H   UNL     1      -3.144  12.855  19.930  0.00  0.00    +0.000 HD
BRANCH  20  31
ATOM     30  C   UNL     1      -3.965  10.022  13.602  0.00  0.00    +0.000 C 
ATOM     31  O   UNL     1      -3.318   9.440  14.734  0.00  0.00    +0.000 OA
ENDBRANCH  20  31
ENDBRANCH   1  26
TORSDOF 3
ENDMDL
MODEL 2
REMARK VINA RESULT:      -9.1      3.034      9.038
REMARK  Name = 
REMARK  4 active torsions:
REMARK  status: ('A' for Active; 'I' for Inactive)
REMARK    1  A    between atoms: C_1  and  O_2
REMARK    2  A    between atoms: O_2  and  C_3
REMARK    3  A    between atoms: C_9  and  C_10
REMARK    4  A    between atoms: C_14  and  C_16
REMARK                            x       y       z     vdW  Elec       q    Type
REMARK                         _______ _______ _______ _____ _____    ______ ____
ROOT
ATOM      1  C   UNL     1       2.199   7.882  18.740  0.00  0.00    +0.000 C 
ATOM      2  C   UNL     1       1.758   7.806  20.020  0.00  0.00    +0.000 C 
ATOM      3  C   UNL     1       0.849   8.795  20.720  0.00  0.00    +0.000 C 
ATOM      4  N   UNL     1       0.888  10.067  20.028  0.00  0.00    +0.000 N 
ATOM      5  C   UNL     1       1.013  11.269  20.793  0.00  0.00    +0.000 C 
ATOM      6  O   UNL     1       0.757  11.309  21.991  0.00  0.00    +0.000 OA
ATOM      7  C   UNL     1       0.659   9.934  18.569  0.00  0.00    +0.000 C 
ATOM      8  C   UNL     1       1.719   9.022  17.872  0.00  0.00    +0.000 C 
ENDROOT
BRANCH   5   9
ATOM      9  C   UNL     1       1.549  12.501  20.049  0.00  0.00    +0.000 C 
ATOM     10  C   UNL     1       1.122  13.693  20.865  0.00  0.00    +0.000 C 
ATOM     11  C   UNL     1      -0.422  13.968  20.785  0.00  0.00    +0.000 C 
ATOM     12  C   UNL     1      -1.220  13.193  19.709  0.00  0.00    +0.000 C 
ATOM     13  C   UNL     1      -0.435  13.519  18.461  0.00  0.00    +0.000 C 
ATOM     14  C   UNL     1      -0.047  14.995  18.691  0.00  0.00    +0.000 C 
ATOM     15  C   UNL     1      -0.369  15.370  20.162  0.00  0.00    +0.000 C 
ATOM     16  C   UNL     1       0.926  16.000  20.649  0.00  0.00    +0.000 C 
ATOM     17  C   UNL     1       1.797  14.868  20.160  0.00  0.00    +0.000 C 
ATOM     18  C   UNL     1       1.434  14.577  18.707  0.00  0.00    +0.000 C 
ATOM     19  C   UNL     1       1.052  13.040  18.649  0.00  0.00    +0.000 C 
ENDBRANCH   5   9
BRANCH   1  26
ATOM     20  C   UNL     1       2.627   3.046  18.597  0.00  0.00    +0.000 A 
ATOM     21  C   UNL     1       3.666   2.687  17.750  0.00  0.00    +0.000 A 
ATOM     22  C   UNL     1       4.434   3.661  17.105  0.00  0.00    +0.000 A 
ATOM     23  C   UNL     1       4.129   5.008  17.338  0.00  0.00    +0.000 A 
ATOM     24  N   UNL     1       4.734   6.129  16.829  0.00  0.00    +0.000 N 
ATOM     25  C   UNL     1       4.113   7.263  17.296  0.00  0.00    +0.000 A 
ATOM     26  C   UNL     1       3.073   6.893  18.129  0.00  0.00    +0.000 A 
ATOM     27  C   UNL     1       3.086   5.440  18.178  0.00  0.00    +0.000 A 
ATOM     28  C   UNL     1       2.330   4.418  18.806  0.00  0.00    +0.000 A 
ATOM     29  H   UNL     1       5.516   6.114  16.192  0.00  0.00    +0.000 HD
BRANCH  20  31
ATOM     30  C   UNL     1       1.471   2.511  20.612  0.00  0.00    +0.000 C 
ATOM     31  O   UNL     1       1.813   2.174  19.268  0.00  0.00    +0.000 OA
ENDBRANCH  20  31
ENDBRANCH   1  26
TORSDOF 3
ENDMDL
MODEL 3
REMARK VINA RESULT:      -8.7      2.371      3.439
REMARK  Name = 
REMARK  4 active torsions:
REMARK  status: ('A' for Active; 'I' for Inactive)
REMARK    1  A    between atoms: C_1  and  O_2
REMARK    2  A    between atoms: O_2  and  C_3
REMARK    3  A    between atoms: C_9  and  C_10
REMARK    4  A    between atoms: C_14  and  C_16
REMARK                            x       y       z     vdW  Elec       q    Type
REMARK                         _______ _______ _______ _____ _____    ______ ____
ROOT
ATOM      1  C   UNL     1       0.234   9.695  19.809  0.00  0.00    +0.000 C 
ATOM      2  C   UNL     1       0.519   9.228  21.049  0.00  0.00    +0.000 C 
ATOM      3  C   UNL     1       1.555   8.179  21.401  0.00  0.00    +0.000 C 
ATOM      4  N   UNL     1       1.871   7.393  20.227  0.00  0.00    +0.000 N 
ATOM      5  C   UNL     1       1.944   5.970  20.344  0.00  0.00    +0.000 C 
ATOM      6  O   UNL     1       2.084   5.411  21.426  0.00  0.00    +0.000 OA
ATOM      7  C   UNL     1       2.206   8.230  19.049  0.00  0.00    +0.000 C 
ATOM      8  C   UNL     1       1.041   9.187  18.637  0.00  0.00    +0.000 C 
ENDROOT
BRANCH   5   9
ATOM      9  C   UNL     1       1.775   5.166  19.046  0.00  0.00    +0.000 C 
ATOM     10  C   UNL     1       2.214   3.762  19.370  0.00  0.00    +0.000 C 
ATOM     11  C   UNL     1       3.765   3.637  19.575  0.00  0.00    +0.000 C 
ATOM     12  C   UNL     1       4.629   4.852  19.159  0.00  0.00    +0.000 C 
ATOM     13  C   UNL     1       4.176   5.069  17.735  0.00  0.00    +0.000 C 
ATOM     14  C   UNL     1       3.991   3.624  17.224  0.00  0.00    +0.000 C 
ATOM     15  C   UNL     1       4.066   2.656  18.434  0.00  0.00    +0.000 C 
ATOM     16  C   UNL     1       2.817   1.804  18.271  0.00  0.00    +0.000 C 
ATOM     17  C   UNL     1       1.892   2.984  18.095  0.00  0.00    +0.000 C 
ATOM     18  C   UNL     1       2.491   3.909  17.039  0.00  0.00    +0.000 C 
ATOM     19  C   UNL     1       2.625   5.331  17.724  0.00  0.00    +0.000 C 
ENDBRANCH   5   9
BRANCH   1  26
ATOM     20  C   UNL     1      -2.615  12.703  22.344  0.00  0.00    +0.000 A 
ATOM     21  C   UNL     1      -3.344  13.507  21.478  0.00  0.00    +0.000 A 
ATOM     22  C   UNL     1      -3.220  13.366  20.092  0.00  0.00    +0.000 A 
ATOM     23  C   UNL     1      -2.344  12.390  19.602  0.00  0.00    +0.000 A 
ATOM     24  N   UNL     1      -2.058  12.065  18.300  0.00  0.00    +0.000 N 
ATOM     25  C   UNL     1      -1.123  11.059  18.251  0.00  0.00    +0.000 A 
ATOM     26  C   UNL     1      -0.775  10.708  19.541  0.00  0.00    +0.000 A 
ATOM     27  C   UNL     1      -1.571  11.548  20.422  0.00  0.00    +0.000 A 
ATOM     28  C   UNL     1      -1.724  11.731  21.820  0.00  0.00    +0.000 A 
ATOM     29  H   UNL     1      -2.471  12.515  17.497  0.00  0.00    +0.000 HD
BRANCH  20  31
ATOM     30  C   UNL     1      -3.920  12.526  24.331  0.00  0.00    +0.000 C 
ATOM     31  O   UNL     1      -2.658  12.766  23.710  0.00  0.00    +0.000 OA
ENDBRANCH  20  31
ENDBRANCH   1  26
TORSDOF 3
ENDMDL
MODEL 4
REMARK VINA RESULT:      -8.7      3.629      8.815
REMARK  Name = 
REMARK  4 active torsions:
REMARK  status: ('A' for Active; 'I' for Inactive)
REMARK    1  A    between atoms: C_1  and  O_2
REMARK    2  A    between atoms: O_2  and  C_3
REMARK    3  A    between atoms: C_9  and  C_10
REMARK    4  A    between atoms: C_14  and  C_16
REMARK                            x       y       z     vdW  Elec       q    Type
REMARK                         _______ _______ _______ _____ _____    ______ ____
ROOT
ATOM      1  C   UNL     1       1.827   8.357  18.866  0.00  0.00    +0.000 C 
ATOM      2  C   UNL     1       1.583   8.507  20.191  0.00  0.00    +0.000 C 
ATOM      3  C   UNL     1       0.690   9.552  20.830  0.00  0.00    +0.000 C 
ATOM      4  N   UNL     1       0.504  10.659  19.916  0.00  0.00    +0.000 N 
ATOM      5  C   UNL     1       0.618  11.995  20.413  0.00  0.00    +0.000 C 
ATOM      6  O   UNL     1       0.533  12.256  21.608  0.00  0.00    +0.000 OA
ATOM      7  C   UNL     1       0.083  10.222  18.563  0.00  0.00    +0.000 C 
ATOM      8  C   UNL     1       1.117   9.265  17.888  0.00  0.00    +0.000 C 
ENDROOT
BRANCH   5   9
ATOM      9  C   UNL     1       0.917  13.088  19.376  0.00  0.00    +0.000 C 
ATOM     10  C   UNL     1       2.417  13.136  19.248  0.00  0.00    +0.000 C 
ATOM     11  C   UNL     1       3.120  13.750  20.511  0.00  0.00    +0.000 C 
ATOM     12  C   UNL     1       2.212  14.450  21.550  0.00  0.00    +0.000 C 
ATOM     13  C   UNL     1       1.463  15.432  20.680  0.00  0.00    +0.000 C 
ATOM     14  C   UNL     1       2.552  15.888  19.685  0.00  0.00    +0.000 C 
ATOM     15  C   UNL     1       3.784  14.957  19.835  0.00  0.00    +0.000 C 
ATOM     16  C   UNL     1       4.072  14.534  18.404  0.00  0.00    +0.000 C 
ATOM     17  C   UNL     1       2.647  14.131  18.112  0.00  0.00    +0.000 C 
ATOM     18  C   UNL     1       1.729  15.271  18.541  0.00  0.00    +0.000 C 
ATOM     19  C   UNL     1       0.691  14.642  19.560  0.00  0.00    +0.000 C 
ENDBRANCH   5   9
BRANCH   1  26
ATOM     20  C   UNL     1       2.209   3.516  18.988  0.00  0.00    +0.000 A 
ATOM     21  C   UNL     1       3.254   3.103  18.173  0.00  0.00    +0.000 A 
ATOM     22  C   UNL     1       4.038   4.034  17.485  0.00  0.00    +0.000 A 
ATOM     23  C   UNL     1       3.744   5.394  17.642  0.00  0.00    +0.000 A 
ATOM     24  N   UNL     1       4.364   6.480  17.080  0.00  0.00    +0.000 N 
ATOM     25  C   UNL     1       3.749   7.643  17.479  0.00  0.00    +0.000 A 
ATOM     26  C   UNL     1       2.698   7.329  18.318  0.00  0.00    +0.000 A 
ATOM     27  C   UNL     1       2.696   5.880  18.446  0.00  0.00    +0.000 A 
ATOM     28  C   UNL     1       1.923   4.900  19.120  0.00  0.00    +0.000 A 
ATOM     29  H   UNL     1       5.153   6.424  16.453  0.00  0.00    +0.000 HD
BRANCH  20  31
ATOM     30  C   UNL     1       1.341   2.868  21.111  0.00  0.00    +0.000 C 
ATOM     31  O   UNL     1       1.380   2.690  19.695  0.00  0.00    +0.000 OA
ENDBRANCH  20  31
ENDBRANCH   1  26
TORSDOF 3
ENDMDL
MODEL 5
REMARK VINA RESULT:      -8.6      2.586      3.675
REMARK  Name = 
REMARK  4 active torsions:
REMARK  status: ('A' for Active; 'I' for Inactive)
REMARK    1  A    between atoms: C_1  and  O_2
REMARK    2  A    between atoms: O_2  and  C_3
REMARK    3  A    between atoms: C_9  and  C_10
REMARK    4  A    between atoms: C_14  and  C_16
REMARK                            x       y       z     vdW  Elec       q    Type
REMARK                         _______ _______ _______ _____ _____    ______ ____
ROOT
ATOM      1  C   UNL     1       1.025   9.483  19.388  0.00  0.00    +0.000 C 
ATOM      2  C   UNL     1       0.993   9.027  20.665  0.00  0.00    +0.000 C 
ATOM      3  C   UNL     1       1.732   7.822  21.211  0.00  0.00    +0.000 C 
ATOM      4  N   UNL     1       2.096   6.940  20.123  0.00  0.00    +0.000 N 
ATOM      5  C   UNL     1       1.878   5.534  20.267  0.00  0.00    +0.000 C 
ATOM      6  O   UNL     1       1.715   5.009  21.363  0.00  0.00    +0.000 OA
ATOM      7  C   UNL     1       2.787   7.647  19.017  0.00  0.00    +0.000 C 
ATOM      8  C   UNL     1       1.916   8.782  18.388  0.00  0.00    +0.000 C 
ENDROOT
BRANCH   5   9
ATOM      9  C   UNL     1       1.792   4.717  18.969  0.00  0.00    +0.000 C 
ATOM     10  C   UNL     1       2.270   3.333  19.320  0.00  0.00    +0.000 C 
ATOM     11  C   UNL     1       3.815   3.268  19.589  0.00  0.00    +0.000 C 
ATOM     12  C   UNL     1       4.649   4.512  19.201  0.00  0.00    +0.000 C 
ATOM     13  C   UNL     1       4.247   4.704  17.757  0.00  0.00    +0.000 C 
ATOM     14  C   UNL     1       4.138   3.251  17.250  0.00  0.00    +0.000 C 
ATOM     15  C   UNL     1       4.199   2.292  18.469  0.00  0.00    +0.000 C 
ATOM     16  C   UNL     1       2.991   1.393  18.260  0.00  0.00    +0.000 C 
ATOM     17  C   UNL     1       2.031   2.537  18.039  0.00  0.00    +0.000 C 
ATOM     18  C   UNL     1       2.636   3.477  17.001  0.00  0.00    +0.000 C 
ATOM     19  C   UNL     1       2.689   4.908  17.681  0.00  0.00    +0.000 C 
ENDBRANCH   5   9
BRANCH   1  26
ATOM     20  C   UNL     1       1.400  14.318  19.663  0.00  0.00    +0.000 A 
ATOM     21  C   UNL     1       0.381  14.914  18.934  0.00  0.00    +0.000 A 
ATOM     22  C   UNL     1      -0.581  14.138  18.278  0.00  0.00    +0.000 A 
ATOM     23  C   UNL     1      -0.489  12.745  18.379  0.00  0.00    +0.000 A 
ATOM     24  N   UNL     1      -1.304  11.786  17.834  0.00  0.00    +0.000 N 
ATOM     25  C   UNL     1      -0.851  10.529  18.158  0.00  0.00    +0.000 A 
ATOM     26  C   UNL     1       0.289  10.650  18.930  0.00  0.00    +0.000 A 
ATOM     27  C   UNL     1       0.522  12.076  19.095  0.00  0.00    +0.000 A 
ATOM     28  C   UNL     1       1.478  12.902  19.738  0.00  0.00    +0.000 A 
ATOM     29  H   UNL     1      -2.114  11.984  17.265  0.00  0.00    +0.000 HD
BRANCH  20  31
ATOM     30  C   UNL     1       3.228  14.206  21.189  0.00  0.00    +0.000 C 
ATOM     31  O   UNL     1       2.391  14.982  20.332  0.00  0.00    +0.000 OA
ENDBRANCH  20  31
ENDBRANCH   1  26
TORSDOF 3
ENDMDL
MODEL 6
REMARK VINA RESULT:      -8.5      3.540      9.196
REMARK  Name = 
REMARK  4 active torsions:
REMARK  status: ('A' for Active; 'I' for Inactive)
REMARK    1  A    between atoms: C_1  and  O_2
REMARK    2  A    between atoms: O_2  and  C_3
REMARK    3  A    between atoms: C_9  and  C_10
REMARK    4  A    between atoms: C_14  and  C_16
REMARK                            x       y       z     vdW  Elec       q    Type
REMARK                         _______ _______ _______ _____ _____    ______ ____
ROOT
ATOM      1  C   UNL     1       2.221   7.503  18.779  0.00  0.00    +0.000 C 
ATOM      2  C   UNL     1       1.773   7.608  20.054  0.00  0.00    +0.000 C 
ATOM      3  C   UNL     1       0.965   8.752  20.634  0.00  0.00    +0.000 C 
ATOM      4  N   UNL     1       1.130   9.931  19.811  0.00  0.00    +0.000 N 
ATOM      5  C   UNL     1       1.374  11.190  20.444  0.00  0.00    +0.000 C 
ATOM      6  O   UNL     1       1.121  11.384  21.629  0.00  0.00    +0.000 OA
ATOM      7  C   UNL     1       0.891   9.665  18.372  0.00  0.00    +0.000 C 
ATOM      8  C   UNL     1       1.857   8.584  17.788  0.00  0.00    +0.000 C 
ENDROOT
BRANCH   5   9
ATOM      9  C   UNL     1       2.029  12.277  19.580  0.00  0.00    +0.000 C 
ATOM     10  C   UNL     1       2.256  13.452  20.494  0.00  0.00    +0.000 C 
ATOM     11  C   UNL     1       0.924  14.181  20.895  0.00  0.00    +0.000 C 
ATOM     12  C   UNL     1      -0.353  13.792  20.113  0.00  0.00    +0.000 C 
ATOM     13  C   UNL     1       0.096  13.996  18.685  0.00  0.00    +0.000 C 
ATOM     14  C   UNL     1       0.978  15.258  18.794  0.00  0.00    +0.000 C 
ATOM     15  C   UNL     1       1.231  15.559  20.295  0.00  0.00    +0.000 C 
ATOM     16  C   UNL     1       2.741  15.722  20.363  0.00  0.00    +0.000 C 
ATOM     17  C   UNL     1       3.031  14.438  19.623  0.00  0.00    +0.000 C 
ATOM     18  C   UNL     1       2.189  14.419  18.351  0.00  0.00    +0.000 C 
ATOM     19  C   UNL     1       1.343  13.080  18.403  0.00  0.00    +0.000 C 
ENDBRANCH   5   9
BRANCH   1  26
ATOM     20  C   UNL     1       6.658   6.677  16.983  0.00  0.00    +0.000 A 
ATOM     21  C   UNL     1       6.829   5.319  16.751  0.00  0.00    +0.000 A 
ATOM     22  C   UNL     1       5.796   4.411  17.005  0.00  0.00    +0.000 A 
ATOM     23  C   UNL     1       4.583   4.909  17.497  0.00  0.00    +0.000 A 
ATOM     24  N   UNL     1       3.438   4.225  17.816  0.00  0.00    +0.000 N 
ATOM     25  C   UNL     1       2.479   5.090  18.287  0.00  0.00    +0.000 A 
ATOM     26  C   UNL     1       2.993   6.372  18.287  0.00  0.00    +0.000 A 
ATOM     27  C   UNL     1       4.345   6.271  17.761  0.00  0.00    +0.000 A 
ATOM     28  C   UNL     1       5.423   7.153  17.495  0.00  0.00    +0.000 A 
ATOM     29  H   UNL     1       3.328   3.226  17.727  0.00  0.00    +0.000 HD
BRANCH  20  31
ATOM     30  C   UNL     1       7.889   8.515  17.870  0.00  0.00    +0.000 C 
ATOM     31  O   UNL     1       7.604   7.643  16.777  0.00  0.00    +0.000 OA
ENDBRANCH  20  31
ENDBRANCH   1  26
TORSDOF 3
ENDMDL
MODEL 7
REMARK VINA RESULT:      -8.5      5.220      7.995
REMARK  Name = 
REMARK  4 active torsions:
REMARK  status: ('A' for Active; 'I' for Inactive)
REMARK    1  A    between atoms: C_1  and  O_2
REMARK    2  A    between atoms: O_2  and  C_3
REMARK    3  A    between atoms: C_9  and  C_10
REMARK    4  A    between atoms: C_14  and  C_16
REMARK                            x       y       z     vdW  Elec       q    Type
REMARK                         _______ _______ _______ _____ _____    ______ ____
ROOT
ATOM      1  C   UNL     1       6.008   5.798  16.313  0.00  0.00    +0.000 C 
ATOM      2  C   UNL     1       5.128   6.829  16.349  0.00  0.00    +0.000 C 
ATOM      3  C   UNL     1       4.365   7.321  17.562  0.00  0.00    +0.000 C 
ATOM      4  N   UNL     1       4.319   6.278  18.565  0.00  0.00    +0.000 N 
ATOM      5  C   UNL     1       3.080   6.005  19.225  0.00  0.00    +0.000 C 
ATOM      6  O   UNL     1       2.155   6.809  19.233  0.00  0.00    +0.000 OA
ATOM      7  C   UNL     1       5.655   5.704  18.859  0.00  0.00    +0.000 C 
ATOM      8  C   UNL     1       6.332   5.072  17.599  0.00  0.00    +0.000 C 
ENDROOT
BRANCH   5   9
ATOM      9  C   UNL     1       2.941   4.620  19.874  0.00  0.00    +0.000 C 
ATOM     10  C   UNL     1       3.570   3.647  18.911  0.00  0.00    +0.000 C 
ATOM     11  C   UNL     1       2.716   3.434  17.611  0.00  0.00    +0.000 C 
ATOM     12  C   UNL     1       1.276   4.001  17.615  0.00  0.00    +0.000 C 
ATOM     13  C   UNL     1       0.713   3.383  18.873  0.00  0.00    +0.000 C 
ATOM     14  C   UNL     1       1.340   1.972  18.856  0.00  0.00    +0.000 C 
ATOM     15  C   UNL     1       2.443   1.931  17.765  0.00  0.00    +0.000 C 
ATOM     16  C   UNL     1       3.640   1.359  18.507  0.00  0.00    +0.000 C 
ATOM     17  C   UNL     1       3.530   2.320  19.666  0.00  0.00    +0.000 C 
ATOM     18  C   UNL     1       2.086   2.315  20.157  0.00  0.00    +0.000 C 
ATOM     19  C   UNL     1       1.595   3.821  20.099  0.00  0.00    +0.000 C 
ENDBRANCH   5   9
BRANCH   1  26
ATOM     20  C   UNL     1       5.000   3.418  12.200  0.00  0.00    +0.000 A 
ATOM     21  C   UNL     1       6.120   3.393  11.381  0.00  0.00    +0.000 A 
ATOM     22  C   UNL     1       7.323   3.975  11.793  0.00  0.00    +0.000 A 
ATOM     23  C   UNL     1       7.369   4.580  13.055  0.00  0.00    +0.000 A 
ATOM     24  N   UNL     1       8.421   5.206  13.672  0.00  0.00    +0.000 N 
ATOM     25  C   UNL     1       8.040   5.685  14.903  0.00  0.00    +0.000 A 
ATOM     26  C   UNL     1       6.709   5.376  15.110  0.00  0.00    +0.000 A 
ATOM     27  C   UNL     1       6.270   4.647  13.931  0.00  0.00    +0.000 A 
ATOM     28  C   UNL     1       5.069   4.050  13.469  0.00  0.00    +0.000 A 
ATOM     29  H   UNL     1       9.340   5.308  13.267  0.00  0.00    +0.000 HD
BRANCH  20  31
ATOM     30  C   UNL     1       3.247   3.192  10.600  0.00  0.00    +0.000 C 
ATOM     31  O   UNL     1       3.778   2.888  11.890  0.00  0.00    +0.000 OA
ENDBRANCH  20  31
ENDBRANCH   1  26
TORSDOF 3
ENDMDL
MODEL 8
REMARK VINA RESULT:      -8.4      5.457      8.711
REMARK  Name = 
REMARK  4 active torsions:
REMARK  status: ('A' for Active; 'I' for Inactive)
REMARK    1  A    between atoms: C_1  and  O_2
REMARK    2  A    between atoms: O_2  and  C_3
REMARK    3  A    between atoms: C_9  and  C_10
REMARK    4  A    between atoms: C_14  and  C_16
REMARK                            x       y       z     vdW  Elec       q    Type
REMARK                         _______ _______ _______ _____ _____    ______ ____
ROOT
ATOM      1  C   UNL     1       8.295   8.582  18.459  0.00  0.00    +0.000 C 
ATOM      2  C   UNL     1       8.728   7.495  19.144  0.00  0.00    +0.000 C 
ATOM      3  C   UNL     1       8.167   6.090  19.053  0.00  0.00    +0.000 C 
ATOM      4  N   UNL     1       6.824   6.136  18.515  0.00  0.00    +0.000 N 
ATOM      5  C   UNL     1       5.800   5.357  19.141  0.00  0.00    +0.000 C 
ATOM      6  O   UNL     1       6.058   4.415  19.881  0.00  0.00    +0.000 OA
ATOM      7  C   UNL     1       6.732   6.926  17.264  0.00  0.00    +0.000 C 
ATOM      8  C   UNL     1       7.180   8.412  17.453  0.00  0.00    +0.000 C 
ENDROOT
BRANCH   5   9
ATOM      9  C   UNL     1       4.352   5.801  18.888  0.00  0.00    +0.000 C 
ATOM     10  C   UNL     1       3.502   4.998  19.838  0.00  0.00    +0.000 C 
ATOM     11  C   UNL     1       3.403   3.483  19.439  0.00  0.00    +0.000 C 
ATOM     12  C   UNL     1       3.928   3.089  18.038  0.00  0.00    +0.000 C 
ATOM     13  C   UNL     1       3.167   4.047  17.152  0.00  0.00    +0.000 C 
ATOM     14  C   UNL     1       1.784   4.098  17.833  0.00  0.00    +0.000 C 
ATOM     15  C   UNL     1       1.886   3.407  19.219  0.00  0.00    +0.000 C 
ATOM     16  C   UNL     1       1.271   4.430  20.160  0.00  0.00    +0.000 C 
ATOM     17  C   UNL     1       2.103   5.579  19.644  0.00  0.00    +0.000 C 
ATOM     18  C   UNL     1       2.008   5.592  18.121  0.00  0.00    +0.000 C 
ATOM     19  C   UNL     1       3.499   5.522  17.587  0.00  0.00    +0.000 C 
ENDBRANCH   5   9
BRANCH   1  26
ATOM     20  C   UNL     1       9.064  11.842  21.976  0.00  0.00    +0.000 A 
ATOM     21  C   UNL     1       9.759  12.931  21.469  0.00  0.00    +0.000 A 
ATOM     22  C   UNL     1      10.111  12.991  20.117  0.00  0.00    +0.000 A 
ATOM     23  C   UNL     1       9.741  11.925  19.288  0.00  0.00    +0.000 A 
ATOM     24  N   UNL     1       9.968  11.758  17.946  0.00  0.00    +0.000 N 
ATOM     25  C   UNL     1       9.457  10.556  17.518  0.00  0.00    +0.000 A 
ATOM     26  C   UNL     1       8.882   9.906  18.594  0.00  0.00    +0.000 A 
ATOM     27  C   UNL     1       9.043  10.789  19.739  0.00  0.00    +0.000 A 
ATOM     28  C   UNL     1       8.712  10.768  21.117  0.00  0.00    +0.000 A 
ATOM     29  H   UNL     1      10.454  12.424  17.364  0.00  0.00    +0.000 HD
BRANCH  20  31
ATOM     30  C   UNL     1       7.296  11.871  23.575  0.00  0.00    +0.000 C 
ATOM     31  O   UNL     1       8.680  11.683  23.279  0.00  0.00    +0.000 OA
ENDBRANCH  20  31
ENDBRANCH   1  26
TORSDOF 3
ENDMDL
MODEL 9
REMARK VINA RESULT:      -8.2      7.670      9.016
REMARK  Name = 
REMARK  4 active torsions:
REMARK  status: ('A' for Active; 'I' for Inactive)
REMARK    1  A    between atoms: C_1  and  O_2
REMARK    2  A    between atoms: O_2  and  C_3
REMARK    3  A    between atoms: C_9  and  C_10
REMARK    4  A    between atoms: C_14  and  C_16
REMARK                            x       y       z     vdW  Elec       q    Type
REMARK                         _______ _______ _______ _____ _____    ______ ____
ROOT
ATOM      1  C   UNL     1       4.382  15.330  18.881  0.00  0.00    +0.000 C 
ATOM      2  C   UNL     1       4.989  16.162  19.763  0.00  0.00    +0.000 C 
ATOM      3  C   UNL     1       6.480  16.384  19.912  0.00  0.00    +0.000 C 
ATOM      4  N   UNL     1       7.200  15.266  19.338  0.00  0.00    +0.000 N 
ATOM      5  C   UNL     1       8.292  14.697  20.065  0.00  0.00    +0.000 C 
ATOM      6  O   UNL     1       8.857  15.300  20.970  0.00  0.00    +0.000 OA
ATOM      7  C   UNL     1       6.752  14.941  17.962  0.00  0.00    +0.000 C 
ATOM      8  C   UNL     1       5.235  14.570  17.892  0.00  0.00    +0.000 C 
ENDROOT
BRANCH   5   9
ATOM      9  C   UNL     1       8.685  13.259  19.696  0.00  0.00    +0.000 C 
ATOM     10  C   UNL     1      10.098  13.078  20.186  0.00  0.00    +0.000 C 
ATOM     11  C   UNL     1      11.147  13.881  19.338  0.00  0.00    +0.000 C 
ATOM     12  C   UNL     1      10.654  14.493  18.005  0.00  0.00    +0.000 C 
ATOM     13  C   UNL     1      10.053  13.286  17.325  0.00  0.00    +0.000 C 
ATOM     14  C   UNL     1      11.032  12.161  17.723  0.00  0.00    +0.000 C 
ATOM     15  C   UNL     1      11.979  12.696  18.829  0.00  0.00    +0.000 C 
ATOM     16  C   UNL     1      11.891  11.625  19.905  0.00  0.00    +0.000 C 
ATOM     17  C   UNL     1      10.381  11.601  19.921  0.00  0.00    +0.000 C 
ATOM     18  C   UNL     1       9.888  11.469  18.483  0.00  0.00    +0.000 C 
ATOM     19  C   UNL     1       8.915  12.695  18.237  0.00  0.00    +0.000 C 
ENDBRANCH   5   9
BRANCH   1  26
ATOM     20  C   UNL     1       1.156  11.700  18.981  0.00  0.00    +0.000 A 
ATOM     21  C   UNL     1      -0.133  12.210  18.912  0.00  0.00    +0.000 A 
ATOM     22  C   UNL     1      -0.355  13.586  18.802  0.00  0.00    +0.000 A 
ATOM     23  C   UNL     1       0.757  14.436  18.759  0.00  0.00    +0.000 A 
ATOM     24  N   UNL     1       0.794  15.803  18.653  0.00  0.00    +0.000 N 
ATOM     25  C   UNL     1       2.093  16.251  18.668  0.00  0.00    +0.000 A 
ATOM     26  C   UNL     1       2.939  15.165  18.790  0.00  0.00    +0.000 A 
ATOM     27  C   UNL     1       2.089  13.986  18.832  0.00  0.00    +0.000 A 
ATOM     28  C   UNL     1       2.266  12.584  18.949  0.00  0.00    +0.000 A 
ATOM     29  H   UNL     1      -0.024  16.390  18.586  0.00  0.00    +0.000 HD
BRANCH  20  31
ATOM     30  C   UNL     1       1.283   9.556  17.945  0.00  0.00    +0.000 C 
ATOM     31  O   UNL     1       1.481  10.376  19.097  0.00  0.00    +0.000 OA
ENDBRANCH  20  31
ENDBRANCH   1  26
TORSDOF 3
ENDMDL
