MODEL 1
REMARK VINA RESULT:      -8.3      0.000      0.000
REMARK  Name = 
REMARK  5 active torsions:
REMARK  status: ('A' for Active; 'I' for Inactive)
REMARK    1  A    between atoms: C_1  and  C_2
REMARK    2  A    between atoms: C_4  and  C_5
REMARK    3  A    between atoms: C_8  and  C_9
REMARK    4  A    between atoms: C_9  and  C_10
REMARK    5  A    between atoms: C_10  and  C_11
REMARK                            x       y       z     vdW  Elec       q    Type
REMARK                         _______ _______ _______ _____ _____    ______ ____
ROOT
ATOM      1  C   UNL     1       5.934   4.316  16.461  0.00  0.00    +0.000 A 
ATOM      2  N   UNL     1       6.793   4.423  17.489  0.00  0.00    +0.000 NA
ATOM      3  O   UNL     1       5.994   4.220  18.613  0.00  0.00    +0.000 OA
ATOM      4  C   UNL     1       4.729   4.013  18.153  0.00  0.00    +0.000 A 
ATOM      5  N   UNL     1       4.634   4.067  16.845  0.00  0.00    +0.000 NA
ENDROOT
BRANCH   1   9
ATOM      6  C   UNL     1       5.270   2.840  11.729  0.00  0.00    +0.000 C 
ATOM      7  C   UNL     1       6.003   3.652  12.751  0.00  0.00    +0.000 A 
ATOM      8  C   UNL     1       5.625   3.632  14.100  0.00  0.00    +0.000 A 
ATOM      9  C   UNL     1       6.319   4.393  15.058  0.00  0.00    +0.000 A 
ATOM     10  C   UNL     1       7.396   5.192  14.643  0.00  0.00    +0.000 A 
ATOM     11  C   UNL     1       7.784   5.210  13.302  0.00  0.00    +0.000 A 
ATOM     12  C   UNL     1       7.090   4.442  12.374  0.00  0.00    +0.000 A 
ATOM     13  F   UNL     1       7.486   4.460  11.092  0.00  0.00    +0.000 F 
ENDBRANCH   1   9
BRANCH   4  14
ATOM     14  C   UNL     1       3.682   3.707  19.152  0.00  0.00    +0.000 C 
BRANCH  14  15
ATOM     15  C   UNL     1       2.391   4.437  18.797  0.00  0.00    +0.000 C 
BRANCH  15  16
ATOM     16  C   UNL     1       1.893   5.294  19.941  0.00  0.00    +0.000 C 
ATOM     17  O   UNL     1       1.234   4.806  20.858  0.00  0.00    +0.000 OA
ATOM     18  N   UNL     1       2.222   6.640  19.894  0.00  0.00    +0.000 N 
ATOM     19  C   UNL     1       2.969   7.296  18.803  0.00  0.00    +0.000 C 
ATOM     20  C   UNL     1       2.049   8.234  18.005  0.00  0.00    +0.000 C 
ATOM     21  C   UNL     1       1.270   9.071  18.970  0.00  0.00    +0.000 A 
ATOM     22  S   UNL     1       0.485  10.506  18.516  0.00  0.00    +0.000 S 
ATOM     23  C   UNL     1      -0.091  10.749  20.110  0.00  0.00    +0.000 A 
ATOM     24  C   UNL     1       0.305   9.743  20.966  0.00  0.00    +0.000 A 
ATOM     25  C   UNL     1       1.098   8.754  20.306  0.00  0.00    +0.000 A 
ATOM     26  C   UNL     1       1.706   7.532  20.942  0.00  0.00    +0.000 C 
ENDBRANCH  15  16
ENDBRANCH  14  15
ENDBRANCH   4  14
TORSDOF 4
ENDMDL
MODEL 2
REMARK VINA RESULT:      -8.3      5.434      7.000
REMARK  Name = 
REMARK  5 active torsions:
REMARK  status: ('A' for Active; 'I' for Inactive)
REMARK    1  A    between atoms: C_1  and  C_2
REMARK    2  A    between atoms: C_4  and  C_5
REMARK    3  A    between atoms: C_8  and  C_9
REMARK    4  A    between atoms: C_9  and  C_10
REMARK    5  A    between atoms: C_10  and  C_11
REMARK                            x       y       z     vdW  Elec       q    Type
REMARK                         _______ _______ _______ _____ _____    ______ ____
ROOT
ATOM      1  C   UNL     1       8.192   8.534  18.232  0.00  0.00    +0.000 A 
ATOM      2  N   UNL     1       8.582   7.549  19.059  0.00  0.00    +0.000 NA
ATOM      3  O   UNL     1       7.940   6.419  18.557  0.00  0.00    +0.000 OA
ATOM      4  C   UNL     1       7.223   6.832  17.477  0.00  0.00    +0.000 A 
ATOM      5  N   UNL     1       7.335   8.118  17.236  0.00  0.00    +0.000 NA
ENDROOT
BRANCH   1   9
ATOM      6  C   UNL     1      11.118  11.962  20.402  0.00  0.00    +0.000 C 
ATOM      7  C   UNL     1      10.076  11.586  19.395  0.00  0.00    +0.000 A 
ATOM      8  C   UNL     1       9.641  10.260  19.261  0.00  0.00    +0.000 A 
ATOM      9  C   UNL     1       8.659   9.912  18.317  0.00  0.00    +0.000 A 
ATOM     10  C   UNL     1       8.122  10.913  17.492  0.00  0.00    +0.000 A 
ATOM     11  C   UNL     1       8.542  12.238  17.627  0.00  0.00    +0.000 A 
ATOM     12  C   UNL     1       9.508  12.560  18.574  0.00  0.00    +0.000 A 
ATOM     13  F   UNL     1       9.890  13.841  18.698  0.00  0.00    +0.000 F 
ENDBRANCH   1   9
BRANCH   4  14
ATOM     14  C   UNL     1       6.486   5.803  16.712  0.00  0.00    +0.000 C 
BRANCH  14  15
ATOM     15  C   UNL     1       5.226   6.405  16.102  0.00  0.00    +0.000 C 
BRANCH  15  16
ATOM     16  C   UNL     1       4.153   6.648  17.142  0.00  0.00    +0.000 C 
ATOM     17  O   UNL     1       3.967   7.770  17.611  0.00  0.00    +0.000 OA
ATOM     18  N   UNL     1       3.405   5.546  17.527  0.00  0.00    +0.000 N 
ATOM     19  C   UNL     1       3.606   4.168  17.038  0.00  0.00    +0.000 C 
ATOM     20  C   UNL     1       4.165   3.274  18.157  0.00  0.00    +0.000 C 
ATOM     21  C   UNL     1       3.360   3.504  19.397  0.00  0.00    +0.000 A 
ATOM     22  S   UNL     1       3.360   2.423  20.706  0.00  0.00    +0.000 S 
ATOM     23  C   UNL     1       2.270   3.412  21.581  0.00  0.00    +0.000 A 
ATOM     24  C   UNL     1       1.925   4.550  20.884  0.00  0.00    +0.000 A 
ATOM     25  C   UNL     1       2.563   4.615  19.606  0.00  0.00    +0.000 A 
ATOM     26  C   UNL     1       2.398   5.709  18.585  0.00  0.00    +0.000 C 
ENDBRANCH  15  16
ENDBRANCH  14  15
ENDBRANCH   4  14
TORSDOF 4
ENDMDL
MODEL 3
REMARK VINA RESULT:      -8.3      5.645      7.295
REMARK  Name = 
REMARK  5 active torsions:
REMARK  status: ('A' for Active; 'I' for Inactive)
REMARK    1  A    between atoms: C_1  and  C_2
REMARK    2  A    between atoms: C_4  and  C_5
REMARK    3  A    between atoms: C_8  and  C_9
REMARK    4  A    between atoms: C_9  and  C_10
REMARK    5  A    between atoms: C_10  and  C_11
REMARK                            x       y       z     vdW  Elec       q    Type
REMARK                         _______ _______ _______ _____ _____    ______ ____
ROOT
ATOM      1  C   UNL     1       8.403   8.855  18.426  0.00  0.00    +0.000 A 
ATOM      2  N   UNL     1       8.581   7.650  18.995  0.00  0.00    +0.000 NA
ATOM      3  O   UNL     1       7.763   6.805  18.248  0.00  0.00    +0.000 OA
ATOM      4  C   UNL     1       7.168   7.583  17.302  0.00  0.00    +0.000 A 
ATOM      5  N   UNL     1       7.518   8.846  17.369  0.00  0.00    +0.000 NA
ENDROOT
BRANCH   1   9
ATOM      6  C   UNL     1      11.099  12.880  17.181  0.00  0.00    +0.000 C 
ATOM      7  C   UNL     1      10.442  12.019  18.215  0.00  0.00    +0.000 A 
ATOM      8  C   UNL     1       9.719  10.874  17.853  0.00  0.00    +0.000 A 
ATOM      9  C   UNL     1       9.108  10.066  18.828  0.00  0.00    +0.000 A 
ATOM     10  C   UNL     1       9.218  10.427  20.180  0.00  0.00    +0.000 A 
ATOM     11  C   UNL     1       9.944  11.561  20.549  0.00  0.00    +0.000 A 
ATOM     12  C   UNL     1      10.549  12.340  19.569  0.00  0.00    +0.000 A 
ATOM     13  F   UNL     1      11.254  13.419  19.943  0.00  0.00    +0.000 F 
ENDBRANCH   1   9
BRANCH   4  14
ATOM     14  C   UNL     1       6.283   6.913  16.325  0.00  0.00    +0.000 C 
BRANCH  14  15
ATOM     15  C   UNL     1       5.718   5.629  16.925  0.00  0.00    +0.000 C 
BRANCH  15  16
ATOM     16  C   UNL     1       4.279   5.795  17.364  0.00  0.00    +0.000 C 
ATOM     17  O   UNL     1       3.746   6.904  17.381  0.00  0.00    +0.000 OA
ATOM     18  N   UNL     1       3.611   4.641  17.739  0.00  0.00    +0.000 N 
ATOM     19  C   UNL     1       4.204   3.290  17.786  0.00  0.00    +0.000 C 
ATOM     20  C   UNL     1       4.351   2.814  19.240  0.00  0.00    +0.000 C 
ATOM     21  C   UNL     1       3.066   3.078  19.960  0.00  0.00    +0.000 A 
ATOM     22  S   UNL     1       2.662   2.320  21.424  0.00  0.00    +0.000 S 
ATOM     23  C   UNL     1       1.168   3.154  21.495  0.00  0.00    +0.000 A 
ATOM     24  C   UNL     1       0.993   4.001  20.421  0.00  0.00    +0.000 A 
ATOM     25  C   UNL     1       2.102   3.967  19.520  0.00  0.00    +0.000 A 
ATOM     26  C   UNL     1       2.234   4.752  18.242  0.00  0.00    +0.000 C 
ENDBRANCH  15  16
ENDBRANCH  14  15
ENDBRANCH   4  14
TORSDOF 4
ENDMDL
MODEL 4
REMARK VINA RESULT:      -8.1      7.196      8.312
REMARK  Name = 
REMARK  5 active torsions:
REMARK  status: ('A' for Active; 'I' for Inactive)
REMARK    1  A    between atoms: C_1  and  C_2
REMARK    2  A    between atoms: C_4  and  C_5
REMARK    3  A    between atoms: C_8  and  C_9
REMARK    4  A    between atoms: C_9  and  C_10
REMARK    5  A    between atoms: C_10  and  C_11
REMARK                            x       y       z     vdW  Elec       q    Type
REMARK                         _______ _______ _______ _____ _____    ______ ____
ROOT
ATOM      1  C   UNL     1       6.874   6.800  17.800  0.00  0.00    +0.000 A 
ATOM      2  N   UNL     1       7.889   6.509  18.631  0.00  0.00    +0.000 NA
ATOM      3  O   UNL     1       8.596   7.706  18.725  0.00  0.00    +0.000 OA
ATOM      4  C   UNL     1       7.939   8.603  17.939  0.00  0.00    +0.000 A 
ATOM      5  N   UNL     1       6.882   8.101  17.345  0.00  0.00    +0.000 NA
ENDROOT
BRANCH   1   9
ATOM      6  C   UNL     1       2.104   5.347  18.192  0.00  0.00    +0.000 C 
ATOM      7  C   UNL     1       3.486   5.151  17.653  0.00  0.00    +0.000 A 
ATOM      8  C   UNL     1       4.514   6.058  17.945  0.00  0.00    +0.000 A 
ATOM      9  C   UNL     1       5.813   5.867  17.441  0.00  0.00    +0.000 A 
ATOM     10  C   UNL     1       6.070   4.757  16.621  0.00  0.00    +0.000 A 
ATOM     11  C   UNL     1       5.053   3.844  16.333  0.00  0.00    +0.000 A 
ATOM     12  C   UNL     1       3.779   4.047  16.851  0.00  0.00    +0.000 A 
ATOM     13  F   UNL     1       2.817   3.152  16.575  0.00  0.00    +0.000 F 
ENDBRANCH   1   9
BRANCH   4  14
ATOM     14  C   UNL     1       8.454   9.989  17.909  0.00  0.00    +0.000 C 
BRANCH  14  15
ATOM     15  C   UNL     1       9.689  10.109  18.795  0.00  0.00    +0.000 C 
BRANCH  15  16
ATOM     16  C   UNL     1       9.664  11.370  19.631  0.00  0.00    +0.000 C 
ATOM     17  O   UNL     1       8.846  11.514  20.539  0.00  0.00    +0.000 OA
ATOM     18  N   UNL     1      10.607  12.337  19.318  0.00  0.00    +0.000 N 
ATOM     19  C   UNL     1      11.586  12.248  18.217  0.00  0.00    +0.000 C 
ATOM     20  C   UNL     1      11.243  13.253  17.106  0.00  0.00    +0.000 C 
ATOM     21  C   UNL     1      10.964  14.582  17.736  0.00  0.00    +0.000 A 
ATOM     22  S   UNL     1      10.979  16.035  16.859  0.00  0.00    +0.000 S 
ATOM     23  C   UNL     1      10.586  16.938  18.260  0.00  0.00    +0.000 A 
ATOM     24  C   UNL     1      10.438  16.135  19.372  0.00  0.00    +0.000 A 
ATOM     25  C   UNL     1      10.652  14.754  19.073  0.00  0.00    +0.000 A 
ATOM     26  C   UNL     1      10.585  13.611  20.052  0.00  0.00    +0.000 C 
ENDBRANCH  15  16
ENDBRANCH  14  15
ENDBRANCH   4  14
TORSDOF 4
ENDMDL
MODEL 5
REMARK VINA RESULT:      -8.1      5.709      7.302
REMARK  Name = 
REMARK  5 active torsions:
REMARK  status: ('A' for Active; 'I' for Inactive)
REMARK    1  A    between atoms: C_1  and  C_2
REMARK    2  A    between atoms: C_4  and  C_5
REMARK    3  A    between atoms: C_8  and  C_9
REMARK    4  A    between atoms: C_9  and  C_10
REMARK    5  A    between atoms: C_10  and  C_11
REMARK                            x       y       z     vdW  Elec       q    Type
REMARK                         _______ _______ _______ _____ _____    ______ ____
ROOT
ATOM      1  C   UNL     1       8.453   9.218  18.219  0.00  0.00    +0.000 A 
ATOM      2  N   UNL     1       8.898   8.249  19.038  0.00  0.00    +0.000 NA
ATOM      3  O   UNL     1       8.257   7.102  18.575  0.00  0.00    +0.000 OA
ATOM      4  C   UNL     1       7.487   7.490  17.522  0.00  0.00    +0.000 A 
ATOM      5  N   UNL     1       7.563   8.774  17.264  0.00  0.00    +0.000 NA
ENDROOT
BRANCH   1   9
ATOM      6  C   UNL     1      11.658  12.653  19.937  0.00  0.00    +0.000 C 
ATOM      7  C   UNL     1      10.453  12.281  19.130  0.00  0.00    +0.000 A 
ATOM      8  C   UNL     1      10.032  10.949  19.026  0.00  0.00    +0.000 A 
ATOM      9  C   UNL     1       8.896  10.605  18.271  0.00  0.00    +0.000 A 
ATOM     10  C   UNL     1       8.190  11.618  17.604  0.00  0.00    +0.000 A 
ATOM     11  C   UNL     1       8.597  12.950  17.710  0.00  0.00    +0.000 A 
ATOM     12  C   UNL     1       9.718  13.267  18.471  0.00  0.00    +0.000 A 
ATOM     13  F   UNL     1      10.087  14.553  18.573  0.00  0.00    +0.000 F 
ENDBRANCH   1   9
BRANCH   4  14
ATOM     14  C   UNL     1       6.739   6.438  16.799  0.00  0.00    +0.000 C 
BRANCH  14  15
ATOM     15  C   UNL     1       6.761   5.139  17.597  0.00  0.00    +0.000 C 
BRANCH  15  16
ATOM     16  C   UNL     1       5.932   5.236  18.860  0.00  0.00    +0.000 C 
ATOM     17  O   UNL     1       6.468   5.292  19.967  0.00  0.00    +0.000 OA
ATOM     18  N   UNL     1       4.556   5.261  18.696  0.00  0.00    +0.000 N 
ATOM     19  C   UNL     1       3.850   5.153  17.404  0.00  0.00    +0.000 C 
ATOM     20  C   UNL     1       3.114   3.808  17.301  0.00  0.00    +0.000 C 
ATOM     21  C   UNL     1       2.359   3.579  18.572  0.00  0.00    +0.000 A 
ATOM     22  S   UNL     1       1.093   2.456  18.700  0.00  0.00    +0.000 S 
ATOM     23  C   UNL     1       0.857   2.840  20.351  0.00  0.00    +0.000 A 
ATOM     24  C   UNL     1       1.740   3.803  20.793  0.00  0.00    +0.000 A 
ATOM     25  C   UNL     1       2.627   4.237  19.760  0.00  0.00    +0.000 A 
ATOM     26  C   UNL     1       3.701   5.284  19.892  0.00  0.00    +0.000 C 
ENDBRANCH  15  16
ENDBRANCH  14  15
ENDBRANCH   4  14
TORSDOF 4
ENDMDL
MODEL 6
REMARK VINA RESULT:      -8.0      5.892      7.658
REMARK  Name = 
REMARK  5 active torsions:
REMARK  status: ('A' for Active; 'I' for Inactive)
REMARK    1  A    between atoms: C_1  and  C_2
REMARK    2  A    between atoms: C_4  and  C_5
REMARK    3  A    between atoms: C_8  and  C_9
REMARK    4  A    between atoms: C_9  and  C_10
REMARK    5  A    between atoms: C_10  and  C_11
REMARK                            x       y       z     vdW  Elec       q    Type
REMARK                         _______ _______ _______ _____ _____    ______ ____
ROOT
ATOM      1  C   UNL     1       8.596   9.421  18.248  0.00  0.00    +0.000 A 
ATOM      2  N   UNL     1       7.771   9.602  17.204  0.00  0.00    +0.000 NA
ATOM      3  O   UNL     1       7.166   8.357  17.039  0.00  0.00    +0.000 OA
ATOM      4  C   UNL     1       7.688   7.545  18.000  0.00  0.00    +0.000 A 
ATOM      5  N   UNL     1       8.572   8.142  18.763  0.00  0.00    +0.000 NA
ENDROOT
BRANCH   1   9
ATOM      6  C   UNL     1       9.551  12.470  22.097  0.00  0.00    +0.000 C 
ATOM      7  C   UNL     1       9.859  11.974  20.719  0.00  0.00    +0.000 A 
ATOM      8  C   UNL     1       9.121  10.933  20.140  0.00  0.00    +0.000 A 
ATOM      9  C   UNL     1       9.411  10.473  18.843  0.00  0.00    +0.000 A 
ATOM     10  C   UNL     1      10.467  11.064  18.131  0.00  0.00    +0.000 A 
ATOM     11  C   UNL     1      11.201  12.108  18.697  0.00  0.00    +0.000 A 
ATOM     12  C   UNL     1      10.890  12.553  19.977  0.00  0.00    +0.000 A 
ATOM     13  F   UNL     1      11.597  13.567  20.500  0.00  0.00    +0.000 F 
ENDBRANCH   1   9
BRANCH   4  14
ATOM     14  C   UNL     1       7.163   6.165  18.086  0.00  0.00    +0.000 C 
BRANCH  14  15
ATOM     15  C   UNL     1       6.227   5.886  16.915  0.00  0.00    +0.000 C 
BRANCH  15  16
ATOM     16  C   UNL     1       4.776   6.105  17.285  0.00  0.00    +0.000 C 
ATOM     17  O   UNL     1       4.290   7.236  17.304  0.00  0.00    +0.000 OA
ATOM     18  N   UNL     1       4.040   4.972  17.595  0.00  0.00    +0.000 N 
ATOM     19  C   UNL     1       4.572   3.596  17.635  0.00  0.00    +0.000 C 
ATOM     20  C   UNL     1       4.624   3.078  19.081  0.00  0.00    +0.000 C 
ATOM     21  C   UNL     1       3.316   3.380  19.742  0.00  0.00    +0.000 A 
ATOM     22  S   UNL     1       2.804   2.606  21.164  0.00  0.00    +0.000 S 
ATOM     23  C   UNL     1       1.346   3.503  21.182  0.00  0.00    +0.000 A 
ATOM     24  C   UNL     1       1.263   4.382  20.123  0.00  0.00    +0.000 A 
ATOM     25  C   UNL     1       2.414   4.322  19.279  0.00  0.00    +0.000 A 
ATOM     26  C   UNL     1       2.645   5.131  18.030  0.00  0.00    +0.000 C 
ENDBRANCH  15  16
ENDBRANCH  14  15
ENDBRANCH   4  14
TORSDOF 4
ENDMDL
MODEL 7
REMARK VINA RESULT:      -8.0      5.751      7.584
REMARK  Name = 
REMARK  5 active torsions:
REMARK  status: ('A' for Active; 'I' for Inactive)
REMARK    1  A    between atoms: C_1  and  C_2
REMARK    2  A    between atoms: C_4  and  C_5
REMARK    3  A    between atoms: C_8  and  C_9
REMARK    4  A    between atoms: C_9  and  C_10
REMARK    5  A    between atoms: C_10  and  C_11
REMARK                            x       y       z     vdW  Elec       q    Type
REMARK                         _______ _______ _______ _____ _____    ______ ____
ROOT
ATOM      1  C   UNL     1       8.509   9.333  18.196  0.00  0.00    +0.000 A 
ATOM      2  N   UNL     1       7.543   9.513  17.279  0.00  0.00    +0.000 NA
ATOM      3  O   UNL     1       7.030   8.233  17.080  0.00  0.00    +0.000 OA
ATOM      4  C   UNL     1       7.739   7.404  17.894  0.00  0.00    +0.000 A 
ATOM      5  N   UNL     1       8.661   8.022  18.595  0.00  0.00    +0.000 NA
ENDROOT
BRANCH   1   9
ATOM      6  C   UNL     1      11.815  13.042  17.620  0.00  0.00    +0.000 C 
ATOM      7  C   UNL     1      10.932  12.206  18.493  0.00  0.00    +0.000 A 
ATOM      8  C   UNL     1      10.125  11.195  17.954  0.00  0.00    +0.000 A 
ATOM      9  C   UNL     1       9.301  10.409  18.778  0.00  0.00    +0.000 A 
ATOM     10  C   UNL     1       9.282  10.659  20.159  0.00  0.00    +0.000 A 
ATOM     11  C   UNL     1      10.089  11.659  20.706  0.00  0.00    +0.000 A 
ATOM     12  C   UNL     1      10.904  12.417  19.872  0.00  0.00    +0.000 A 
ATOM     13  F   UNL     1      11.684  13.364  20.416  0.00  0.00    +0.000 F 
ENDBRANCH   1   9
BRANCH   4  14
ATOM     14  C   UNL     1       7.349   5.977  17.921  0.00  0.00    +0.000 C 
BRANCH  14  15
ATOM     15  C   UNL     1       6.294   5.702  16.856  0.00  0.00    +0.000 C 
BRANCH  15  16
ATOM     16  C   UNL     1       5.636   4.352  17.046  0.00  0.00    +0.000 C 
ATOM     17  O   UNL     1       5.606   3.527  16.133  0.00  0.00    +0.000 OA
ATOM     18  N   UNL     1       5.082   4.106  18.292  0.00  0.00    +0.000 N 
ATOM     19  C   UNL     1       5.045   5.065  19.413  0.00  0.00    +0.000 C 
ATOM     20  C   UNL     1       3.607   5.544  19.668  0.00  0.00    +0.000 C 
ATOM     21  C   UNL     1       2.705   4.350  19.692  0.00  0.00    +0.000 A 
ATOM     22  S   UNL     1       1.148   4.388  20.367  0.00  0.00    +0.000 S 
ATOM     23  C   UNL     1       0.888   2.742  19.976  0.00  0.00    +0.000 A 
ATOM     24  C   UNL     1       1.972   2.182  19.333  0.00  0.00    +0.000 A 
ATOM     25  C   UNL     1       3.038   3.118  19.158  0.00  0.00    +0.000 A 
ATOM     26  C   UNL     1       4.370   2.838  18.512  0.00  0.00    +0.000 C 
ENDBRANCH  15  16
ENDBRANCH  14  15
ENDBRANCH   4  14
TORSDOF 4
ENDMDL
MODEL 8
REMARK VINA RESULT:      -7.9      3.987      6.071
REMARK  Name = 
REMARK  5 active torsions:
REMARK  status: ('A' for Active; 'I' for Inactive)
REMARK    1  A    between atoms: C_1  and  C_2
REMARK    2  A    between atoms: C_4  and  C_5
REMARK    3  A    between atoms: C_8  and  C_9
REMARK    4  A    between atoms: C_9  and  C_10
REMARK    5  A    between atoms: C_10  and  C_11
REMARK                            x       y       z     vdW  Elec       q    Type
REMARK                         _______ _______ _______ _____ _____    ______ ____
ROOT
ATOM      1  C   UNL     1       2.758   7.313  18.382  0.00  0.00    +0.000 A 
ATOM      2  N   UNL     1       2.289   7.224  19.638  0.00  0.00    +0.000 NA
ATOM      3  O   UNL     1       1.599   8.421  19.820  0.00  0.00    +0.000 OA
ATOM      4  C   UNL     1       1.720   9.116  18.656  0.00  0.00    +0.000 A 
ATOM      5  N   UNL     1       2.424   8.489  17.744  0.00  0.00    +0.000 NA
ENDROOT
BRANCH   1   9
ATOM      6  C   UNL     1       3.625   2.439  17.662  0.00  0.00    +0.000 C 
ATOM      7  C   UNL     1       3.936   3.876  17.375  0.00  0.00    +0.000 A 
ATOM      8  C   UNL     1       3.205   4.910  17.975  0.00  0.00    +0.000 A 
ATOM      9  C   UNL     1       3.503   6.257  17.706  0.00  0.00    +0.000 A 
ATOM     10  C   UNL     1       4.541   6.560  16.810  0.00  0.00    +0.000 A 
ATOM     11  C   UNL     1       5.279   5.536  16.216  0.00  0.00    +0.000 A 
ATOM     12  C   UNL     1       4.973   4.210  16.504  0.00  0.00    +0.000 A 
ATOM     13  F   UNL     1       5.703   3.238  15.934  0.00  0.00    +0.000 F 
ENDBRANCH   1   9
BRANCH   4  14
ATOM     14  C   UNL     1       1.017  10.414  18.560  0.00  0.00    +0.000 C 
BRANCH  14  15
ATOM     15  C   UNL     1      -0.484  10.187  18.420  0.00  0.00    +0.000 C 
BRANCH  15  16
ATOM     16  C   UNL     1      -1.278  11.056  19.372  0.00  0.00    +0.000 C 
ATOM     17  O   UNL     1      -0.934  11.190  20.546  0.00  0.00    +0.000 OA
ATOM     18  N   UNL     1      -2.398  11.684  18.848  0.00  0.00    +0.000 N 
ATOM     19  C   UNL     1      -2.890  11.531  17.464  0.00  0.00    +0.000 C 
ATOM     20  C   UNL     1      -4.212  10.746  17.445  0.00  0.00    +0.000 C 
ATOM     21  C   UNL     1      -5.119  11.315  18.490  0.00  0.00    +0.000 A 
ATOM     22  S   UNL     1      -6.794  11.038  18.503  0.00  0.00    +0.000 S 
ATOM     23  C   UNL     1      -6.986  11.979  19.919  0.00  0.00    +0.000 A 
ATOM     24  C   UNL     1      -5.786  12.486  20.374  0.00  0.00    +0.000 A 
ATOM     25  C   UNL     1      -4.687  12.097  19.547  0.00  0.00    +0.000 A 
ATOM     26  C   UNL     1      -3.245  12.484  19.744  0.00  0.00    +0.000 C 
ENDBRANCH  15  16
ENDBRANCH  14  15
ENDBRANCH   4  14
TORSDOF 4
ENDMDL
MODEL 9
REMARK VINA RESULT:      -7.9      3.800      5.984
REMARK  Name = 
REMARK  5 active torsions:
REMARK  status: ('A' for Active; 'I' for Inactive)
REMARK    1  A    between atoms: C_1  and  C_2
REMARK    2  A    between atoms: C_4  and  C_5
REMARK    3  A    between atoms: C_8  and  C_9
REMARK    4  A    between atoms: C_9  and  C_10
REMARK    5  A    between atoms: C_10  and  C_11
REMARK                            x       y       z     vdW  Elec       q    Type
REMARK                         _______ _______ _______ _____ _____    ______ ____
ROOT
ATOM      1  C   UNL     1       2.569   7.350  18.514  0.00  0.00    +0.000 A 
ATOM      2  N   UNL     1       2.168   8.500  17.947  0.00  0.00    +0.000 NA
ATOM      3  O   UNL     1       1.524   9.175  18.983  0.00  0.00    +0.000 OA
ATOM      4  C   UNL     1       1.597   8.364  20.074  0.00  0.00    +0.000 A 
ATOM      5  N   UNL     1       2.220   7.233  19.843  0.00  0.00    +0.000 NA
ENDROOT
BRANCH   1   9
ATOM      6  C   UNL     1       3.482   2.515  17.613  0.00  0.00    +0.000 C 
ATOM      7  C   UNL     1       3.806   3.963  17.413  0.00  0.00    +0.000 A 
ATOM      8  C   UNL     1       3.041   4.969  18.019  0.00  0.00    +0.000 A 
ATOM      9  C   UNL     1       3.352   6.327  17.833  0.00  0.00    +0.000 A 
ATOM     10  C   UNL     1       4.439   6.671  17.013  0.00  0.00    +0.000 A 
ATOM     11  C   UNL     1       5.212   5.675  16.413  0.00  0.00    +0.000 A 
ATOM     12  C   UNL     1       4.892   4.337  16.620  0.00  0.00    +0.000 A 
ATOM     13  F   UNL     1       5.653   3.393  16.046  0.00  0.00    +0.000 F 
ENDBRANCH   1   9
BRANCH   4  14
ATOM     14  C   UNL     1       1.036   8.876  21.343  0.00  0.00    +0.000 C 
BRANCH  14  15
ATOM     15  C   UNL     1       0.239  10.151  21.087  0.00  0.00    +0.000 C 
BRANCH  15  16
ATOM     16  C   UNL     1      -0.343  10.720  22.363  0.00  0.00    +0.000 C 
ATOM     17  O   UNL     1      -0.148  10.173  23.448  0.00  0.00    +0.000 OA
ATOM     18  N   UNL     1      -1.094  11.878  22.236  0.00  0.00    +0.000 N 
ATOM     19  C   UNL     1      -1.402  12.559  20.963  0.00  0.00    +0.000 C 
ATOM     20  C   UNL     1      -2.894  12.414  20.621  0.00  0.00    +0.000 C 
ATOM     21  C   UNL     1      -3.696  12.739  21.842  0.00  0.00    +0.000 A 
ATOM     22  S   UNL     1      -5.349  13.124  21.780  0.00  0.00    +0.000 S 
ATOM     23  C   UNL     1      -5.413  13.321  23.479  0.00  0.00    +0.000 A 
ATOM     24  C   UNL     1      -4.193  13.087  24.077  0.00  0.00    +0.000 A 
ATOM     25  C   UNL     1      -3.184  12.740  23.127  0.00  0.00    +0.000 A 
ATOM     26  C   UNL     1      -1.741  12.437  23.433  0.00  0.00    +0.000 C 
ENDBRANCH  15  16
ENDBRANCH  14  15
ENDBRANCH   4  14
TORSDOF 4
ENDMDL
