MODEL 1
REMARK VINA RESULT:      -9.8      0.000      0.000
REMARK  Name = 
REMARK  4 active torsions:
REMARK  status: ('A' for Active; 'I' for Inactive)
REMARK    1  A    between atoms: C_1  and  C_2
REMARK    2  A    between atoms: C_4  and  C_5
REMARK    3  A    between atoms: C_9  and  N_10
REMARK    4  A    between atoms: C_11  and  C_13
REMARK                            x       y       z     vdW  Elec       q    Type
REMARK                         _______ _______ _______ _____ _____    ______ ____
ROOT
ATOM      1  N   UNL     1       1.970   7.726  20.878  0.00  0.00    +0.000 N 
ATOM      2  C   UNL     1       2.384   7.268  19.646  0.00  0.00    +0.000 C 
ATOM      3  O   UNL     1       2.187   7.865  18.587  0.00  0.00    +0.000 OA
ATOM      4  H   UNL     1       2.377   7.324  21.710  0.00  0.00    +0.000 HD
ENDROOT
BRANCH   2   5
ATOM      5  C   UNL     1       3.010   5.898  19.642  0.00  0.00    +0.000 A 
ATOM      6  C   UNL     1       4.300   5.956  19.261  0.00  0.00    +0.000 A 
ATOM      7  N   UNL     1       4.819   5.025  18.395  0.00  0.00    +0.000 N 
ATOM      8  C   UNL     1       4.021   4.109  17.729  0.00  0.00    +0.000 A 
ATOM      9  O   UNL     1       4.385   3.562  16.699  0.00  0.00    +0.000 OA
ATOM     10  C   UNL     1       2.715   3.817  18.365  0.00  0.00    +0.000 A 
ATOM     11  C   UNL     1       1.995   2.684  17.990  0.00  0.00    +0.000 A 
ATOM     12  C   UNL     1       0.928   2.263  18.779  0.00  0.00    +0.000 A 
ATOM     13  C   UNL     1       0.608   2.960  19.945  0.00  0.00    +0.000 A 
ATOM     14  C   UNL     1       1.287   4.141  20.274  0.00  0.00    +0.000 A 
ATOM     15  C   UNL     1       2.304   4.619  19.439  0.00  0.00    +0.000 A 
ATOM     16  H   UNL     1       5.716   5.216  17.960  0.00  0.00    +0.000 HD
ENDBRANCH   2   5
BRANCH   1  21
ATOM     17  C   UNL     1      -0.387  10.453  20.075  0.00  0.00    +0.000 A 
ATOM     18  C   UNL     1      -0.776  10.874  21.359  0.00  0.00    +0.000 A 
ATOM     19  C   UNL     1      -0.223  10.282  22.489  0.00  0.00    +0.000 A 
ATOM     20  C   UNL     1       0.700   9.247  22.345  0.00  0.00    +0.000 A 
ATOM     21  C   UNL     1       1.081   8.803  21.076  0.00  0.00    +0.000 A 
ATOM     22  C   UNL     1       0.577   9.447  19.945  0.00  0.00    +0.000 A 
BRANCH  17  26
ATOM     23  C   UNL     1      -2.918  10.869  15.875  0.00  0.00    +0.000 C 
ATOM     24  C   UNL     1      -2.121  11.134  17.083  0.00  0.00    +0.000 A 
ATOM     25  N   UNL     1      -1.808  10.294  18.043  0.00  0.00    +0.000 NA
ATOM     26  C   UNL     1      -1.024  11.039  18.902  0.00  0.00    +0.000 A 
ATOM     27  N   UNL     1      -0.868  12.312  18.509  0.00  0.00    +0.000 NA
ATOM     28  N   UNL     1      -1.556  12.346  17.361  0.00  0.00    +0.000 N 
ATOM     29  H   UNL     1      -1.589  13.203  16.821  0.00  0.00    +0.000 HD
ENDBRANCH  17  26
ENDBRANCH   1  21
TORSDOF 3
ENDMDL
MODEL 2
REMARK VINA RESULT:      -9.7      0.865      1.006
REMARK  Name = 
REMARK  4 active torsions:
REMARK  status: ('A' for Active; 'I' for Inactive)
REMARK    1  A    between atoms: C_1  and  C_2
REMARK    2  A    between atoms: C_4  and  C_5
REMARK    3  A    between atoms: C_9  and  N_10
REMARK    4  A    between atoms: C_11  and  C_13
REMARK                            x       y       z     vdW  Elec       q    Type
REMARK                         _______ _______ _______ _____ _____    ______ ____
ROOT
ATOM      1  N   UNL     1       1.963   7.656  20.511  0.00  0.00    +0.000 N 
ATOM      2  C   UNL     1       2.580   7.367  19.313  0.00  0.00    +0.000 C 
ATOM      3  O   UNL     1       2.619   8.139  18.354  0.00  0.00    +0.000 OA
ATOM      4  H   UNL     1       2.183   7.095  21.321  0.00  0.00    +0.000 HD
ENDROOT
BRANCH   2   5
ATOM      5  C   UNL     1       3.124   5.968  19.186  0.00  0.00    +0.000 A 
ATOM      6  C   UNL     1       3.824   5.822  18.045  0.00  0.00    +0.000 A 
ATOM      7  N   UNL     1       3.686   4.691  17.277  0.00  0.00    +0.000 N 
ATOM      8  C   UNL     1       2.704   3.745  17.523  0.00  0.00    +0.000 A 
ATOM      9  O   UNL     1       2.320   2.972  16.659  0.00  0.00    +0.000 OA
ATOM     10  C   UNL     1       2.178   3.716  18.907  0.00  0.00    +0.000 A 
ATOM     11  C   UNL     1       1.461   2.607  19.357  0.00  0.00    +0.000 A 
ATOM     12  C   UNL     1       1.222   2.458  20.720  0.00  0.00    +0.000 A 
ATOM     13  C   UNL     1       1.722   3.400  21.621  0.00  0.00    +0.000 A 
ATOM     14  C   UNL     1       2.374   4.550  21.156  0.00  0.00    +0.000 A 
ATOM     15  C   UNL     1       2.542   4.751  19.780  0.00  0.00    +0.000 A 
ATOM     16  H   UNL     1       4.049   4.703  16.329  0.00  0.00    +0.000 HD
ENDBRANCH   2   5
BRANCH   1  21
ATOM     17  C   UNL     1      -0.402  10.394  19.770  0.00  0.00    +0.000 A 
ATOM     18  C   UNL     1      -0.687  10.874  21.060  0.00  0.00    +0.000 A 
ATOM     19  C   UNL     1      -0.061  10.318  22.171  0.00  0.00    +0.000 A 
ATOM     20  C   UNL     1       0.831   9.259  22.003  0.00  0.00    +0.000 A 
ATOM     21  C   UNL     1       1.110   8.757  20.728  0.00  0.00    +0.000 A 
ATOM     22  C   UNL     1       0.534   9.364  19.612  0.00  0.00    +0.000 A 
BRANCH  17  26
ATOM     23  C   UNL     1      -3.022  10.666  15.613  0.00  0.00    +0.000 C 
ATOM     24  C   UNL     1      -2.240  10.977  16.820  0.00  0.00    +0.000 A 
ATOM     25  N   UNL     1      -1.826  10.146  17.749  0.00  0.00    +0.000 NA
ATOM     26  C   UNL     1      -1.114  10.944  18.624  0.00  0.00    +0.000 A 
ATOM     27  N   UNL     1      -1.100  12.238  18.270  0.00  0.00    +0.000 NA
ATOM     28  N   UNL     1      -1.804  12.233  17.131  0.00  0.00    +0.000 N 
ATOM     29  H   UNL     1      -1.936  13.099  16.619  0.00  0.00    +0.000 HD
ENDBRANCH  17  26
ENDBRANCH   1  21
TORSDOF 3
ENDMDL
MODEL 3
REMARK VINA RESULT:      -9.4      0.892      1.022
REMARK  Name = 
REMARK  4 active torsions:
REMARK  status: ('A' for Active; 'I' for Inactive)
REMARK    1  A    between atoms: C_1  and  C_2
REMARK    2  A    between atoms: C_4  and  C_5
REMARK    3  A    between atoms: C_9  and  N_10
REMARK    4  A    between atoms: C_11  and  C_13
REMARK                            x       y       z     vdW  Elec       q    Type
REMARK                         _______ _______ _______ _____ _____    ______ ____
ROOT
ATOM      1  N   UNL     1       1.814   8.283  20.145  0.00  0.00    +0.000 N 
ATOM      2  C   UNL     1       2.266   7.744  18.960  0.00  0.00    +0.000 C 
ATOM      3  O   UNL     1       2.061   8.243  17.853  0.00  0.00    +0.000 OA
ATOM      4  H   UNL     1       2.225   7.969  21.012  0.00  0.00    +0.000 HD
ENDROOT
BRANCH   2   5
ATOM      5  C   UNL     1       2.950   6.407  19.076  0.00  0.00    +0.000 A 
ATOM      6  C   UNL     1       4.162   6.430  18.489  0.00  0.00    +0.000 A 
ATOM      7  N   UNL     1       4.585   5.379  17.712  0.00  0.00    +0.000 N 
ATOM      8  C   UNL     1       3.739   4.347  17.340  0.00  0.00    +0.000 A 
ATOM      9  O   UNL     1       3.967   3.644  16.366  0.00  0.00    +0.000 OA
ATOM     10  C   UNL     1       2.564   4.137  18.215  0.00  0.00    +0.000 A 
ATOM     11  C   UNL     1       1.850   2.940  18.148  0.00  0.00    +0.000 A 
ATOM     12  C   UNL     1       0.940   2.633  19.156  0.00  0.00    +0.000 A 
ATOM     13  C   UNL     1       0.770   3.508  20.230  0.00  0.00    +0.000 A 
ATOM     14  C   UNL     1       1.433   4.742  20.252  0.00  0.00    +0.000 A 
ATOM     15  C   UNL     1       2.285   5.097  19.198  0.00  0.00    +0.000 A 
ATOM     16  H   UNL     1       5.394   5.515  17.114  0.00  0.00    +0.000 HD
ENDBRANCH   2   5
BRANCH   1  21
ATOM     17  C   UNL     1      -0.902  10.592  19.179  0.00  0.00    +0.000 A 
ATOM     18  C   UNL     1      -1.087  11.318  20.368  0.00  0.00    +0.000 A 
ATOM     19  C   UNL     1      -0.281  11.072  21.474  0.00  0.00    +0.000 A 
ATOM     20  C   UNL     1       0.695  10.078  21.411  0.00  0.00    +0.000 A 
ATOM     21  C   UNL     1       0.877   9.332  20.242  0.00  0.00    +0.000 A 
ATOM     22  C   UNL     1       0.115   9.631  19.112  0.00  0.00    +0.000 A 
BRANCH  17  26
ATOM     23  C   UNL     1      -3.045  10.121  14.774  0.00  0.00    +0.000 C 
ATOM     24  C   UNL     1      -2.662  10.558  16.126  0.00  0.00    +0.000 A 
ATOM     25  N   UNL     1      -1.809   9.988  16.946  0.00  0.00    +0.000 NA
ATOM     26  C   UNL     1      -1.796  10.817  18.050  0.00  0.00    +0.000 A 
ATOM     27  N   UNL     1      -2.632  11.861  17.940  0.00  0.00    +0.000 NA
ATOM     28  N   UNL     1      -3.156  11.683  16.721  0.00  0.00    +0.000 N 
ATOM     29  H   UNL     1      -3.821  12.356  16.358  0.00  0.00    +0.000 HD
ENDBRANCH  17  26
ENDBRANCH   1  21
TORSDOF 3
ENDMDL
MODEL 4
REMARK VINA RESULT:      -9.3      1.837      3.177
REMARK  Name = 
REMARK  4 active torsions:
REMARK  status: ('A' for Active; 'I' for Inactive)
REMARK    1  A    between atoms: C_1  and  C_2
REMARK    2  A    between atoms: C_4  and  C_5
REMARK    3  A    between atoms: C_9  and  N_10
REMARK    4  A    between atoms: C_11  and  C_13
REMARK                            x       y       z     vdW  Elec       q    Type
REMARK                         _______ _______ _______ _____ _____    ______ ____
ROOT
ATOM      1  N   UNL     1       2.394   7.688  19.438  0.00  0.00    +0.000 N 
ATOM      2  C   UNL     1       2.812   7.634  18.126  0.00  0.00    +0.000 C 
ATOM      3  O   UNL     1       2.503   8.463  17.270  0.00  0.00    +0.000 OA
ATOM      4  H   UNL     1       2.880   7.133  20.128  0.00  0.00    +0.000 HD
ENDROOT
BRANCH   2   5
ATOM      5  C   UNL     1       3.600   6.407  17.747  0.00  0.00    +0.000 A 
ATOM      6  C   UNL     1       2.846   5.296  17.849  0.00  0.00    +0.000 A 
ATOM      7  N   UNL     1       3.358   4.148  18.401  0.00  0.00    +0.000 N 
ATOM      8  C   UNL     1       4.585   4.120  19.044  0.00  0.00    +0.000 A 
ATOM      9  O   UNL     1       4.871   3.252  19.855  0.00  0.00    +0.000 OA
ATOM     10  C   UNL     1       5.533   5.191  18.658  0.00  0.00    +0.000 A 
ATOM     11  C   UNL     1       6.887   5.066  18.966  0.00  0.00    +0.000 A 
ATOM     12  C   UNL     1       7.805   5.920  18.358  0.00  0.00    +0.000 A 
ATOM     13  C   UNL     1       7.365   6.869  17.433  0.00  0.00    +0.000 A 
ATOM     14  C   UNL     1       5.996   7.039  17.188  0.00  0.00    +0.000 A 
ATOM     15  C   UNL     1       5.061   6.243  17.860  0.00  0.00    +0.000 A 
ATOM     16  H   UNL     1       2.714   3.408  18.663  0.00  0.00    +0.000 HD
ENDBRANCH   2   5
BRANCH   1  21
ATOM     17  C   UNL     1      -0.442  10.053  19.409  0.00  0.00    +0.000 A 
ATOM     18  C   UNL     1      -0.702  10.195  20.783  0.00  0.00    +0.000 A 
ATOM     19  C   UNL     1       0.092   9.540  21.719  0.00  0.00    +0.000 A 
ATOM     20  C   UNL     1       1.131   8.717  21.288  0.00  0.00    +0.000 A 
ATOM     21  C   UNL     1       1.389   8.549  19.925  0.00  0.00    +0.000 A 
ATOM     22  C   UNL     1       0.636   9.263  18.992  0.00  0.00    +0.000 A 
BRANCH  17  26
ATOM     23  C   UNL     1      -3.128  10.820  15.357  0.00  0.00    +0.000 C 
ATOM     24  C   UNL     1      -2.451  10.954  16.656  0.00  0.00    +0.000 A 
ATOM     25  N   UNL     1      -1.772  10.039  17.310  0.00  0.00    +0.000 NA
ATOM     26  C   UNL     1      -1.322  10.694  18.440  0.00  0.00    +0.000 A 
ATOM     27  N   UNL     1      -1.725  11.972  18.508  0.00  0.00    +0.000 NA
ATOM     28  N   UNL     1      -2.422  12.115  17.374  0.00  0.00    +0.000 N 
ATOM     29  H   UNL     1      -2.833  13.014  17.148  0.00  0.00    +0.000 HD
ENDBRANCH  17  26
ENDBRANCH   1  21
TORSDOF 3
ENDMDL
MODEL 5
REMARK VINA RESULT:      -9.1      2.414      3.557
REMARK  Name = 
REMARK  4 active torsions:
REMARK  status: ('A' for Active; 'I' for Inactive)
REMARK    1  A    between atoms: C_1  and  C_2
REMARK    2  A    between atoms: C_4  and  C_5
REMARK    3  A    between atoms: C_9  and  N_10
REMARK    4  A    between atoms: C_11  and  C_13
REMARK                            x       y       z     vdW  Elec       q    Type
REMARK                         _______ _______ _______ _____ _____    ______ ____
ROOT
ATOM      1  N   UNL     1       1.805   8.383  17.726  0.00  0.00    +0.000 N 
ATOM      2  C   UNL     1       2.282   7.481  18.653  0.00  0.00    +0.000 C 
ATOM      3  O   UNL     1       2.208   7.642  19.872  0.00  0.00    +0.000 OA
ATOM      4  H   UNL     1       1.672   8.077  16.773  0.00  0.00    +0.000 HD
ENDROOT
BRANCH   2   5
ATOM      5  C   UNL     1       3.025   6.301  18.086  0.00  0.00    +0.000 A 
ATOM      6  C   UNL     1       2.336   5.159  18.271  0.00  0.00    +0.000 A 
ATOM      7  N   UNL     1       2.975   4.011  18.671  0.00  0.00    +0.000 N 
ATOM      8  C   UNL     1       4.298   4.005  19.082  0.00  0.00    +0.000 A 
ATOM      9  O   UNL     1       4.752   3.119  19.790  0.00  0.00    +0.000 OA
ATOM     10  C   UNL     1       5.127   5.125  18.580  0.00  0.00    +0.000 A 
ATOM     11  C   UNL     1       6.518   5.040  18.635  0.00  0.00    +0.000 A 
ATOM     12  C   UNL     1       7.284   5.951  17.911  0.00  0.00    +0.000 A 
ATOM     13  C   UNL     1       6.656   6.917  17.123  0.00  0.00    +0.000 A 
ATOM     14  C   UNL     1       5.261   7.044  17.134  0.00  0.00    +0.000 A 
ATOM     15  C   UNL     1       4.487   6.188  17.927  0.00  0.00    +0.000 A 
ATOM     16  H   UNL     1       2.412   3.237  19.011  0.00  0.00    +0.000 HD
ENDBRANCH   2   5
BRANCH   1  21
ATOM     17  C   UNL     1      -0.469  11.201  18.448  0.00  0.00    +0.000 A 
ATOM     18  C   UNL     1       0.444  12.234  18.723  0.00  0.00    +0.000 A 
ATOM     19  C   UNL     1       1.813  12.005  18.626  0.00  0.00    +0.000 A 
ATOM     20  C   UNL     1       2.278  10.737  18.282  0.00  0.00    +0.000 A 
ATOM     21  C   UNL     1       1.383   9.694  18.026  0.00  0.00    +0.000 A 
ATOM     22  C   UNL     1       0.011   9.946  18.055  0.00  0.00    +0.000 A 
BRANCH  17  26
ATOM     23  C   UNL     1      -5.326  11.120  17.656  0.00  0.00    +0.000 C 
ATOM     24  C   UNL     1      -3.981  11.366  18.200  0.00  0.00    +0.000 A 
ATOM     25  N   UNL     1      -2.842  10.848  17.801  0.00  0.00    +0.000 NA
ATOM     26  C   UNL     1      -1.897  11.439  18.617  0.00  0.00    +0.000 A 
ATOM     27  N   UNL     1      -2.426  12.283  19.516  0.00  0.00    +0.000 NA
ATOM     28  N   UNL     1      -3.732  12.229  19.229  0.00  0.00    +0.000 N 
ATOM     29  H   UNL     1      -4.385  12.802  19.752  0.00  0.00    +0.000 HD
ENDBRANCH  17  26
ENDBRANCH   1  21
TORSDOF 3
ENDMDL
MODEL 6
REMARK VINA RESULT:      -9.1      1.325      1.699
REMARK  Name = 
REMARK  4 active torsions:
REMARK  status: ('A' for Active; 'I' for Inactive)
REMARK    1  A    between atoms: C_1  and  C_2
REMARK    2  A    between atoms: C_4  and  C_5
REMARK    3  A    between atoms: C_9  and  N_10
REMARK    4  A    between atoms: C_11  and  C_13
REMARK                            x       y       z     vdW  Elec       q    Type
REMARK                         _______ _______ _______ _____ _____    ______ ____
ROOT
ATOM      1  N   UNL     1       1.936   7.896  20.995  0.00  0.00    +0.000 N 
ATOM      2  C   UNL     1       2.211   7.458  19.716  0.00  0.00    +0.000 C 
ATOM      3  O   UNL     1       1.865   8.054  18.695  0.00  0.00    +0.000 OA
ATOM      4  H   UNL     1       2.456   7.504  21.766  0.00  0.00    +0.000 HD
ENDROOT
BRANCH   2   5
ATOM      5  C   UNL     1       2.877   6.111  19.623  0.00  0.00    +0.000 A 
ATOM      6  C   UNL     1       4.125   6.221  19.129  0.00  0.00    +0.000 A 
ATOM      7  N   UNL     1       4.593   5.327  18.197  0.00  0.00    +0.000 N 
ATOM      8  C   UNL     1       3.767   4.398  17.584  0.00  0.00    +0.000 A 
ATOM      9  O   UNL     1       4.054   3.886  16.512  0.00  0.00    +0.000 OA
ATOM     10  C   UNL     1       2.535   4.049  18.327  0.00  0.00    +0.000 A 
ATOM     11  C   UNL     1       1.820   2.900  17.991  0.00  0.00    +0.000 A 
ATOM     12  C   UNL     1       0.843   2.426  18.862  0.00  0.00    +0.000 A 
ATOM     13  C   UNL     1       0.609   3.088  20.069  0.00  0.00    +0.000 A 
ATOM     14  C   UNL     1       1.276   4.284  20.365  0.00  0.00    +0.000 A 
ATOM     15  C   UNL     1       2.197   4.814  19.453  0.00  0.00    +0.000 A 
ATOM     16  H   UNL     1       5.440   5.558  17.688  0.00  0.00    +0.000 HD
ENDBRANCH   2   5
BRANCH   1  21
ATOM     17  C   UNL     1       0.009  11.024  20.625  0.00  0.00    +0.000 A 
ATOM     18  C   UNL     1      -0.782  11.004  21.787  0.00  0.00    +0.000 A 
ATOM     19  C   UNL     1      -0.644   9.975  22.713  0.00  0.00    +0.000 A 
ATOM     20  C   UNL     1       0.264   8.945  22.470  0.00  0.00    +0.000 A 
ATOM     21  C   UNL     1       1.043   8.940  21.310  0.00  0.00    +0.000 A 
ATOM     22  C   UNL     1       0.952  10.010  20.419  0.00  0.00    +0.000 A 
BRANCH  17  26
ATOM     23  C   UNL     1      -0.197  15.478  18.542  0.00  0.00    +0.000 C 
ATOM     24  C   UNL     1      -0.267  14.033  18.811  0.00  0.00    +0.000 A 
ATOM     25  N   UNL     1       0.139  13.392  19.883  0.00  0.00    +0.000 NA
ATOM     26  C   UNL     1      -0.193  12.074  19.635  0.00  0.00    +0.000 A 
ATOM     27  N   UNL     1      -0.765  11.888  18.436  0.00  0.00    +0.000 NA
ATOM     28  N   UNL     1      -0.810  13.131  17.942  0.00  0.00    +0.000 N 
ATOM     29  H   UNL     1      -1.227  13.295  17.032  0.00  0.00    +0.000 HD
ENDBRANCH  17  26
ENDBRANCH   1  21
TORSDOF 3
ENDMDL
MODEL 7
REMARK VINA RESULT:      -9.1      2.824      8.150
REMARK  Name = 
REMARK  4 active torsions:
REMARK  status: ('A' for Active; 'I' for Inactive)
REMARK    1  A    between atoms: C_1  and  C_2
REMARK    2  A    between atoms: C_4  and  C_5
REMARK    3  A    between atoms: C_9  and  N_10
REMARK    4  A    between atoms: C_11  and  C_13
REMARK                            x       y       z     vdW  Elec       q    Type
REMARK                         _______ _______ _______ _____ _____    ______ ____
ROOT
ATOM      1  N   UNL     1       1.529   6.928  20.936  0.00  0.00    +0.000 N 
ATOM      2  C   UNL     1       1.488   8.113  20.233  0.00  0.00    +0.000 C 
ATOM      3  O   UNL     1       1.668   8.200  19.018  0.00  0.00    +0.000 OA
ATOM      4  H   UNL     1       1.131   6.897  21.864  0.00  0.00    +0.000 HD
ENDROOT
BRANCH   2   5
ATOM      5  C   UNL     1       1.321   9.355  21.068  0.00  0.00    +0.000 A 
ATOM      6  C   UNL     1       1.268   9.055  22.380  0.00  0.00    +0.000 A 
ATOM      7  N   UNL     1       0.357   9.668  23.204  0.00  0.00    +0.000 N 
ATOM      8  C   UNL     1      -0.662  10.470  22.714  0.00  0.00    +0.000 A 
ATOM      9  O   UNL     1      -1.677  10.691  23.358  0.00  0.00    +0.000 OA
ATOM     10  C   UNL     1      -0.422  11.062  21.378  0.00  0.00    +0.000 A 
ATOM     11  C   UNL     1      -1.197  12.137  20.944  0.00  0.00    +0.000 A 
ATOM     12  C   UNL     1      -0.787  12.865  19.830  0.00  0.00    +0.000 A 
ATOM     13  C   UNL     1       0.402  12.529  19.178  0.00  0.00    +0.000 A 
ATOM     14  C   UNL     1       1.133  11.401  19.573  0.00  0.00    +0.000 A 
ATOM     15  C   UNL     1       0.681  10.612  20.638  0.00  0.00    +0.000 A 
ATOM     16  H   UNL     1       0.192   9.271  24.123  0.00  0.00    +0.000 HD
ENDBRANCH   2   5
BRANCH   1  21
ATOM     17  C   UNL     1       3.736   4.534  19.194  0.00  0.00    +0.000 A 
ATOM     18  C   UNL     1       3.078   3.316  19.441  0.00  0.00    +0.000 A 
ATOM     19  C   UNL     1       1.880   3.296  20.147  0.00  0.00    +0.000 A 
ATOM     20  C   UNL     1       1.347   4.488  20.637  0.00  0.00    +0.000 A 
ATOM     21  C   UNL     1       2.000   5.705  20.418  0.00  0.00    +0.000 A 
ATOM     22  C   UNL     1       3.164   5.728  19.648  0.00  0.00    +0.000 A 
BRANCH  17  26
ATOM     23  C   UNL     1       7.089   4.626  15.593  0.00  0.00    +0.000 C 
ATOM     24  C   UNL     1       6.408   4.565  16.896  0.00  0.00    +0.000 A 
ATOM     25  N   UNL     1       5.128   4.724  17.145  0.00  0.00    +0.000 NA
ATOM     26  C   UNL     1       5.022   4.530  18.508  0.00  0.00    +0.000 A 
ATOM     27  N   UNL     1       6.199   4.283  19.102  0.00  0.00    +0.000 NA
ATOM     28  N   UNL     1       7.052   4.299  18.070  0.00  0.00    +0.000 N 
ATOM     29  H   UNL     1       8.036   4.113  18.229  0.00  0.00    +0.000 HD
ENDBRANCH  17  26
ENDBRANCH   1  21
TORSDOF 3
ENDMDL
MODEL 8
REMARK VINA RESULT:      -9.0      1.928      2.275
REMARK  Name = 
REMARK  4 active torsions:
REMARK  status: ('A' for Active; 'I' for Inactive)
REMARK    1  A    between atoms: C_1  and  C_2
REMARK    2  A    between atoms: C_4  and  C_5
REMARK    3  A    between atoms: C_9  and  N_10
REMARK    4  A    between atoms: C_11  and  C_13
REMARK                            x       y       z     vdW  Elec       q    Type
REMARK                         _______ _______ _______ _____ _____    ______ ____
ROOT
ATOM      1  N   UNL     1       1.724   8.388  18.430  0.00  0.00    +0.000 N 
ATOM      2  C   UNL     1       1.963   7.644  19.565  0.00  0.00    +0.000 C 
ATOM      3  O   UNL     1       1.657   8.004  20.702  0.00  0.00    +0.000 OA
ATOM      4  H   UNL     1       1.768   7.933  17.530  0.00  0.00    +0.000 HD
ENDROOT
BRANCH   2   5
ATOM      5  C   UNL     1       2.746   6.374  19.354  0.00  0.00    +0.000 A 
ATOM      6  C   UNL     1       3.446   6.422  18.204  0.00  0.00    +0.000 A 
ATOM      7  N   UNL     1       3.501   5.332  17.371  0.00  0.00    +0.000 N 
ATOM      8  C   UNL     1       2.707   4.213  17.563  0.00  0.00    +0.000 A 
ATOM      9  O   UNL     1       2.455   3.435  16.654  0.00  0.00    +0.000 OA
ATOM     10  C   UNL     1       2.212   4.010  18.943  0.00  0.00    +0.000 A 
ATOM     11  C   UNL     1       1.710   2.767  19.327  0.00  0.00    +0.000 A 
ATOM     12  C   UNL     1       1.518   2.498  20.680  0.00  0.00    +0.000 A 
ATOM     13  C   UNL     1       1.854   3.460  21.634  0.00  0.00    +0.000 A 
ATOM     14  C   UNL     1       2.285   4.733  21.237  0.00  0.00    +0.000 A 
ATOM     15  C   UNL     1       2.397   5.040  19.876  0.00  0.00    +0.000 A 
ATOM     16  H   UNL     1       3.844   5.464  16.425  0.00  0.00    +0.000 HD
ENDBRANCH   2   5
BRANCH   1  21
ATOM     17  C   UNL     1      -0.520  11.320  18.513  0.00  0.00    +0.000 A 
ATOM     18  C   UNL     1       0.404  12.379  18.538  0.00  0.00    +0.000 A 
ATOM     19  C   UNL     1       1.770  12.120  18.482  0.00  0.00    +0.000 A 
ATOM     20  C   UNL     1       2.222  10.802  18.432  0.00  0.00    +0.000 A 
ATOM     21  C   UNL     1       1.316   9.737  18.428  0.00  0.00    +0.000 A 
ATOM     22  C   UNL     1      -0.054  10.003  18.412  0.00  0.00    +0.000 A 
BRANCH  17  26
ATOM     23  C   UNL     1      -5.332  11.509  17.500  0.00  0.00    +0.000 C 
ATOM     24  C   UNL     1      -4.007  11.654  18.122  0.00  0.00    +0.000 A 
ATOM     25  N   UNL     1      -2.871  11.120  17.734  0.00  0.00    +0.000 NA
ATOM     26  C   UNL     1      -1.944  11.604  18.637  0.00  0.00    +0.000 A 
ATOM     27  N   UNL     1      -2.482  12.396  19.577  0.00  0.00    +0.000 NA
ATOM     28  N   UNL     1      -3.774  12.421  19.228  0.00  0.00    +0.000 N 
ATOM     29  H   UNL     1      -4.428  12.979  19.765  0.00  0.00    +0.000 HD
ENDBRANCH  17  26
ENDBRANCH   1  21
TORSDOF 3
ENDMDL
MODEL 9
REMARK VINA RESULT:      -8.9      2.827      8.129
REMARK  Name = 
REMARK  4 active torsions:
REMARK  status: ('A' for Active; 'I' for Inactive)
REMARK    1  A    between atoms: C_1  and  C_2
REMARK    2  A    between atoms: C_4  and  C_5
REMARK    3  A    between atoms: C_9  and  N_10
REMARK    4  A    between atoms: C_11  and  C_13
REMARK                            x       y       z     vdW  Elec       q    Type
REMARK                         _______ _______ _______ _____ _____    ______ ____
ROOT
ATOM      1  N   UNL     1       3.088   7.528  18.418  0.00  0.00    +0.000 N 
ATOM      2  C   UNL     1       2.183   7.685  19.446  0.00  0.00    +0.000 C 
ATOM      3  O   UNL     1       2.116   6.942  20.425  0.00  0.00    +0.000 OA
ATOM      4  H   UNL     1       3.253   8.301  17.790  0.00  0.00    +0.000 HD
ENDROOT
BRANCH   2   5
ATOM      5  C   UNL     1       1.169   8.782  19.253  0.00  0.00    +0.000 A 
ATOM      6  C   UNL     1       1.304   9.360  18.044  0.00  0.00    +0.000 A 
ATOM      7  N   UNL     1       1.225  10.724  17.905  0.00  0.00    +0.000 N 
ATOM      8  C   UNL     1       1.193  11.578  18.996  0.00  0.00    +0.000 A 
ATOM      9  O   UNL     1       1.513  12.754  18.907  0.00  0.00    +0.000 OA
ATOM     10  C   UNL     1       0.717  10.977  20.264  0.00  0.00    +0.000 A 
ATOM     11  C   UNL     1       0.317  11.799  21.317  0.00  0.00    +0.000 A 
ATOM     12  C   UNL     1      -0.391  11.246  22.381  0.00  0.00    +0.000 A 
ATOM     13  C   UNL     1      -0.713   9.888  22.371  0.00  0.00    +0.000 A 
ATOM     14  C   UNL     1      -0.242   9.054  21.348  0.00  0.00    +0.000 A 
ATOM     15  C   UNL     1       0.544   9.587  20.318  0.00  0.00    +0.000 A 
ATOM     16  H   UNL     1       1.544  11.141  17.037  0.00  0.00    +0.000 HD
ENDBRANCH   2   5
BRANCH   1  21
ATOM     17  C   UNL     1       5.369   5.146  16.756  0.00  0.00    +0.000 A 
ATOM     18  C   UNL     1       5.601   4.217  17.785  0.00  0.00    +0.000 A 
ATOM     19  C   UNL     1       4.966   4.357  19.015  0.00  0.00    +0.000 A 
ATOM     20  C   UNL     1       4.119   5.443  19.234  0.00  0.00    +0.000 A 
ATOM     21  C   UNL     1       3.894   6.387  18.228  0.00  0.00    +0.000 A 
ATOM     22  C   UNL     1       4.477   6.203  16.973  0.00  0.00    +0.000 A 
BRANCH  17  26
ATOM     23  C   UNL     1       6.638   3.619  12.253  0.00  0.00    +0.000 C 
ATOM     24  C   UNL     1       6.580   4.300  13.556  0.00  0.00    +0.000 A 
ATOM     25  N   UNL     1       5.633   4.226  14.463  0.00  0.00    +0.000 NA
ATOM     26  C   UNL     1       6.091   5.020  15.496  0.00  0.00    +0.000 A 
ATOM     27  N   UNL     1       7.275   5.596  15.238  0.00  0.00    +0.000 NA
ATOM     28  N   UNL     1       7.567   5.121  14.021  0.00  0.00    +0.000 N 
ATOM     29  H   UNL     1       8.442   5.380  13.578  0.00  0.00    +0.000 HD
ENDBRANCH  17  26
ENDBRANCH   1  21
TORSDOF 3
ENDMDL
