MODEL 1
REMARK VINA RESULT:      -8.4      0.000      0.000
REMARK  Name = 
REMARK  7 active torsions:
REMARK  status: ('A' for Active; 'I' for Inactive)
REMARK    1  A    between atoms: C_1  and  C_2
REMARK    2  A    between atoms: C_2  and  N_3
REMARK    3  A    between atoms: N_3  and  C_4
REMARK    4  A    between atoms: N_3  and  C_18
REMARK    5  A    between atoms: C_4  and  C_5
REMARK    6  A    between atoms: N_7  and  C_8
REMARK    7  A    between atoms: C_18  and  C_19
REMARK                            x       y       z     vdW  Elec       q    Type
REMARK                         _______ _______ _______ _____ _____    ______ ____
ROOT
ATOM      1  C   UNL     1       4.861   5.687  16.272  0.00  0.00    +0.000 C 
ENDROOT
BRANCH   1   2
ATOM      2  C   UNL     1       4.354   6.830  17.159  0.00  0.00    +0.000 C 
ATOM      3  O   UNL     1       5.081   7.777  17.461  0.00  0.00    +0.000 OA
ATOM      4  N   UNL     1       3.058   6.648  17.616  0.00  0.00    +0.000 N 
ATOM      5  H   UNL     1       2.717   5.697  17.639  0.00  0.00    +0.000 HD
BRANCH   4   6
ATOM      6  C   UNL     1       2.408   7.578  18.446  0.00  0.00    +0.000 A 
ATOM      7  C   UNL     1       1.840   8.721  17.830  0.00  0.00    +0.000 A 
ATOM      8  C   UNL     1       1.108   9.650  18.577  0.00  0.00    +0.000 A 
ATOM      9  C   UNL     1       1.031   9.432  19.931  0.00  0.00    +0.000 A 
ATOM     10  N   UNL     1       0.396  10.177  20.917  0.00  0.00    +0.000 N 
ATOM     11  C   UNL     1       0.625   9.568  22.160  0.00  0.00    +0.000 A 
ATOM     12  O   UNL     1       0.221   9.955  23.241  0.00  0.00    +0.000 OA
ATOM     13  N   UNL     1       1.407   8.431  21.912  0.00  0.00    +0.000 N 
ATOM     14  C   UNL     1       1.640   8.340  20.544  0.00  0.00    +0.000 A 
ATOM     15  C   UNL     1       2.321   7.382  19.832  0.00  0.00    +0.000 A 
ATOM     16  H   UNL     1      -0.148  11.016  20.798  0.00  0.00    +0.000 HD
ATOM     17  H   UNL     1       1.722   7.798  22.628  0.00  0.00    +0.000 HD
ENDBRANCH   4   6
ENDBRANCH   1   2
BRANCH   1  18
ATOM     18  N   UNL     1       6.262   5.297  16.537  0.00  0.00    +0.000 NA
BRANCH  18  20
ATOM     19  C   UNL     1       6.193   3.973  14.393  0.00  0.00    +0.000 C 
ATOM     20  C   UNL     1       7.003   4.841  15.351  0.00  0.00    +0.000 C 
ENDBRANCH  18  20
BRANCH  18  21
ATOM     21  C   UNL     1       6.433   4.303  17.631  0.00  0.00    +0.000 C 
BRANCH  21  22
ATOM     22  C   UNL     1       5.101   3.828  18.203  0.00  0.00    +0.000 A 
ATOM     23  N   UNL     1       4.704   4.199  19.379  0.00  0.00    +0.000 NA
ATOM     24  C   UNL     1       3.446   3.751  19.818  0.00  0.00    +0.000 A 
ATOM     25  C   UNL     1       3.002   4.128  21.087  0.00  0.00    +0.000 A 
ATOM     26  C   UNL     1       1.732   3.750  21.538  0.00  0.00    +0.000 A 
ATOM     27  C   UNL     1       0.896   2.988  20.723  0.00  0.00    +0.000 A 
ATOM     28  C   UNL     1       1.331   2.590  19.458  0.00  0.00    +0.000 A 
ATOM     29  C   UNL     1       2.600   2.970  19.021  0.00  0.00    +0.000 A 
ATOM     30  C   UNL     1       3.098   2.577  17.694  0.00  0.00    +0.000 A 
ATOM     31  O   UNL     1       2.409   1.937  16.910  0.00  0.00    +0.000 OA
ATOM     32  N   UNL     1       4.365   3.001  17.391  0.00  0.00    +0.000 N 
ATOM     33  H   UNL     1       4.686   2.799  16.445  0.00  0.00    +0.000 HD
ENDBRANCH  21  22
ENDBRANCH  18  21
ENDBRANCH   1  18
TORSDOF 6
ENDMDL
MODEL 2
REMARK VINA RESULT:      -8.3      1.347      1.566
REMARK  Name = 
REMARK  7 active torsions:
REMARK  status: ('A' for Active; 'I' for Inactive)
REMARK    1  A    between atoms: C_1  and  C_2
REMARK    2  A    between atoms: C_2  and  N_3
REMARK    3  A    between atoms: N_3  and  C_4
REMARK    4  A    between atoms: N_3  and  C_18
REMARK    5  A    between atoms: C_4  and  C_5
REMARK    6  A    between atoms: N_7  and  C_8
REMARK    7  A    between atoms: C_18  and  C_19
REMARK                            x       y       z     vdW  Elec       q    Type
REMARK                         _______ _______ _______ _____ _____    ______ ____
ROOT
ATOM      1  C   UNL     1       5.579   6.216  16.133  0.00  0.00    +0.000 C 
ENDROOT
BRANCH   1   2
ATOM      2  C   UNL     1       4.814   6.801  17.325  0.00  0.00    +0.000 C 
ATOM      3  O   UNL     1       5.212   6.645  18.480  0.00  0.00    +0.000 OA
ATOM      4  N   UNL     1       3.638   7.444  16.972  0.00  0.00    +0.000 N 
ATOM      5  H   UNL     1       3.225   7.177  16.089  0.00  0.00    +0.000 HD
BRANCH   4   6
ATOM      6  C   UNL     1       2.787   8.045  17.916  0.00  0.00    +0.000 A 
ATOM      7  C   UNL     1       2.198   9.286  17.569  0.00  0.00    +0.000 A 
ATOM      8  C   UNL     1       1.278   9.907  18.421  0.00  0.00    +0.000 A 
ATOM      9  C   UNL     1       1.036   9.291  19.625  0.00  0.00    +0.000 A 
ATOM     10  N   UNL     1       0.197   9.671  20.665  0.00  0.00    +0.000 N 
ATOM     11  C   UNL     1       0.312   8.732  21.702  0.00  0.00    +0.000 A 
ATOM     12  O   UNL     1      -0.276   8.755  22.768  0.00  0.00    +0.000 OA
ATOM     13  N   UNL     1       1.232   7.767  21.269  0.00  0.00    +0.000 N 
ATOM     14  C   UNL     1       1.662   8.102  19.989  0.00  0.00    +0.000 A 
ATOM     15  C   UNL     1       2.529   7.441  19.154  0.00  0.00    +0.000 A 
ATOM     16  H   UNL     1      -0.408  10.475  20.704  0.00  0.00    +0.000 HD
ATOM     17  H   UNL     1       1.507   6.967  21.815  0.00  0.00    +0.000 HD
ENDBRANCH   4   6
ENDBRANCH   1   2
BRANCH   1  18
ATOM     18  N   UNL     1       5.865   4.770  16.253  0.00  0.00    +0.000 NA
BRANCH  18  20
ATOM     19  C   UNL     1       6.362   3.925  13.931  0.00  0.00    +0.000 C 
ATOM     20  C   UNL     1       6.887   4.270  15.321  0.00  0.00    +0.000 C 
ENDBRANCH  18  20
BRANCH  18  21
ATOM     21  C   UNL     1       4.666   3.893  16.178  0.00  0.00    +0.000 C 
BRANCH  21  22
ATOM     22  C   UNL     1       4.069   3.599  17.551  0.00  0.00    +0.000 A 
ATOM     23  N   UNL     1       2.839   3.897  17.828  0.00  0.00    +0.000 NA
ATOM     24  C   UNL     1       2.352   3.556  19.101  0.00  0.00    +0.000 A 
ATOM     25  C   UNL     1       1.033   3.879  19.427  0.00  0.00    +0.000 A 
ATOM     26  C   UNL     1       0.493   3.506  20.663  0.00  0.00    +0.000 A 
ATOM     27  C   UNL     1       1.272   2.810  21.587  0.00  0.00    +0.000 A 
ATOM     28  C   UNL     1       2.596   2.494  21.284  0.00  0.00    +0.000 A 
ATOM     29  C   UNL     1       3.124   2.874  20.050  0.00  0.00    +0.000 A 
ATOM     30  C   UNL     1       4.514   2.558  19.686  0.00  0.00    +0.000 A 
ATOM     31  O   UNL     1       5.247   1.920  20.431  0.00  0.00    +0.000 OA
ATOM     32  N   UNL     1       4.914   2.999  18.452  0.00  0.00    +0.000 N 
ATOM     33  H   UNL     1       5.850   2.717  18.162  0.00  0.00    +0.000 HD
ENDBRANCH  21  22
ENDBRANCH  18  21
ENDBRANCH   1  18
TORSDOF 6
ENDMDL
MODEL 3
REMARK VINA RESULT:      -8.2      2.319      4.751
REMARK  Name = 
REMARK  7 active torsions:
REMARK  status: ('A' for Active; 'I' for Inactive)
REMARK    1  A    between atoms: C_1  and  C_2
REMARK    2  A    between atoms: C_2  and  N_3
REMARK    3  A    between atoms: N_3  and  C_4
REMARK    4  A    between atoms: N_3  and  C_18
REMARK    5  A    between atoms: C_4  and  C_5
REMARK    6  A    between atoms: N_7  and  C_8
REMARK    7  A    between atoms: C_18  and  C_19
REMARK                            x       y       z     vdW  Elec       q    Type
REMARK                         _______ _______ _______ _____ _____    ______ ____
ROOT
ATOM      1  C   UNL     1       2.805   3.855  20.153  0.00  0.00    +0.000 C 
ENDROOT
BRANCH   1   2
ATOM      2  C   UNL     1       1.934   5.111  20.258  0.00  0.00    +0.000 C 
ATOM      3  O   UNL     1       0.727   5.036  20.494  0.00  0.00    +0.000 OA
ATOM      4  N   UNL     1       2.620   6.288  20.005  0.00  0.00    +0.000 N 
ATOM      5  H   UNL     1       3.464   6.209  19.455  0.00  0.00    +0.000 HD
BRANCH   4   6
ATOM      6  C   UNL     1       2.003   7.551  20.045  0.00  0.00    +0.000 A 
ATOM      7  C   UNL     1       1.446   7.968  21.280  0.00  0.00    +0.000 A 
ATOM      8  C   UNL     1       0.887   9.243  21.421  0.00  0.00    +0.000 A 
ATOM      9  C   UNL     1       0.846  10.028  20.295  0.00  0.00    +0.000 A 
ATOM     10  N   UNL     1       0.347  11.314  20.126  0.00  0.00    +0.000 N 
ATOM     11  C   UNL     1       0.503  11.685  18.782  0.00  0.00    +0.000 A 
ATOM     12  O   UNL     1       0.171  12.743  18.279  0.00  0.00    +0.000 OA
ATOM     13  N   UNL     1       1.116  10.602  18.136  0.00  0.00    +0.000 N 
ATOM     14  C   UNL     1       1.341   9.595  19.068  0.00  0.00    +0.000 A 
ATOM     15  C   UNL     1       1.942   8.370  18.909  0.00  0.00    +0.000 A 
ATOM     16  H   UNL     1      -0.062  11.911  20.826  0.00  0.00    +0.000 HD
ATOM     17  H   UNL     1       1.352  10.591  17.157  0.00  0.00    +0.000 HD
ENDBRANCH   4   6
ENDBRANCH   1   2
BRANCH   1  18
ATOM     18  N   UNL     1       2.731   3.180  18.839  0.00  0.00    +0.000 NA
BRANCH  18  20
ATOM     19  C   UNL     1       0.437   2.136  18.840  0.00  0.00    +0.000 C 
ATOM     20  C   UNL     1       1.949   1.934  18.836  0.00  0.00    +0.000 C 
ENDBRANCH  18  20
BRANCH  18  21
ATOM     21  C   UNL     1       4.049   2.931  18.195  0.00  0.00    +0.000 C 
BRANCH  21  22
ATOM     22  C   UNL     1       4.852   4.212  17.991  0.00  0.00    +0.000 A 
ATOM     23  N   UNL     1       5.875   4.490  18.734  0.00  0.00    +0.000 NA
ATOM     24  C   UNL     1       6.588   5.670  18.456  0.00  0.00    +0.000 A 
ATOM     25  C   UNL     1       7.686   5.997  19.253  0.00  0.00    +0.000 A 
ATOM     26  C   UNL     1       8.456   7.132  18.973  0.00  0.00    +0.000 A 
ATOM     27  C   UNL     1       8.128   7.953  17.895  0.00  0.00    +0.000 A 
ATOM     28  C   UNL     1       7.024   7.648  17.098  0.00  0.00    +0.000 A 
ATOM     29  C   UNL     1       6.263   6.516  17.390  0.00  0.00    +0.000 A 
ATOM     30  C   UNL     1       5.092   6.155  16.575  0.00  0.00    +0.000 A 
ATOM     31  O   UNL     1       4.764   6.807  15.592  0.00  0.00    +0.000 OA
ATOM     32  N   UNL     1       4.423   5.029  16.973  0.00  0.00    +0.000 N 
ATOM     33  H   UNL     1       3.659   4.729  16.368  0.00  0.00    +0.000 HD
ENDBRANCH  21  22
ENDBRANCH  18  21
ENDBRANCH   1  18
TORSDOF 6
ENDMDL
MODEL 4
REMARK VINA RESULT:      -8.1      1.582      2.090
REMARK  Name = 
REMARK  7 active torsions:
REMARK  status: ('A' for Active; 'I' for Inactive)
REMARK    1  A    between atoms: C_1  and  C_2
REMARK    2  A    between atoms: C_2  and  N_3
REMARK    3  A    between atoms: N_3  and  C_4
REMARK    4  A    between atoms: N_3  and  C_18
REMARK    5  A    between atoms: C_4  and  C_5
REMARK    6  A    between atoms: N_7  and  C_8
REMARK    7  A    between atoms: C_18  and  C_19
REMARK                            x       y       z     vdW  Elec       q    Type
REMARK                         _______ _______ _______ _____ _____    ______ ____
ROOT
ATOM      1  C   UNL     1       5.953   6.237  16.338  0.00  0.00    +0.000 C 
ENDROOT
BRANCH   1   2
ATOM      2  C   UNL     1       5.071   6.684  17.509  0.00  0.00    +0.000 C 
ATOM      3  O   UNL     1       5.386   6.447  18.675  0.00  0.00    +0.000 OA
ATOM      4  N   UNL     1       3.895   7.304  17.116  0.00  0.00    +0.000 N 
ATOM      5  H   UNL     1       3.565   7.097  16.184  0.00  0.00    +0.000 HD
BRANCH   4   6
ATOM      6  C   UNL     1       2.946   7.785  18.034  0.00  0.00    +0.000 A 
ATOM      7  C   UNL     1       2.787   7.069  19.246  0.00  0.00    +0.000 A 
ATOM      8  C   UNL     1       1.921   7.529  20.245  0.00  0.00    +0.000 A 
ATOM      9  C   UNL     1       1.193   8.659  19.958  0.00  0.00    +0.000 A 
ATOM     10  N   UNL     1       0.258   9.334  20.734  0.00  0.00    +0.000 N 
ATOM     11  C   UNL     1      -0.240  10.419  19.996  0.00  0.00    +0.000 A 
ATOM     12  O   UNL     1      -1.078  11.221  20.365  0.00  0.00    +0.000 OA
ATOM     13  N   UNL     1       0.417  10.397  18.758  0.00  0.00    +0.000 N 
ATOM     14  C   UNL     1       1.307   9.328  18.743  0.00  0.00    +0.000 A 
ATOM     15  C   UNL     1       2.185   8.931  17.764  0.00  0.00    +0.000 A 
ATOM     16  H   UNL     1      -0.036   9.113  21.671  0.00  0.00    +0.000 HD
ATOM     17  H   UNL     1       0.256  11.067  18.024  0.00  0.00    +0.000 HD
ENDBRANCH   4   6
ENDBRANCH   1   2
BRANCH   1  18
ATOM     18  N   UNL     1       6.065   4.770  16.196  0.00  0.00    +0.000 NA
BRANCH  18  20
ATOM     19  C   UNL     1       6.259   3.885  13.843  0.00  0.00    +0.000 C 
ATOM     20  C   UNL     1       6.966   4.327  15.121  0.00  0.00    +0.000 C 
ENDBRANCH  18  20
BRANCH  18  21
ATOM     21  C   UNL     1       4.764   4.059  16.065  0.00  0.00    +0.000 C 
BRANCH  21  22
ATOM     22  C   UNL     1       4.129   3.747  17.416  0.00  0.00    +0.000 A 
ATOM     23  N   UNL     1       2.870   3.958  17.632  0.00  0.00    +0.000 NA
ATOM     24  C   UNL     1       2.352   3.606  18.891  0.00  0.00    +0.000 A 
ATOM     25  C   UNL     1       1.000   3.837  19.151  0.00  0.00    +0.000 A 
ATOM     26  C   UNL     1       0.434   3.448  20.371  0.00  0.00    +0.000 A 
ATOM     27  C   UNL     1       1.218   2.828  21.342  0.00  0.00    +0.000 A 
ATOM     28  C   UNL     1       2.574   2.604  21.104  0.00  0.00    +0.000 A 
ATOM     29  C   UNL     1       3.128   3.000  19.886  0.00  0.00    +0.000 A 
ATOM     30  C   UNL     1       4.552   2.780  19.590  0.00  0.00    +0.000 A 
ATOM     31  O   UNL     1       5.295   2.211  20.379  0.00  0.00    +0.000 OA
ATOM     32  N   UNL     1       4.974   3.227  18.365  0.00  0.00    +0.000 N 
ATOM     33  H   UNL     1       5.940   3.009  18.122  0.00  0.00    +0.000 HD
ENDBRANCH  21  22
ENDBRANCH  18  21
ENDBRANCH   1  18
TORSDOF 6
ENDMDL
MODEL 5
REMARK VINA RESULT:      -7.9      2.044      4.425
REMARK  Name = 
REMARK  7 active torsions:
REMARK  status: ('A' for Active; 'I' for Inactive)
REMARK    1  A    between atoms: C_1  and  C_2
REMARK    2  A    between atoms: C_2  and  N_3
REMARK    3  A    between atoms: N_3  and  C_4
REMARK    4  A    between atoms: N_3  and  C_18
REMARK    5  A    between atoms: C_4  and  C_5
REMARK    6  A    between atoms: N_7  and  C_8
REMARK    7  A    between atoms: C_18  and  C_19
REMARK                            x       y       z     vdW  Elec       q    Type
REMARK                         _______ _______ _______ _____ _____    ______ ____
ROOT
ATOM      1  C   UNL     1       3.031   3.467  19.914  0.00  0.00    +0.000 C 
ENDROOT
BRANCH   1   2
ATOM      2  C   UNL     1       2.462   4.840  20.289  0.00  0.00    +0.000 C 
ATOM      3  O   UNL     1       1.879   5.022  21.358  0.00  0.00    +0.000 OA
ATOM      4  N   UNL     1       2.618   5.797  19.298  0.00  0.00    +0.000 N 
ATOM      5  H   UNL     1       2.741   5.455  18.355  0.00  0.00    +0.000 HD
BRANCH   4   6
ATOM      6  C   UNL     1       2.162   7.119  19.440  0.00  0.00    +0.000 A 
ATOM      7  C   UNL     1       2.148   7.935  18.282  0.00  0.00    +0.000 A 
ATOM      8  C   UNL     1       1.633   9.236  18.325  0.00  0.00    +0.000 A 
ATOM      9  C   UNL     1       1.214   9.693  19.551  0.00  0.00    +0.000 A 
ATOM     10  N   UNL     1       0.679  10.927  19.903  0.00  0.00    +0.000 N 
ATOM     11  C   UNL     1       0.432  10.932  21.284  0.00  0.00    +0.000 A 
ATOM     12  O   UNL     1      -0.030  11.853  21.933  0.00  0.00    +0.000 OA
ATOM     13  N   UNL     1       0.821   9.674  21.766  0.00  0.00    +0.000 N 
ATOM     14  C   UNL     1       1.284   8.911  20.700  0.00  0.00    +0.000 A 
ATOM     15  C   UNL     1       1.735   7.614  20.681  0.00  0.00    +0.000 A 
ATOM     16  H   UNL     1       0.483  11.707  19.297  0.00  0.00    +0.000 HD
ATOM     17  H   UNL     1       0.753   9.397  22.731  0.00  0.00    +0.000 HD
ENDBRANCH   4   6
ENDBRANCH   1   2
BRANCH   1  18
ATOM     18  N   UNL     1       2.899   3.132  18.480  0.00  0.00    +0.000 NA
BRANCH  18  20
ATOM     19  C   UNL     1       0.618   2.102  18.784  0.00  0.00    +0.000 C 
ATOM     20  C   UNL     1       2.022   1.985  18.199  0.00  0.00    +0.000 C 
ENDBRANCH  18  20
BRANCH  18  21
ATOM     21  C   UNL     1       4.190   2.947  17.765  0.00  0.00    +0.000 C 
BRANCH  21  22
ATOM     22  C   UNL     1       4.995   4.238  17.666  0.00  0.00    +0.000 A 
ATOM     23  N   UNL     1       5.942   4.507  18.508  0.00  0.00    +0.000 NA
ATOM     24  C   UNL     1       6.665   5.699  18.325  0.00  0.00    +0.000 A 
ATOM     25  C   UNL     1       7.681   6.016  19.228  0.00  0.00    +0.000 A 
ATOM     26  C   UNL     1       8.461   7.163  19.047  0.00  0.00    +0.000 A 
ATOM     27  C   UNL     1       8.227   8.007  17.962  0.00  0.00    +0.000 A 
ATOM     28  C   UNL     1       7.205   7.713  17.059  0.00  0.00    +0.000 A 
ATOM     29  C   UNL     1       6.432   6.568  17.252  0.00  0.00    +0.000 A 
ATOM     30  C   UNL     1       5.346   6.216  16.323  0.00  0.00    +0.000 A 
ATOM     31  O   UNL     1       5.104   6.889  15.330  0.00  0.00    +0.000 OA
ATOM     32  N   UNL     1       4.654   5.075  16.632  0.00  0.00    +0.000 N 
ATOM     33  H   UNL     1       3.953   4.784  15.952  0.00  0.00    +0.000 HD
ENDBRANCH  21  22
ENDBRANCH  18  21
ENDBRANCH   1  18
TORSDOF 6
ENDMDL
MODEL 6
REMARK VINA RESULT:      -7.8      2.163      4.978
REMARK  Name = 
REMARK  7 active torsions:
REMARK  status: ('A' for Active; 'I' for Inactive)
REMARK    1  A    between atoms: C_1  and  C_2
REMARK    2  A    between atoms: C_2  and  N_3
REMARK    3  A    between atoms: N_3  and  C_4
REMARK    4  A    between atoms: N_3  and  C_18
REMARK    5  A    between atoms: C_4  and  C_5
REMARK    6  A    between atoms: N_7  and  C_8
REMARK    7  A    between atoms: C_18  and  C_19
REMARK                            x       y       z     vdW  Elec       q    Type
REMARK                         _______ _______ _______ _____ _____    ______ ____
ROOT
ATOM      1  C   UNL     1       2.773   5.127  20.426  0.00  0.00    +0.000 C 
ENDROOT
BRANCH   1   2
ATOM      2  C   UNL     1       2.273   6.505  19.977  0.00  0.00    +0.000 C 
ATOM      3  O   UNL     1       2.454   6.909  18.828  0.00  0.00    +0.000 OA
ATOM      4  N   UNL     1       1.676   7.238  20.990  0.00  0.00    +0.000 N 
ATOM      5  H   UNL     1       1.928   6.990  21.937  0.00  0.00    +0.000 HD
BRANCH   4   6
ATOM      6  C   UNL     1       1.155   8.528  20.788  0.00  0.00    +0.000 A 
ATOM      7  C   UNL     1       0.719   9.245  21.931  0.00  0.00    +0.000 A 
ATOM      8  C   UNL     1       0.264  10.563  21.821  0.00  0.00    +0.000 A 
ATOM      9  C   UNL     1       0.197  11.091  20.555  0.00  0.00    +0.000 A 
ATOM     10  N   UNL     1      -0.221  12.349  20.137  0.00  0.00    +0.000 N 
ATOM     11  C   UNL     1      -0.137  12.409  18.738  0.00  0.00    +0.000 A 
ATOM     12  O   UNL     1      -0.429  13.359  18.035  0.00  0.00    +0.000 OA
ATOM     13  N   UNL     1       0.349  11.165  18.311  0.00  0.00    +0.000 N 
ATOM     14  C   UNL     1       0.569  10.365  19.427  0.00  0.00    +0.000 A 
ATOM     15  C   UNL     1       1.069   9.088  19.506  0.00  0.00    +0.000 A 
ATOM     16  H   UNL     1      -0.535  13.113  20.712  0.00  0.00    +0.000 HD
ATOM     17  H   UNL     1       0.511  10.926  17.347  0.00  0.00    +0.000 HD
ENDBRANCH   4   6
ENDBRANCH   1   2
BRANCH   1  18
ATOM     18  N   UNL     1       2.354   4.019  19.542  0.00  0.00    +0.000 NA
BRANCH  18  20
ATOM     19  C   UNL     1       0.461   2.499  18.862  0.00  0.00    +0.000 C 
ATOM     20  C   UNL     1       1.108   3.350  19.950  0.00  0.00    +0.000 C 
ENDBRANCH  18  20
BRANCH  18  21
ATOM     21  C   UNL     1       3.401   2.991  19.297  0.00  0.00    +0.000 C 
BRANCH  21  22
ATOM     22  C   UNL     1       4.479   3.473  18.331  0.00  0.00    +0.000 A 
ATOM     23  N   UNL     1       4.314   3.396  17.048  0.00  0.00    +0.000 NA
ATOM     24  C   UNL     1       5.336   3.899  16.224  0.00  0.00    +0.000 A 
ATOM     25  C   UNL     1       5.187   3.815  14.839  0.00  0.00    +0.000 A 
ATOM     26  C   UNL     1       6.155   4.356  13.985  0.00  0.00    +0.000 A 
ATOM     27  C   UNL     1       7.285   4.981  14.511  0.00  0.00    +0.000 A 
ATOM     28  C   UNL     1       7.456   5.059  15.894  0.00  0.00    +0.000 A 
ATOM     29  C   UNL     1       6.486   4.514  16.734  0.00  0.00    +0.000 A 
ATOM     30  C   UNL     1       6.624   4.576  18.198  0.00  0.00    +0.000 A 
ATOM     31  O   UNL     1       7.570   5.140  18.733  0.00  0.00    +0.000 OA
ATOM     32  N   UNL     1       5.610   3.992  18.910  0.00  0.00    +0.000 N 
ATOM     33  H   UNL     1       5.660   4.100  19.923  0.00  0.00    +0.000 HD
ENDBRANCH  21  22
ENDBRANCH  18  21
ENDBRANCH   1  18
TORSDOF 6
ENDMDL
MODEL 7
REMARK VINA RESULT:      -7.8      1.108      1.634
REMARK  Name = 
REMARK  7 active torsions:
REMARK  status: ('A' for Active; 'I' for Inactive)
REMARK    1  A    between atoms: C_1  and  C_2
REMARK    2  A    between atoms: C_2  and  N_3
REMARK    3  A    between atoms: N_3  and  C_4
REMARK    4  A    between atoms: N_3  and  C_18
REMARK    5  A    between atoms: C_4  and  C_5
REMARK    6  A    between atoms: N_7  and  C_8
REMARK    7  A    between atoms: C_18  and  C_19
REMARK                            x       y       z     vdW  Elec       q    Type
REMARK                         _______ _______ _______ _____ _____    ______ ____
ROOT
ATOM      1  C   UNL     1       4.897   5.760  16.389  0.00  0.00    +0.000 C 
ENDROOT
BRANCH   1   2
ATOM      2  C   UNL     1       4.329   6.916  17.220  0.00  0.00    +0.000 C 
ATOM      3  O   UNL     1       5.034   7.868  17.559  0.00  0.00    +0.000 OA
ATOM      4  N   UNL     1       3.003   6.742  17.584  0.00  0.00    +0.000 N 
ATOM      5  H   UNL     1       2.659   5.792  17.596  0.00  0.00    +0.000 HD
BRANCH   4   6
ATOM      6  C   UNL     1       2.296   7.684  18.351  0.00  0.00    +0.000 A 
ATOM      7  C   UNL     1       2.147   7.423  19.735  0.00  0.00    +0.000 A 
ATOM      8  C   UNL     1       1.527   8.351  20.579  0.00  0.00    +0.000 A 
ATOM      9  C   UNL     1       1.016   9.479  19.987  0.00  0.00    +0.000 A 
ATOM     10  N   UNL     1       0.344  10.555  20.556  0.00  0.00    +0.000 N 
ATOM     11  C   UNL     1      -0.010  11.454  19.538  0.00  0.00    +0.000 A 
ATOM     12  O   UNL     1      -0.613  12.502  19.675  0.00  0.00    +0.000 OA
ATOM     13  N   UNL     1       0.467  10.908  18.337  0.00  0.00    +0.000 N 
ATOM     14  C   UNL     1       1.110   9.707  18.617  0.00  0.00    +0.000 A 
ATOM     15  C   UNL     1       1.758   8.841  17.770  0.00  0.00    +0.000 A 
ATOM     16  H   UNL     1       0.131  10.701  21.529  0.00  0.00    +0.000 HD
ATOM     17  H   UNL     1       0.355  11.346  17.438  0.00  0.00    +0.000 HD
ENDBRANCH   4   6
ENDBRANCH   1   2
BRANCH   1  18
ATOM     18  N   UNL     1       6.306   5.434  16.697  0.00  0.00    +0.000 NA
BRANCH  18  20
ATOM     19  C   UNL     1       6.171   4.420  14.393  0.00  0.00    +0.000 C 
ATOM     20  C   UNL     1       7.031   4.769  15.603  0.00  0.00    +0.000 C 
ENDBRANCH  18  20
BRANCH  18  21
ATOM     21  C   UNL     1       6.503   4.663  17.953  0.00  0.00    +0.000 C 
BRANCH  21  22
ATOM     22  C   UNL     1       5.210   4.033  18.462  0.00  0.00    +0.000 A 
ATOM     23  N   UNL     1       4.601   4.497  19.506  0.00  0.00    +0.000 NA
ATOM     24  C   UNL     1       3.393   3.887  19.888  0.00  0.00    +0.000 A 
ATOM     25  C   UNL     1       2.726   4.363  21.018  0.00  0.00    +0.000 A 
ATOM     26  C   UNL     1       1.492   3.821  21.396  0.00  0.00    +0.000 A 
ATOM     27  C   UNL     1       0.919   2.793  20.649  0.00  0.00    +0.000 A 
ATOM     28  C   UNL     1       1.581   2.296  19.526  0.00  0.00    +0.000 A 
ATOM     29  C   UNL     1       2.811   2.842  19.160  0.00  0.00    +0.000 A 
ATOM     30  C   UNL     1       3.542   2.352  17.982  0.00  0.00    +0.000 A 
ATOM     31  O   UNL     1       3.086   1.476  17.257  0.00  0.00    +0.000 OA
ATOM     32  N   UNL     1       4.744   2.962  17.739  0.00  0.00    +0.000 N 
ATOM     33  H   UNL     1       5.219   2.681  16.882  0.00  0.00    +0.000 HD
ENDBRANCH  21  22
ENDBRANCH  18  21
ENDBRANCH   1  18
TORSDOF 6
ENDMDL
MODEL 8
REMARK VINA RESULT:      -7.8      2.001      5.016
REMARK  Name = 
REMARK  7 active torsions:
REMARK  status: ('A' for Active; 'I' for Inactive)
REMARK    1  A    between atoms: C_1  and  C_2
REMARK    2  A    between atoms: C_2  and  N_3
REMARK    3  A    between atoms: N_3  and  C_4
REMARK    4  A    between atoms: N_3  and  C_18
REMARK    5  A    between atoms: C_4  and  C_5
REMARK    6  A    between atoms: N_7  and  C_8
REMARK    7  A    between atoms: C_18  and  C_19
REMARK                            x       y       z     vdW  Elec       q    Type
REMARK                         _______ _______ _______ _____ _____    ______ ____
ROOT
ATOM      1  C   UNL     1       3.206   4.817  20.100  0.00  0.00    +0.000 C 
ENDROOT
BRANCH   1   2
ATOM      2  C   UNL     1       2.088   5.816  20.416  0.00  0.00    +0.000 C 
ATOM      3  O   UNL     1       0.949   5.437  20.690  0.00  0.00    +0.000 OA
ATOM      4  N   UNL     1       2.475   7.142  20.298  0.00  0.00    +0.000 N 
ATOM      5  H   UNL     1       3.274   7.327  19.707  0.00  0.00    +0.000 HD
BRANCH   4   6
ATOM      6  C   UNL     1       1.599   8.214  20.539  0.00  0.00    +0.000 A 
ATOM      7  C   UNL     1       1.168   8.971  19.422  0.00  0.00    +0.000 A 
ATOM      8  C   UNL     1       0.233  10.003  19.571  0.00  0.00    +0.000 A 
ATOM      9  C   UNL     1      -0.182  10.280  20.851  0.00  0.00    +0.000 A 
ATOM     10  N   UNL     1      -1.077  11.241  21.305  0.00  0.00    +0.000 N 
ATOM     11  C   UNL     1      -1.154  11.158  22.704  0.00  0.00    +0.000 A 
ATOM     12  O   UNL     1      -1.837  11.853  23.434  0.00  0.00    +0.000 OA
ATOM     13  N   UNL     1      -0.293  10.122  23.093  0.00  0.00    +0.000 N 
ATOM     14  C   UNL     1       0.289   9.574  21.954  0.00  0.00    +0.000 A 
ATOM     15  C   UNL     1       1.165   8.523  21.836  0.00  0.00    +0.000 A 
ATOM     16  H   UNL     1      -1.602  11.900  20.755  0.00  0.00    +0.000 HD
ATOM     17  H   UNL     1      -0.150   9.838  24.048  0.00  0.00    +0.000 HD
ENDBRANCH   4   6
ENDBRANCH   1   2
BRANCH   1  18
ATOM     18  N   UNL     1       3.577   4.762  18.670  0.00  0.00    +0.000 NA
BRANCH  18  20
ATOM     19  C   UNL     1       1.778   3.244  17.769  0.00  0.00    +0.000 C 
ATOM     20  C   UNL     1       2.439   4.618  17.749  0.00  0.00    +0.000 C 
ENDBRANCH  18  20
BRANCH  18  21
ATOM     21  C   UNL     1       4.607   3.742  18.336  0.00  0.00    +0.000 C 
BRANCH  21  22
ATOM     22  C   UNL     1       5.411   4.108  17.092  0.00  0.00    +0.000 A 
ATOM     23  N   UNL     1       5.223   3.498  15.965  0.00  0.00    +0.000 NA
ATOM     24  C   UNL     1       5.975   3.921  14.856  0.00  0.00    +0.000 A 
ATOM     25  C   UNL     1       5.798   3.269  13.634  0.00  0.00    +0.000 A 
ATOM     26  C   UNL     1       6.485   3.698  12.493  0.00  0.00    +0.000 A 
ATOM     27  C   UNL     1       7.359   4.782  12.566  0.00  0.00    +0.000 A 
ATOM     28  C   UNL     1       7.559   5.434  13.783  0.00  0.00    +0.000 A 
ATOM     29  C   UNL     1       6.871   4.995  14.914  0.00  0.00    +0.000 A 
ATOM     30  C   UNL     1       7.048   5.655  16.217  0.00  0.00    +0.000 A 
ATOM     31  O   UNL     1       7.772   6.633  16.352  0.00  0.00    +0.000 OA
ATOM     32  N   UNL     1       6.327   5.119  17.251  0.00  0.00    +0.000 N 
ATOM     33  H   UNL     1       6.384   5.619  18.138  0.00  0.00    +0.000 HD
ENDBRANCH  21  22
ENDBRANCH  18  21
ENDBRANCH   1  18
TORSDOF 6
ENDMDL
MODEL 9
REMARK VINA RESULT:      -7.7      5.004      6.268
REMARK  Name = 
REMARK  7 active torsions:
REMARK  status: ('A' for Active; 'I' for Inactive)
REMARK    1  A    between atoms: C_1  and  C_2
REMARK    2  A    between atoms: C_2  and  N_3
REMARK    3  A    between atoms: N_3  and  C_4
REMARK    4  A    between atoms: N_3  and  C_18
REMARK    5  A    between atoms: C_4  and  C_5
REMARK    6  A    between atoms: N_7  and  C_8
REMARK    7  A    between atoms: C_18  and  C_19
REMARK                            x       y       z     vdW  Elec       q    Type
REMARK                         _______ _______ _______ _____ _____    ______ ____
ROOT
ATOM      1  C   UNL     1       7.689   6.444  18.174  0.00  0.00    +0.000 C 
ENDROOT
BRANCH   1   2
ATOM      2  C   UNL     1       7.884   7.959  18.060  0.00  0.00    +0.000 C 
ATOM      3  O   UNL     1       7.338   8.610  17.168  0.00  0.00    +0.000 OA
ATOM      4  N   UNL     1       8.760   8.481  18.999  0.00  0.00    +0.000 N 
ATOM      5  H   UNL     1       9.425   7.837  19.402  0.00  0.00    +0.000 HD
BRANCH   4   6
ATOM      6  C   UNL     1       9.079   9.849  19.063  0.00  0.00    +0.000 A 
ATOM      7  C   UNL     1       9.205  10.432  20.348  0.00  0.00    +0.000 A 
ATOM      8  C   UNL     1       9.599  11.767  20.496  0.00  0.00    +0.000 A 
ATOM      9  C   UNL     1       9.786  12.487  19.341  0.00  0.00    +0.000 A 
ATOM     10  N   UNL     1      10.159  13.815  19.173  0.00  0.00    +0.000 N 
ATOM     11  C   UNL     1      10.189  14.104  17.800  0.00  0.00    +0.000 A 
ATOM     12  O   UNL     1      10.469  15.173  17.291  0.00  0.00    +0.000 OA
ATOM     13  N   UNL     1       9.834  12.922  17.133  0.00  0.00    +0.000 N 
ATOM     14  C   UNL     1       9.605  11.928  18.079  0.00  0.00    +0.000 A 
ATOM     15  C   UNL     1       9.269  10.608  17.900  0.00  0.00    +0.000 A 
ATOM     16  H   UNL     1      10.381  14.486  19.890  0.00  0.00    +0.000 HD
ATOM     17  H   UNL     1       9.776  12.837  16.132  0.00  0.00    +0.000 HD
ENDBRANCH   4   6
ENDBRANCH   1   2
BRANCH   1  18
ATOM     18  N   UNL     1       6.620   5.908  17.304  0.00  0.00    +0.000 NA
BRANCH  18  20
ATOM     19  C   UNL     1       5.953   5.025  15.039  0.00  0.00    +0.000 C 
ATOM     20  C   UNL     1       7.037   5.641  15.919  0.00  0.00    +0.000 C 
ENDBRANCH  18  20
BRANCH  18  21
ATOM     21  C   UNL     1       5.370   6.714  17.291  0.00  0.00    +0.000 C 
BRANCH  21  22
ATOM     22  C   UNL     1       4.248   6.067  18.096  0.00  0.00    +0.000 A 
ATOM     23  N   UNL     1       4.104   4.780  18.135  0.00  0.00    +0.000 NA
ATOM     24  C   UNL     1       3.070   4.259  18.933  0.00  0.00    +0.000 A 
ATOM     25  C   UNL     1       2.888   2.876  18.980  0.00  0.00    +0.000 A 
ATOM     26  C   UNL     1       1.907   2.315  19.806  0.00  0.00    +0.000 A 
ATOM     27  C   UNL     1       1.097   3.135  20.590  0.00  0.00    +0.000 A 
ATOM     28  C   UNL     1       1.256   4.521  20.542  0.00  0.00    +0.000 A 
ATOM     29  C   UNL     1       2.235   5.068  19.712  0.00  0.00    +0.000 A 
ATOM     30  C   UNL     1       2.440   6.523  19.633  0.00  0.00    +0.000 A 
ATOM     31  O   UNL     1       1.791   7.304  20.317  0.00  0.00    +0.000 OA
ATOM     32  N   UNL     1       3.422   6.932  18.771  0.00  0.00    +0.000 N 
ATOM     33  H   UNL     1       3.622   7.932  18.769  0.00  0.00    +0.000 HD
ENDBRANCH  21  22
ENDBRANCH  18  21
ENDBRANCH   1  18
TORSDOF 6
ENDMDL
