MODEL 1
REMARK VINA RESULT:      -9.2      0.000      0.000
REMARK  Name = 
REMARK  5 active torsions:
REMARK  status: ('A' for Active; 'I' for Inactive)
REMARK    1  A    between atoms: C_1  and  N_2
REMARK    2  A    between atoms: C_8  and  N_9
REMARK    3  A    between atoms: N_9  and  C_10
REMARK    4  A    between atoms: C_10  and  C_11
REMARK    5  A    between atoms: C_13  and  C_14
REMARK                            x       y       z     vdW  Elec       q    Type
REMARK                         _______ _______ _______ _____ _____    ______ ____
ROOT
ATOM      1  C   UNL     1       8.085   8.949  17.525  0.00  0.00    +0.000 C 
ENDROOT
BRANCH   1   2
ATOM      2  C   UNL     1       7.385   7.639  17.402  0.00  0.00    +0.000 A 
ATOM      3  N   UNL     1       6.306   7.203  18.008  0.00  0.00    +0.000 NA
ATOM      4  C   UNL     1       6.159   5.939  17.487  0.00  0.00    +0.000 A 
ATOM      5  N   UNL     1       7.099   5.607  16.588  0.00  0.00    +0.000 NA
ATOM      6  O   UNL     1       7.914   6.737  16.527  0.00  0.00    +0.000 OA
BRANCH   4   7
ATOM      7  C   UNL     1       5.088   5.057  17.924  0.00  0.00    +0.000 A 
ATOM      8  C   UNL     1       5.359   4.025  18.836  0.00  0.00    +0.000 A 
ATOM      9  C   UNL     1       4.345   3.157  19.230  0.00  0.00    +0.000 A 
ATOM     10  F   UNL     1       4.627   2.174  20.097  0.00  0.00    +0.000 F 
ATOM     11  C   UNL     1       3.060   3.297  18.731  0.00  0.00    +0.000 A 
ATOM     12  F   UNL     1       2.091   2.451  19.108  0.00  0.00    +0.000 F 
ATOM     13  C   UNL     1       2.785   4.319  17.832  0.00  0.00    +0.000 A 
ATOM     14  F   UNL     1       1.545   4.465  17.340  0.00  0.00    +0.000 F 
ATOM     15  C   UNL     1       3.782   5.203  17.427  0.00  0.00    +0.000 A 
ENDBRANCH   4   7
ENDBRANCH   1   2
BRANCH   1  16
ATOM     16  N   UNL     1       8.765   9.156  18.805  0.00  0.00    +0.000 N 
ATOM     17  H   UNL     1       8.356   8.644  19.582  0.00  0.00    +0.000 HD
BRANCH  16  25
ATOM     18  C   UNL     1      11.803  15.672  17.146  0.00  0.00    +0.000 C 
ATOM     19  N   UNL     1      11.378  14.700  18.134  0.00  0.00    +0.000 N 
ATOM     20  C   UNL     1      10.888  15.177  19.421  0.00  0.00    +0.000 C 
ATOM     21  C   UNL     1      11.069  14.112  20.499  0.00  0.00    +0.000 C 
ATOM     22  C   UNL     1      10.428  12.831  20.049  0.00  0.00    +0.000 A 
ATOM     23  C   UNL     1       9.913  11.919  20.971  0.00  0.00    +0.000 A 
ATOM     24  C   UNL     1       9.341  10.723  20.525  0.00  0.00    +0.000 A 
ATOM     25  C   UNL     1       9.267  10.406  19.161  0.00  0.00    +0.000 A 
ATOM     26  C   UNL     1       9.835  11.303  18.252  0.00  0.00    +0.000 A 
ATOM     27  C   UNL     1      10.403  12.510  18.685  0.00  0.00    +0.000 A 
ATOM     28  C   UNL     1      11.000  13.436  17.678  0.00  0.00    +0.000 C 
ATOM     29  O   UNL     1      11.130  13.073  16.512  0.00  0.00    +0.000 OA
ENDBRANCH  16  25
ENDBRANCH   1  16
TORSDOF 4
ENDMDL
MODEL 2
REMARK VINA RESULT:      -9.1      4.618      9.815
REMARK  Name = 
REMARK  5 active torsions:
REMARK  status: ('A' for Active; 'I' for Inactive)
REMARK    1  A    between atoms: C_1  and  N_2
REMARK    2  A    between atoms: C_8  and  N_9
REMARK    3  A    between atoms: N_9  and  C_10
REMARK    4  A    between atoms: C_10  and  C_11
REMARK    5  A    between atoms: C_13  and  C_14
REMARK                            x       y       z     vdW  Elec       q    Type
REMARK                         _______ _______ _______ _____ _____    ______ ____
ROOT
ATOM      1  C   UNL     1       6.796   5.647  16.085  0.00  0.00    +0.000 C 
ENDROOT
BRANCH   1   2
ATOM      2  C   UNL     1       7.399   6.617  17.043  0.00  0.00    +0.000 A 
ATOM      3  N   UNL     1       7.567   7.914  16.932  0.00  0.00    +0.000 NA
ATOM      4  C   UNL     1       8.170   8.242  18.123  0.00  0.00    +0.000 A 
ATOM      5  N   UNL     1       8.360   7.197  18.943  0.00  0.00    +0.000 NA
ATOM      6  O   UNL     1       7.844   6.115  18.230  0.00  0.00    +0.000 OA
BRANCH   4   7
ATOM      7  C   UNL     1       8.585   9.606  18.414  0.00  0.00    +0.000 A 
ATOM      8  C   UNL     1       8.194  10.653  17.564  0.00  0.00    +0.000 A 
ATOM      9  C   UNL     1       8.617  11.954  17.820  0.00  0.00    +0.000 A 
ATOM     10  F   UNL     1       8.239  12.938  16.992  0.00  0.00    +0.000 F 
ATOM     11  C   UNL     1       9.426  12.234  18.910  0.00  0.00    +0.000 A 
ATOM     12  F   UNL     1       9.836  13.488  19.144  0.00  0.00    +0.000 F 
ATOM     13  C   UNL     1       9.810  11.203  19.757  0.00  0.00    +0.000 A 
ATOM     14  F   UNL     1      10.593  11.460  20.816  0.00  0.00    +0.000 F 
ATOM     15  C   UNL     1       9.396   9.894  19.524  0.00  0.00    +0.000 A 
ENDBRANCH   4   7
ENDBRANCH   1   2
BRANCH   1  16
ATOM     16  N   UNL     1       5.343   5.755  15.946  0.00  0.00    +0.000 N 
ATOM     17  H   UNL     1       5.040   6.395  15.217  0.00  0.00    +0.000 HD
BRANCH  16  25
ATOM     18  C   UNL     1       1.947   2.297  21.509  0.00  0.00    +0.000 C 
ATOM     19  N   UNL     1       2.147   3.487  20.706  0.00  0.00    +0.000 N 
ATOM     20  C   UNL     1       2.008   4.792  21.339  0.00  0.00    +0.000 C 
ATOM     21  C   UNL     1       1.645   5.859  20.311  0.00  0.00    +0.000 C 
ATOM     22  C   UNL     1       2.646   5.838  19.192  0.00  0.00    +0.000 A 
ATOM     23  C   UNL     1       2.941   6.991  18.465  0.00  0.00    +0.000 A 
ATOM     24  C   UNL     1       3.862   6.938  17.413  0.00  0.00    +0.000 A 
ATOM     25  C   UNL     1       4.509   5.744  17.061  0.00  0.00    +0.000 A 
ATOM     26  C   UNL     1       4.164   4.586  17.763  0.00  0.00    +0.000 A 
ATOM     27  C   UNL     1       3.249   4.627  18.825  0.00  0.00    +0.000 A 
ATOM     28  C   UNL     1       2.910   3.363  19.543  0.00  0.00    +0.000 C 
ATOM     29  O   UNL     1       3.307   2.285  19.109  0.00  0.00    +0.000 OA
ENDBRANCH  16  25
ENDBRANCH   1  16
TORSDOF 4
ENDMDL
MODEL 3
REMARK VINA RESULT:      -9.0      4.619      9.707
REMARK  Name = 
REMARK  5 active torsions:
REMARK  status: ('A' for Active; 'I' for Inactive)
REMARK    1  A    between atoms: C_1  and  N_2
REMARK    2  A    between atoms: C_8  and  N_9
REMARK    3  A    between atoms: N_9  and  C_10
REMARK    4  A    between atoms: C_10  and  C_11
REMARK    5  A    between atoms: C_13  and  C_14
REMARK                            x       y       z     vdW  Elec       q    Type
REMARK                         _______ _______ _______ _____ _____    ______ ____
ROOT
ATOM      1  C   UNL     1       6.772   5.739  16.125  0.00  0.00    +0.000 C 
ENDROOT
BRANCH   1   2
ATOM      2  C   UNL     1       7.406   6.705  17.067  0.00  0.00    +0.000 A 
ATOM      3  N   UNL     1       7.571   8.002  16.957  0.00  0.00    +0.000 NA
ATOM      4  C   UNL     1       8.213   8.325  18.129  0.00  0.00    +0.000 A 
ATOM      5  N   UNL     1       8.427   7.276  18.939  0.00  0.00    +0.000 NA
ATOM      6  O   UNL     1       7.888   6.198  18.237  0.00  0.00    +0.000 OA
BRANCH   4   7
ATOM      7  C   UNL     1       8.638   9.687  18.413  0.00  0.00    +0.000 A 
ATOM      8  C   UNL     1       9.417   9.954  19.549  0.00  0.00    +0.000 A 
ATOM      9  C   UNL     1       9.797  11.261  19.843  0.00  0.00    +0.000 A 
ATOM     10  F   UNL     1      10.535  11.495  20.937  0.00  0.00    +0.000 F 
ATOM     11  C   UNL     1       9.413  12.311  19.025  0.00  0.00    +0.000 A 
ATOM     12  F   UNL     1       9.775  13.567  19.321  0.00  0.00    +0.000 F 
ATOM     13  C   UNL     1       8.647  12.051  17.897  0.00  0.00    +0.000 A 
ATOM     14  F   UNL     1       8.267  13.058  17.095  0.00  0.00    +0.000 F 
ATOM     15  C   UNL     1       8.259  10.752  17.579  0.00  0.00    +0.000 A 
ENDBRANCH   4   7
ENDBRANCH   1   2
BRANCH   1  16
ATOM     16  N   UNL     1       5.322   5.886  15.991  0.00  0.00    +0.000 N 
ATOM     17  H   UNL     1       5.034   6.571  15.298  0.00  0.00    +0.000 HD
BRANCH  16  25
ATOM     18  C   UNL     1       2.091   2.253  21.541  0.00  0.00    +0.000 C 
ATOM     19  N   UNL     1       2.231   3.453  20.739  0.00  0.00    +0.000 N 
ATOM     20  C   UNL     1       2.024   4.748  21.373  0.00  0.00    +0.000 C 
ATOM     21  C   UNL     1       1.610   5.796  20.344  0.00  0.00    +0.000 C 
ATOM     22  C   UNL     1       2.614   5.827  19.229  0.00  0.00    +0.000 A 
ATOM     23  C   UNL     1       2.852   6.995  18.504  0.00  0.00    +0.000 A 
ATOM     24  C   UNL     1       3.777   6.989  17.455  0.00  0.00    +0.000 A 
ATOM     25  C   UNL     1       4.486   5.831  17.104  0.00  0.00    +0.000 A 
ATOM     26  C   UNL     1       4.199   4.655  17.804  0.00  0.00    +0.000 A 
ATOM     27  C   UNL     1       3.280   4.649  18.863  0.00  0.00    +0.000 A 
ATOM     28  C   UNL     1       3.004   3.368  19.579  0.00  0.00    +0.000 C 
ATOM     29  O   UNL     1       3.456   2.313  19.145  0.00  0.00    +0.000 OA
ENDBRANCH  16  25
ENDBRANCH   1  16
TORSDOF 4
ENDMDL
MODEL 4
REMARK VINA RESULT:      -9.0      7.102      8.417
REMARK  Name = 
REMARK  5 active torsions:
REMARK  status: ('A' for Active; 'I' for Inactive)
REMARK    1  A    between atoms: C_1  and  N_2
REMARK    2  A    between atoms: C_8  and  N_9
REMARK    3  A    between atoms: N_9  and  C_10
REMARK    4  A    between atoms: C_10  and  C_11
REMARK    5  A    between atoms: C_13  and  C_14
REMARK                            x       y       z     vdW  Elec       q    Type
REMARK                         _______ _______ _______ _____ _____    ______ ____
ROOT
ATOM      1  C   UNL     1       3.096   4.735  18.992  0.00  0.00    +0.000 C 
ENDROOT
BRANCH   1   2
ATOM      2  C   UNL     1       4.258   4.635  18.064  0.00  0.00    +0.000 A 
ATOM      3  N   UNL     1       4.288   4.625  16.752  0.00  0.00    +0.000 NA
ATOM      4  C   UNL     1       5.631   4.512  16.483  0.00  0.00    +0.000 A 
ATOM      5  N   UNL     1       6.404   4.464  17.578  0.00  0.00    +0.000 NA
ATOM      6  O   UNL     1       5.495   4.549  18.632  0.00  0.00    +0.000 OA
BRANCH   4   7
ATOM      7  C   UNL     1       6.127   4.418  15.118  0.00  0.00    +0.000 A 
ATOM      8  C   UNL     1       7.242   5.174  14.725  0.00  0.00    +0.000 A 
ATOM      9  C   UNL     1       7.698   5.114  13.412  0.00  0.00    +0.000 A 
ATOM     10  F   UNL     1       8.760   5.850  13.055  0.00  0.00    +0.000 F 
ATOM     11  C   UNL     1       7.063   4.311  12.478  0.00  0.00    +0.000 A 
ATOM     12  F   UNL     1       7.504   4.266  11.213  0.00  0.00    +0.000 F 
ATOM     13  C   UNL     1       5.964   3.556  12.863  0.00  0.00    +0.000 A 
ATOM     14  F   UNL     1       5.339   2.775  11.968  0.00  0.00    +0.000 F 
ATOM     15  C   UNL     1       5.491   3.596  14.172  0.00  0.00    +0.000 A 
ENDBRANCH   4   7
ENDBRANCH   1   2
BRANCH   1  16
ATOM     16  N   UNL     1       3.172   5.846  19.942  0.00  0.00    +0.000 N 
ATOM     17  H   UNL     1       3.146   5.562  20.918  0.00  0.00    +0.000 HD
BRANCH  16  25
ATOM     18  C   UNL     1      -1.008  11.551  22.043  0.00  0.00    +0.000 C 
ATOM     19  N   UNL     1      -0.330  10.809  20.998  0.00  0.00    +0.000 N 
ATOM     20  C   UNL     1       0.219  11.538  19.862  0.00  0.00    +0.000 C 
ATOM     21  C   UNL     1       0.327  10.635  18.638  0.00  0.00    +0.000 C 
ATOM     22  C   UNL     1       1.106   9.401  18.992  0.00  0.00    +0.000 A 
ATOM     23  C   UNL     1       1.855   8.720  18.033  0.00  0.00    +0.000 A 
ATOM     24  C   UNL     1       2.553   7.560  18.386  0.00  0.00    +0.000 A 
ATOM     25  C   UNL     1       2.525   7.053  19.694  0.00  0.00    +0.000 A 
ATOM     26  C   UNL     1       1.727   7.715  20.631  0.00  0.00    +0.000 A 
ATOM     27  C   UNL     1       1.029   8.883  20.292  0.00  0.00    +0.000 A 
ATOM     28  C   UNL     1       0.187   9.554  21.327  0.00  0.00    +0.000 C 
ATOM     29  O   UNL     1      -0.012   9.005  22.407  0.00  0.00    +0.000 OA
ENDBRANCH  16  25
ENDBRANCH   1  16
TORSDOF 4
ENDMDL
MODEL 5
REMARK VINA RESULT:      -9.0      6.867      8.256
REMARK  Name = 
REMARK  5 active torsions:
REMARK  status: ('A' for Active; 'I' for Inactive)
REMARK    1  A    between atoms: C_1  and  N_2
REMARK    2  A    between atoms: C_8  and  N_9
REMARK    3  A    between atoms: N_9  and  C_10
REMARK    4  A    between atoms: C_10  and  C_11
REMARK    5  A    between atoms: C_13  and  C_14
REMARK                            x       y       z     vdW  Elec       q    Type
REMARK                         _______ _______ _______ _____ _____    ______ ____
ROOT
ATOM      1  C   UNL     1       4.168   5.463  19.712  0.00  0.00    +0.000 C 
ENDROOT
BRANCH   1   2
ATOM      2  C   UNL     1       5.119   5.110  18.620  0.00  0.00    +0.000 A 
ATOM      3  N   UNL     1       4.993   5.243  17.320  0.00  0.00    +0.000 NA
ATOM      4  C   UNL     1       6.185   4.746  16.850  0.00  0.00    +0.000 A 
ATOM      5  N   UNL     1       7.021   4.331  17.815  0.00  0.00    +0.000 NA
ATOM      6  O   UNL     1       6.316   4.576  18.993  0.00  0.00    +0.000 OA
BRANCH   4   7
ATOM      7  C   UNL     1       6.463   4.659  15.425  0.00  0.00    +0.000 A 
ATOM      8  C   UNL     1       5.649   3.868  14.599  0.00  0.00    +0.000 A 
ATOM      9  C   UNL     1       5.932   3.755  13.241  0.00  0.00    +0.000 A 
ATOM     10  F   UNL     1       5.145   2.989  12.472  0.00  0.00    +0.000 F 
ATOM     11  C   UNL     1       7.016   4.416  12.686  0.00  0.00    +0.000 A 
ATOM     12  F   UNL     1       7.287   4.294  11.379  0.00  0.00    +0.000 F 
ATOM     13  C   UNL     1       7.821   5.204  13.497  0.00  0.00    +0.000 A 
ATOM     14  F   UNL     1       8.875   5.850  12.973  0.00  0.00    +0.000 F 
ATOM     15  C   UNL     1       7.556   5.337  14.858  0.00  0.00    +0.000 A 
ENDBRANCH   4   7
ENDBRANCH   1   2
BRANCH   1  16
ATOM     16  N   UNL     1       2.812   5.775  19.258  0.00  0.00    +0.000 N 
ATOM     17  H   UNL     1       2.494   5.213  18.474  0.00  0.00    +0.000 HD
BRANCH  16  25
ATOM     18  C   UNL     1      -0.590  11.549  22.345  0.00  0.00    +0.000 C 
ATOM     19  N   UNL     1       0.006  10.917  21.184  0.00  0.00    +0.000 N 
ATOM     20  C   UNL     1       0.683  11.752  20.200  0.00  0.00    +0.000 C 
ATOM     21  C   UNL     1       0.698  11.075  18.833  0.00  0.00    +0.000 C 
ATOM     22  C   UNL     1       1.288   9.700  18.961  0.00  0.00    +0.000 A 
ATOM     23  C   UNL     1       1.962   9.102  17.896  0.00  0.00    +0.000 A 
ATOM     24  C   UNL     1       2.481   7.811  18.036  0.00  0.00    +0.000 A 
ATOM     25  C   UNL     1       2.346   7.088  19.230  0.00  0.00    +0.000 A 
ATOM     26  C   UNL     1       1.622   7.678  20.270  0.00  0.00    +0.000 A 
ATOM     27  C   UNL     1       1.104   8.975  20.146  0.00  0.00    +0.000 A 
ATOM     28  C   UNL     1       0.335   9.563  21.283  0.00  0.00    +0.000 C 
ATOM     29  O   UNL     1       0.031   8.864  22.245  0.00  0.00    +0.000 OA
ENDBRANCH  16  25
ENDBRANCH   1  16
TORSDOF 4
ENDMDL
MODEL 6
REMARK VINA RESULT:      -8.7      1.479      1.827
REMARK  Name = 
REMARK  5 active torsions:
REMARK  status: ('A' for Active; 'I' for Inactive)
REMARK    1  A    between atoms: C_1  and  N_2
REMARK    2  A    between atoms: C_8  and  N_9
REMARK    3  A    between atoms: N_9  and  C_10
REMARK    4  A    between atoms: C_10  and  C_11
REMARK    5  A    between atoms: C_13  and  C_14
REMARK                            x       y       z     vdW  Elec       q    Type
REMARK                         _______ _______ _______ _____ _____    ______ ____
ROOT
ATOM      1  C   UNL     1       8.131   7.752  17.431  0.00  0.00    +0.000 C 
ENDROOT
BRANCH   1   2
ATOM      2  C   UNL     1       7.229   6.784  18.117  0.00  0.00    +0.000 A 
ATOM      3  N   UNL     1       6.019   6.389  17.795  0.00  0.00    +0.000 NA
ATOM      4  C   UNL     1       5.715   5.501  18.800  0.00  0.00    +0.000 A 
ATOM      5  N   UNL     1       6.696   5.343  19.702  0.00  0.00    +0.000 NA
ATOM      6  O   UNL     1       7.706   6.191  19.248  0.00  0.00    +0.000 OA
BRANCH   4   7
ATOM      7  C   UNL     1       4.420   4.841  18.865  0.00  0.00    +0.000 A 
ATOM      8  C   UNL     1       4.029   3.965  17.841  0.00  0.00    +0.000 A 
ATOM      9  C   UNL     1       2.777   3.358  17.881  0.00  0.00    +0.000 A 
ATOM     10  F   UNL     1       2.420   2.530  16.890  0.00  0.00    +0.000 F 
ATOM     11  C   UNL     1       1.903   3.608  18.927  0.00  0.00    +0.000 A 
ATOM     12  F   UNL     1       0.695   3.027  18.954  0.00  0.00    +0.000 F 
ATOM     13  C   UNL     1       2.287   4.470  19.945  0.00  0.00    +0.000 A 
ATOM     14  F   UNL     1       1.450   4.722  20.964  0.00  0.00    +0.000 F 
ATOM     15  C   UNL     1       3.536   5.085  19.929  0.00  0.00    +0.000 A 
ENDBRANCH   4   7
ENDBRANCH   1   2
BRANCH   1  16
ATOM     16  N   UNL     1       7.779   9.158  17.635  0.00  0.00    +0.000 N 
ATOM     17  H   UNL     1       7.262   9.574  16.865  0.00  0.00    +0.000 HD
BRANCH  16  25
ATOM     18  C   UNL     1      12.325  14.969  17.556  0.00  0.00    +0.000 C 
ATOM     19  N   UNL     1      11.769  13.819  18.243  0.00  0.00    +0.000 N 
ATOM     20  C   UNL     1      11.605  13.878  19.689  0.00  0.00    +0.000 C 
ATOM     21  C   UNL     1      11.608  12.477  20.293  0.00  0.00    +0.000 C 
ATOM     22  C   UNL     1      10.573  11.633  19.605  0.00  0.00    +0.000 A 
ATOM     23  C   UNL     1       9.940  10.583  20.270  0.00  0.00    +0.000 A 
ATOM     24  C   UNL     1       8.996   9.799  19.598  0.00  0.00    +0.000 A 
ATOM     25  C   UNL     1       8.660  10.039  18.257  0.00  0.00    +0.000 A 
ATOM     26  C   UNL     1       9.342  11.060  17.588  0.00  0.00    +0.000 A 
ATOM     27  C   UNL     1      10.283  11.858  18.253  0.00  0.00    +0.000 A 
ATOM     28  C   UNL     1      10.988  12.935  17.495  0.00  0.00    +0.000 C 
ATOM     29  O   UNL     1      10.857  13.015  16.277  0.00  0.00    +0.000 OA
ENDBRANCH  16  25
ENDBRANCH   1  16
TORSDOF 4
ENDMDL
MODEL 7
REMARK VINA RESULT:      -8.7      7.383     10.059
REMARK  Name = 
REMARK  5 active torsions:
REMARK  status: ('A' for Active; 'I' for Inactive)
REMARK    1  A    between atoms: C_1  and  N_2
REMARK    2  A    between atoms: C_8  and  N_9
REMARK    3  A    between atoms: N_9  and  C_10
REMARK    4  A    between atoms: C_10  and  C_11
REMARK    5  A    between atoms: C_13  and  C_14
REMARK                            x       y       z     vdW  Elec       q    Type
REMARK                         _______ _______ _______ _____ _____    ______ ____
ROOT
ATOM      1  C   UNL     1       1.522   9.940  18.372  0.00  0.00    +0.000 C 
ENDROOT
BRANCH   1   2
ATOM      2  C   UNL     1       1.823   8.542  18.790  0.00  0.00    +0.000 A 
ATOM      3  N   UNL     1       2.220   7.517  18.072  0.00  0.00    +0.000 NA
ATOM      4  C   UNL     1       2.323   6.516  19.009  0.00  0.00    +0.000 A 
ATOM      5  N   UNL     1       2.015   6.903  20.257  0.00  0.00    +0.000 NA
ATOM      6  O   UNL     1       1.686   8.251  20.115  0.00  0.00    +0.000 OA
BRANCH   4   7
ATOM      7  C   UNL     1       2.700   5.162  18.636  0.00  0.00    +0.000 A 
ATOM      8  C   UNL     1       2.105   4.066  19.280  0.00  0.00    +0.000 A 
ATOM      9  C   UNL     1       2.489   2.769  18.950  0.00  0.00    +0.000 A 
ATOM     10  F   UNL     1       1.913   1.737  19.583  0.00  0.00    +0.000 F 
ATOM     11  C   UNL     1       3.458   2.541  17.987  0.00  0.00    +0.000 A 
ATOM     12  F   UNL     1       3.828   1.290  17.682  0.00  0.00    +0.000 F 
ATOM     13  C   UNL     1       4.046   3.621  17.342  0.00  0.00    +0.000 A 
ATOM     14  F   UNL     1       4.987   3.415  16.407  0.00  0.00    +0.000 F 
ATOM     15  C   UNL     1       3.676   4.927  17.652  0.00  0.00    +0.000 A 
ENDBRANCH   4   7
ENDBRANCH   1   2
BRANCH   1  16
ATOM     16  N   UNL     1       0.253  10.102  17.661  0.00  0.00    +0.000 N 
ATOM     17  H   UNL     1       0.353  10.344  16.679  0.00  0.00    +0.000 HD
BRANCH  16  25
ATOM     18  C   UNL     1      -6.854  12.080  17.800  0.00  0.00    +0.000 C 
ATOM     19  N   UNL     1      -5.525  12.129  18.379  0.00  0.00    +0.000 N 
ATOM     20  C   UNL     1      -5.395  12.234  19.827  0.00  0.00    +0.000 C 
ATOM     21  C   UNL     1      -4.061  12.868  20.207  0.00  0.00    +0.000 C 
ATOM     22  C   UNL     1      -2.941  12.107  19.557  0.00  0.00    +0.000 A 
ATOM     23  C   UNL     1      -1.676  12.045  20.141  0.00  0.00    +0.000 A 
ATOM     24  C   UNL     1      -0.646  11.347  19.502  0.00  0.00    +0.000 A 
ATOM     25  C   UNL     1      -0.846  10.697  18.275  0.00  0.00    +0.000 A 
ATOM     26  C   UNL     1      -2.104  10.813  17.676  0.00  0.00    +0.000 A 
ATOM     27  C   UNL     1      -3.147  11.502  18.310  0.00  0.00    +0.000 A 
ATOM     28  C   UNL     1      -4.473  11.602  17.628  0.00  0.00    +0.000 C 
ATOM     29  O   UNL     1      -4.596  11.222  16.467  0.00  0.00    +0.000 OA
ENDBRANCH  16  25
ENDBRANCH   1  16
TORSDOF 4
ENDMDL
MODEL 8
REMARK VINA RESULT:      -8.6      7.558     10.419
REMARK  Name = 
REMARK  5 active torsions:
REMARK  status: ('A' for Active; 'I' for Inactive)
REMARK    1  A    between atoms: C_1  and  N_2
REMARK    2  A    between atoms: C_8  and  N_9
REMARK    3  A    between atoms: N_9  and  C_10
REMARK    4  A    between atoms: C_10  and  C_11
REMARK    5  A    between atoms: C_13  and  C_14
REMARK                            x       y       z     vdW  Elec       q    Type
REMARK                         _______ _______ _______ _____ _____    ______ ____
ROOT
ATOM      1  C   UNL     1       0.820  10.008  19.181  0.00  0.00    +0.000 C 
ENDROOT
BRANCH   1   2
ATOM      2  C   UNL     1       1.575   8.724  19.141  0.00  0.00    +0.000 A 
ATOM      3  N   UNL     1       2.239   8.169  18.154  0.00  0.00    +0.000 NA
ATOM      4  C   UNL     1       2.709   7.009  18.722  0.00  0.00    +0.000 A 
ATOM      5  N   UNL     1       2.361   6.853  20.009  0.00  0.00    +0.000 NA
ATOM      6  O   UNL     1       1.610   7.993  20.292  0.00  0.00    +0.000 OA
BRANCH   4   7
ATOM      7  C   UNL     1       3.479   6.044  17.953  0.00  0.00    +0.000 A 
ATOM      8  C   UNL     1       4.443   6.490  17.035  0.00  0.00    +0.000 A 
ATOM      9  C   UNL     1       5.157   5.571  16.272  0.00  0.00    +0.000 A 
ATOM     10  F   UNL     1       6.068   6.018  15.396  0.00  0.00    +0.000 F 
ATOM     11  C   UNL     1       4.930   4.211  16.405  0.00  0.00    +0.000 A 
ATOM     12  F   UNL     1       5.616   3.333  15.660  0.00  0.00    +0.000 F 
ATOM     13  C   UNL     1       3.982   3.764  17.316  0.00  0.00    +0.000 A 
ATOM     14  F   UNL     1       3.751   2.449  17.455  0.00  0.00    +0.000 F 
ATOM     15  C   UNL     1       3.258   4.664  18.094  0.00  0.00    +0.000 A 
ENDBRANCH   4   7
ENDBRANCH   1   2
BRANCH   1  16
ATOM     16  N   UNL     1       0.141  10.352  17.931  0.00  0.00    +0.000 N 
ATOM     17  H   UNL     1       0.689  10.935  17.306  0.00  0.00    +0.000 HD
BRANCH  16  25
ATOM     18  C   UNL     1      -5.838  13.862  20.456  0.00  0.00    +0.000 C 
ATOM     19  N   UNL     1      -5.242  12.850  19.605  0.00  0.00    +0.000 N 
ATOM     20  C   UNL     1      -5.872  12.549  18.327  0.00  0.00    +0.000 C 
ATOM     21  C   UNL     1      -5.527  11.134  17.872  0.00  0.00    +0.000 C 
ATOM     22  C   UNL     1      -4.036  10.961  17.862  0.00  0.00    +0.000 A 
ATOM     23  C   UNL     1      -3.418  10.072  16.982  0.00  0.00    +0.000 A 
ATOM     24  C   UNL     1      -2.028   9.914  17.010  0.00  0.00    +0.000 A 
ATOM     25  C   UNL     1      -1.223  10.633  17.906  0.00  0.00    +0.000 A 
ATOM     26  C   UNL     1      -1.860  11.479  18.818  0.00  0.00    +0.000 A 
ATOM     27  C   UNL     1      -3.252  11.653  18.795  0.00  0.00    +0.000 A 
ATOM     28  C   UNL     1      -3.887  12.566  19.791  0.00  0.00    +0.000 C 
ATOM     29  O   UNL     1      -3.220  13.032  20.710  0.00  0.00    +0.000 OA
ENDBRANCH  16  25
ENDBRANCH   1  16
TORSDOF 4
ENDMDL
MODEL 9
REMARK VINA RESULT:      -8.5      7.617     10.177
REMARK  Name = 
REMARK  5 active torsions:
REMARK  status: ('A' for Active; 'I' for Inactive)
REMARK    1  A    between atoms: C_1  and  N_2
REMARK    2  A    between atoms: C_8  and  N_9
REMARK    3  A    between atoms: N_9  and  C_10
REMARK    4  A    between atoms: C_10  and  C_11
REMARK    5  A    between atoms: C_13  and  C_14
REMARK                            x       y       z     vdW  Elec       q    Type
REMARK                         _______ _______ _______ _____ _____    ______ ____
ROOT
ATOM      1  C   UNL     1       1.663   8.757  21.018  0.00  0.00    +0.000 C 
ENDROOT
BRANCH   1   2
ATOM      2  C   UNL     1       0.871   9.314  19.886  0.00  0.00    +0.000 A 
ATOM      3  N   UNL     1      -0.378   9.716  19.851  0.00  0.00    +0.000 NA
ATOM      4  C   UNL     1      -0.529  10.117  18.545  0.00  0.00    +0.000 A 
ATOM      5  N   UNL     1       0.581   9.982  17.802  0.00  0.00    +0.000 NA
ATOM      6  O   UNL     1       1.514   9.452  18.692  0.00  0.00    +0.000 OA
BRANCH   4   7
ATOM      7  C   UNL     1      -1.804  10.606  18.042  0.00  0.00    +0.000 A 
ATOM      8  C   UNL     1      -2.626  11.393  18.864  0.00  0.00    +0.000 A 
ATOM      9  C   UNL     1      -3.861  11.833  18.400  0.00  0.00    +0.000 A 
ATOM     10  F   UNL     1      -4.633  12.577  19.203  0.00  0.00    +0.000 F 
ATOM     11  C   UNL     1      -4.297  11.503  17.126  0.00  0.00    +0.000 A 
ATOM     12  F   UNL     1      -5.493  11.923  16.690  0.00  0.00    +0.000 F 
ATOM     13  C   UNL     1      -3.486  10.729  16.307  0.00  0.00    +0.000 A 
ATOM     14  F   UNL     1      -3.896  10.402  15.072  0.00  0.00    +0.000 F 
ATOM     15  C   UNL     1      -2.244  10.281  16.748  0.00  0.00    +0.000 A 
ENDBRANCH   4   7
ENDBRANCH   1   2
BRANCH   1  16
ATOM     16  N   UNL     1       1.434   7.335  21.277  0.00  0.00    +0.000 N 
ATOM     17  H   UNL     1       1.522   7.069  22.254  0.00  0.00    +0.000 HD
BRANCH  16  25
ATOM     18  C   UNL     1       5.673   5.073  15.678  0.00  0.00    +0.000 C 
ATOM     19  N   UNL     1       4.591   4.828  16.612  0.00  0.00    +0.000 N 
ATOM     20  C   UNL     1       4.364   3.468  17.082  0.00  0.00    +0.000 C 
ATOM     21  C   UNL     1       2.916   3.280  17.521  0.00  0.00    +0.000 C 
ATOM     22  C   UNL     1       2.558   4.332  18.531  0.00  0.00    +0.000 A 
ATOM     23  C   UNL     1       1.595   4.094  19.512  0.00  0.00    +0.000 A 
ATOM     24  C   UNL     1       1.265   5.100  20.426  0.00  0.00    +0.000 A 
ATOM     25  C   UNL     1       1.882   6.359  20.390  0.00  0.00    +0.000 A 
ATOM     26  C   UNL     1       2.806   6.602  19.369  0.00  0.00    +0.000 A 
ATOM     27  C   UNL     1       3.151   5.599  18.452  0.00  0.00    +0.000 A 
ATOM     28  C   UNL     1       4.141   5.907  17.376  0.00  0.00    +0.000 C 
ATOM     29  O   UNL     1       4.525   7.061  17.207  0.00  0.00    +0.000 OA
ENDBRANCH  16  25
ENDBRANCH   1  16
TORSDOF 4
ENDMDL
