MODEL 1
REMARK VINA RESULT:      -9.6      0.000      0.000
REMARK  Name = 
REMARK  7 active torsions:
REMARK  status: ('A' for Active; 'I' for Inactive)
REMARK    1  A    between atoms: C_1  and  C_2
REMARK    2  A    between atoms: C_9  and  O_10
REMARK    3  A    between atoms: O_10  and  C_11
REMARK    4  A    between atoms: C_11  and  C_12
REMARK    5  A    between atoms: N_14  and  C_15
REMARK    6  A    between atoms: C_19  and  S_20
REMARK    7  A    between atoms: S_20  and  N_23
REMARK                            x       y       z     vdW  Elec       q    Type
REMARK                         _______ _______ _______ _____ _____    ______ ____
ROOT
ATOM      1  C   UNL     1       7.698   7.706  17.984  0.00  0.00    +0.000 C 
ATOM      2  O   UNL     1       8.192   6.929  18.801  0.00  0.00    +0.000 OA
ATOM      3  N   UNL     1       6.613   7.453  17.143  0.00  0.00    +0.000 N 
ATOM      4  H   UNL     1       6.525   8.045  16.323  0.00  0.00    +0.000 HD
ENDROOT
BRANCH   3   5
ATOM      5  C   UNL     1       5.927   6.223  17.149  0.00  0.00    +0.000 A 
ATOM      6  C   UNL     1       6.480   5.121  16.502  0.00  0.00    +0.000 A 
ATOM      7  C   UNL     1       5.680   4.054  16.122  0.00  0.00    +0.000 A 
ATOM      8  C   UNL     1       4.357   4.025  16.530  0.00  0.00    +0.000 A 
ATOM      9  C   UNL     1       3.906   4.966  17.464  0.00  0.00    +0.000 A 
ATOM     10  C   UNL     1       4.662   6.119  17.727  0.00  0.00    +0.000 A 
BRANCH   9  11
ATOM     11  S   UNL     1       2.330   4.701  18.256  0.00  0.00    +0.000 S 
ATOM     12  O   UNL     1       2.146   5.784  19.206  0.00  0.00    +0.000 OA
ATOM     13  O   UNL     1       1.359   4.463  17.221  0.00  0.00    +0.000 OA
BRANCH  11  14
ATOM     14  N   UNL     1       2.520   3.268  19.137  0.00  0.00    +0.000 NA
ATOM     15  C   UNL     1       1.351   2.475  19.560  0.00  0.00    +0.000 C 
ATOM     16  C   UNL     1       1.307   2.666  21.064  0.00  0.00    +0.000 C 
ATOM     17  C   UNL     1       2.771   2.746  21.469  0.00  0.00    +0.000 C 
ATOM     18  C   UNL     1       3.532   3.175  20.210  0.00  0.00    +0.000 C 
ENDBRANCH  11  14
ENDBRANCH   9  11
ENDBRANCH   3   5
BRANCH   1  19
ATOM     19  C   UNL     1       8.274   9.084  17.830  0.00  0.00    +0.000 C 
BRANCH  19  20
ATOM     20  O   UNL     1       8.988   9.422  19.007  0.00  0.00    +0.000 OA
BRANCH  20  29
ATOM     21  C   UNL     1       8.086  11.650  23.538  0.00  0.00    +0.000 C 
ATOM     22  C   UNL     1       8.780  12.149  22.314  0.00  0.00    +0.000 A 
ATOM     23  C   UNL     1       9.328  13.413  22.223  0.00  0.00    +0.000 A 
ATOM     24  C   UNL     1       9.959  13.763  21.033  0.00  0.00    +0.000 A 
ATOM     25  C   UNL     1      10.033  12.870  19.968  0.00  0.00    +0.000 A 
ATOM     26  C   UNL     1      10.679  13.204  18.757  0.00  0.00    +0.000 A 
ATOM     27  C   UNL     1      10.744  12.297  17.707  0.00  0.00    +0.000 A 
ATOM     28  C   UNL     1      10.166  11.042  17.852  0.00  0.00    +0.000 A 
ATOM     29  C   UNL     1       9.521  10.694  19.044  0.00  0.00    +0.000 A 
ATOM     30  C   UNL     1       9.452  11.595  20.126  0.00  0.00    +0.000 A 
ATOM     31  N   UNL     1       8.833  11.285  21.285  0.00  0.00    +0.000 NA
ENDBRANCH  20  29
ENDBRANCH  19  20
ENDBRANCH   1  19
TORSDOF 6
ENDMDL
MODEL 2
REMARK VINA RESULT:      -9.5      1.292      1.610
REMARK  Name = 
REMARK  7 active torsions:
REMARK  status: ('A' for Active; 'I' for Inactive)
REMARK    1  A    between atoms: C_1  and  C_2
REMARK    2  A    between atoms: C_9  and  O_10
REMARK    3  A    between atoms: O_10  and  C_11
REMARK    4  A    between atoms: C_11  and  C_12
REMARK    5  A    between atoms: N_14  and  C_15
REMARK    6  A    between atoms: C_19  and  S_20
REMARK    7  A    between atoms: S_20  and  N_23
REMARK                            x       y       z     vdW  Elec       q    Type
REMARK                         _______ _______ _______ _____ _____    ______ ____
ROOT
ATOM      1  C   UNL     1       7.775   7.756  17.889  0.00  0.00    +0.000 C 
ATOM      2  O   UNL     1       8.333   6.980  18.665  0.00  0.00    +0.000 OA
ATOM      3  N   UNL     1       6.814   7.429  16.930  0.00  0.00    +0.000 N 
ATOM      4  H   UNL     1       6.688   8.088  16.169  0.00  0.00    +0.000 HD
ENDROOT
BRANCH   3   5
ATOM      5  C   UNL     1       6.348   6.112  16.751  0.00  0.00    +0.000 A 
ATOM      6  C   UNL     1       6.443   5.509  15.499  0.00  0.00    +0.000 A 
ATOM      7  C   UNL     1       5.640   4.426  15.176  0.00  0.00    +0.000 A 
ATOM      8  C   UNL     1       4.856   3.851  16.163  0.00  0.00    +0.000 A 
ATOM      9  C   UNL     1       5.028   4.250  17.495  0.00  0.00    +0.000 A 
ATOM     10  C   UNL     1       5.718   5.433  17.795  0.00  0.00    +0.000 A 
BRANCH   9  11
ATOM     11  S   UNL     1       4.296   3.261  18.787  0.00  0.00    +0.000 S 
ATOM     12  O   UNL     1       3.892   2.005  18.181  0.00  0.00    +0.000 OA
ATOM     13  O   UNL     1       5.198   3.276  19.909  0.00  0.00    +0.000 OA
BRANCH  11  14
ATOM     14  N   UNL     1       2.891   4.095  19.232  0.00  0.00    +0.000 NA
ATOM     15  C   UNL     1       2.592   4.377  20.647  0.00  0.00    +0.000 C 
ATOM     16  C   UNL     1       1.411   3.476  20.956  0.00  0.00    +0.000 C 
ATOM     17  C   UNL     1       0.616   3.453  19.660  0.00  0.00    +0.000 C 
ATOM     18  C   UNL     1       1.609   3.821  18.552  0.00  0.00    +0.000 C 
ENDBRANCH  11  14
ENDBRANCH   9  11
ENDBRANCH   3   5
BRANCH   1  19
ATOM     19  C   UNL     1       8.119   9.216  17.925  0.00  0.00    +0.000 C 
BRANCH  19  20
ATOM     20  O   UNL     1       8.962   9.466  19.037  0.00  0.00    +0.000 OA
BRANCH  20  29
ATOM     21  C   UNL     1       8.066  11.734  23.549  0.00  0.00    +0.000 C 
ATOM     22  C   UNL     1       8.802  12.203  22.339  0.00  0.00    +0.000 A 
ATOM     23  C   UNL     1       9.402  13.444  22.257  0.00  0.00    +0.000 A 
ATOM     24  C   UNL     1      10.068  13.767  21.078  0.00  0.00    +0.000 A 
ATOM     25  C   UNL     1      10.127  12.870  20.016  0.00  0.00    +0.000 A 
ATOM     26  C   UNL     1      10.808  13.177  18.817  0.00  0.00    +0.000 A 
ATOM     27  C   UNL     1      10.857  12.266  17.769  0.00  0.00    +0.000 A 
ATOM     28  C   UNL     1      10.226  11.035  17.904  0.00  0.00    +0.000 A 
ATOM     29  C   UNL     1       9.545  10.715  19.084  0.00  0.00    +0.000 A 
ATOM     30  C   UNL     1       9.492  11.620  20.163  0.00  0.00    +0.000 A 
ATOM     31  N   UNL     1       8.840  11.336  21.311  0.00  0.00    +0.000 NA
ENDBRANCH  20  29
ENDBRANCH  19  20
ENDBRANCH   1  19
TORSDOF 6
ENDMDL
MODEL 3
REMARK VINA RESULT:      -9.3      1.169      1.408
REMARK  Name = 
REMARK  7 active torsions:
REMARK  status: ('A' for Active; 'I' for Inactive)
REMARK    1  A    between atoms: C_1  and  C_2
REMARK    2  A    between atoms: C_9  and  O_10
REMARK    3  A    between atoms: O_10  and  C_11
REMARK    4  A    between atoms: C_11  and  C_12
REMARK    5  A    between atoms: N_14  and  C_15
REMARK    6  A    between atoms: C_19  and  S_20
REMARK    7  A    between atoms: S_20  and  N_23
REMARK                            x       y       z     vdW  Elec       q    Type
REMARK                         _______ _______ _______ _____ _____    ______ ____
ROOT
ATOM      1  C   UNL     1       7.798   7.767  17.783  0.00  0.00    +0.000 C 
ATOM      2  O   UNL     1       8.321   7.000  18.592  0.00  0.00    +0.000 OA
ATOM      3  N   UNL     1       6.901   7.424  16.769  0.00  0.00    +0.000 N 
ATOM      4  H   UNL     1       6.810   8.082  16.001  0.00  0.00    +0.000 HD
ENDROOT
BRANCH   3   5
ATOM      5  C   UNL     1       6.469   6.100  16.563  0.00  0.00    +0.000 A 
ATOM      6  C   UNL     1       7.086   5.315  15.591  0.00  0.00    +0.000 A 
ATOM      7  C   UNL     1       6.441   4.203  15.071  0.00  0.00    +0.000 A 
ATOM      8  C   UNL     1       5.246   3.791  15.637  0.00  0.00    +0.000 A 
ATOM      9  C   UNL     1       4.811   4.384  16.829  0.00  0.00    +0.000 A 
ATOM     10  C   UNL     1       5.375   5.593  17.264  0.00  0.00    +0.000 A 
BRANCH   9  11
ATOM     11  S   UNL     1       3.487   3.609  17.739  0.00  0.00    +0.000 S 
ATOM     12  O   UNL     1       2.254   3.918  17.039  0.00  0.00    +0.000 OA
ATOM     13  O   UNL     1       3.869   2.241  17.980  0.00  0.00    +0.000 OA
BRANCH  11  14
ATOM     14  N   UNL     1       3.452   4.413  19.229  0.00  0.00    +0.000 NA
ATOM     15  C   UNL     1       3.205   3.679  20.483  0.00  0.00    +0.000 C 
ATOM     16  C   UNL     1       1.821   4.134  20.904  0.00  0.00    +0.000 C 
ATOM     17  C   UNL     1       1.762   5.589  20.466  0.00  0.00    +0.000 C 
ATOM     18  C   UNL     1       2.804   5.735  19.352  0.00  0.00    +0.000 C 
ENDBRANCH  11  14
ENDBRANCH   9  11
ENDBRANCH   3   5
BRANCH   1  19
ATOM     19  C   UNL     1       8.115   9.233  17.839  0.00  0.00    +0.000 C 
BRANCH  19  20
ATOM     20  O   UNL     1       8.921   9.488  18.978  0.00  0.00    +0.000 OA
BRANCH  20  29
ATOM     21  C   UNL     1       8.140  11.769  23.505  0.00  0.00    +0.000 C 
ATOM     22  C   UNL     1       8.870  12.223  22.285  0.00  0.00    +0.000 A 
ATOM     23  C   UNL     1       9.497  13.450  22.196  0.00  0.00    +0.000 A 
ATOM     24  C   UNL     1      10.153  13.760  21.009  0.00  0.00    +0.000 A 
ATOM     25  C   UNL     1      10.176  12.864  19.945  0.00  0.00    +0.000 A 
ATOM     26  C   UNL     1      10.848  13.157  18.736  0.00  0.00    +0.000 A 
ATOM     27  C   UNL     1      10.860  12.247  17.687  0.00  0.00    +0.000 A 
ATOM     28  C   UNL     1      10.204  11.031  17.829  0.00  0.00    +0.000 A 
ATOM     29  C   UNL     1       9.532  10.724  19.018  0.00  0.00    +0.000 A 
ATOM     30  C   UNL     1       9.515  11.628  20.099  0.00  0.00    +0.000 A 
ATOM     31  N   UNL     1       8.873  11.358  21.255  0.00  0.00    +0.000 NA
ENDBRANCH  20  29
ENDBRANCH  19  20
ENDBRANCH   1  19
TORSDOF 6
ENDMDL
MODEL 4
REMARK VINA RESULT:      -8.7      1.760      2.270
REMARK  Name = 
REMARK  7 active torsions:
REMARK  status: ('A' for Active; 'I' for Inactive)
REMARK    1  A    between atoms: C_1  and  C_2
REMARK    2  A    between atoms: C_9  and  O_10
REMARK    3  A    between atoms: O_10  and  C_11
REMARK    4  A    between atoms: C_11  and  C_12
REMARK    5  A    between atoms: N_14  and  C_15
REMARK    6  A    between atoms: C_19  and  S_20
REMARK    7  A    between atoms: S_20  and  N_23
REMARK                            x       y       z     vdW  Elec       q    Type
REMARK                         _______ _______ _______ _____ _____    ______ ____
ROOT
ATOM      1  C   UNL     1       8.067   8.342  17.941  0.00  0.00    +0.000 C 
ATOM      2  O   UNL     1       8.543   7.669  18.856  0.00  0.00    +0.000 OA
ATOM      3  N   UNL     1       7.077   7.943  17.040  0.00  0.00    +0.000 N 
ATOM      4  H   UNL     1       7.019   8.462  16.170  0.00  0.00    +0.000 HD
ENDROOT
BRANCH   3   5
ATOM      5  C   UNL     1       6.481   6.668  17.094  0.00  0.00    +0.000 A 
ATOM      6  C   UNL     1       7.167   5.562  16.599  0.00  0.00    +0.000 A 
ATOM      7  C   UNL     1       6.483   4.410  16.245  0.00  0.00    +0.000 A 
ATOM      8  C   UNL     1       5.132   4.313  16.534  0.00  0.00    +0.000 A 
ATOM      9  C   UNL     1       4.530   5.290  17.337  0.00  0.00    +0.000 A 
ATOM     10  C   UNL     1       5.176   6.515  17.563  0.00  0.00    +0.000 A 
BRANCH   9  11
ATOM     11  S   UNL     1       2.907   4.971  18.005  0.00  0.00    +0.000 S 
ATOM     12  O   UNL     1       2.215   6.246  18.066  0.00  0.00    +0.000 OA
ATOM     13  O   UNL     1       2.345   3.867  17.271  0.00  0.00    +0.000 OA
BRANCH  11  14
ATOM     14  N   UNL     1       3.183   4.456  19.595  0.00  0.00    +0.000 NA
ATOM     15  C   UNL     1       3.621   3.079  19.882  0.00  0.00    +0.000 C 
ATOM     16  C   UNL     1       2.413   2.442  20.542  0.00  0.00    +0.000 C 
ATOM     17  C   UNL     1       1.791   3.576  21.344  0.00  0.00    +0.000 C 
ATOM     18  C   UNL     1       2.277   4.871  20.685  0.00  0.00    +0.000 C 
ENDBRANCH  11  14
ENDBRANCH   9  11
ENDBRANCH   3   5
BRANCH   1  19
ATOM     19  C   UNL     1       8.557   9.742  17.719  0.00  0.00    +0.000 C 
BRANCH  19  20
ATOM     20  O   UNL     1       8.793  10.355  18.976  0.00  0.00    +0.000 OA
BRANCH  20  29
ATOM     21  C   UNL     1       6.375  14.696  17.702  0.00  0.00    +0.000 C 
ATOM     22  C   UNL     1       7.805  14.423  18.030  0.00  0.00    +0.000 A 
ATOM     23  C   UNL     1       8.778  15.404  18.031  0.00  0.00    +0.000 A 
ATOM     24  C   UNL     1      10.077  15.032  18.361  0.00  0.00    +0.000 A 
ATOM     25  C   UNL     1      10.388  13.713  18.678  0.00  0.00    +0.000 A 
ATOM     26  C   UNL     1      11.699  13.318  19.027  0.00  0.00    +0.000 A 
ATOM     27  C   UNL     1      11.988  11.997  19.343  0.00  0.00    +0.000 A 
ATOM     28  C   UNL     1      10.972  11.050  19.316  0.00  0.00    +0.000 A 
ATOM     29  C   UNL     1       9.667  11.422  18.971  0.00  0.00    +0.000 A 
ATOM     30  C   UNL     1       9.350  12.759  18.657  0.00  0.00    +0.000 A 
ATOM     31  N   UNL     1       8.100  13.144  18.319  0.00  0.00    +0.000 NA
ENDBRANCH  20  29
ENDBRANCH  19  20
ENDBRANCH   1  19
TORSDOF 6
ENDMDL
MODEL 5
REMARK VINA RESULT:      -8.7      5.872      8.475
REMARK  Name = 
REMARK  7 active torsions:
REMARK  status: ('A' for Active; 'I' for Inactive)
REMARK    1  A    between atoms: C_1  and  C_2
REMARK    2  A    between atoms: C_9  and  O_10
REMARK    3  A    between atoms: O_10  and  C_11
REMARK    4  A    between atoms: C_11  and  C_12
REMARK    5  A    between atoms: N_14  and  C_15
REMARK    6  A    between atoms: C_19  and  S_20
REMARK    7  A    between atoms: S_20  and  N_23
REMARK                            x       y       z     vdW  Elec       q    Type
REMARK                         _______ _______ _______ _____ _____    ______ ____
ROOT
ATOM      1  C   UNL     1       1.781   8.265  18.946  0.00  0.00    +0.000 C 
ATOM      2  O   UNL     1       1.606   8.623  17.781  0.00  0.00    +0.000 OA
ATOM      3  N   UNL     1       2.331   7.053  19.372  0.00  0.00    +0.000 N 
ATOM      4  H   UNL     1       2.119   6.767  20.322  0.00  0.00    +0.000 HD
ENDROOT
BRANCH   3   5
ATOM      5  C   UNL     1       2.776   6.070  18.467  0.00  0.00    +0.000 A 
ATOM      6  C   UNL     1       2.231   4.790  18.514  0.00  0.00    +0.000 A 
ATOM      7  C   UNL     1       2.911   3.714  17.963  0.00  0.00    +0.000 A 
ATOM      8  C   UNL     1       4.062   3.950  17.229  0.00  0.00    +0.000 A 
ATOM      9  C   UNL     1       4.410   5.267  16.902  0.00  0.00    +0.000 A 
ATOM     10  C   UNL     1       3.816   6.343  17.578  0.00  0.00    +0.000 A 
BRANCH   9  11
ATOM     11  S   UNL     1       5.664   5.540  15.663  0.00  0.00    +0.000 S 
ATOM     12  O   UNL     1       5.747   4.326  14.870  0.00  0.00    +0.000 OA
ATOM     13  O   UNL     1       5.387   6.806  15.037  0.00  0.00    +0.000 OA
BRANCH  11  14
ATOM     14  N   UNL     1       7.110   5.690  16.531  0.00  0.00    +0.000 NA
ATOM     15  C   UNL     1       7.576   4.613  17.422  0.00  0.00    +0.000 C 
ATOM     16  C   UNL     1       7.403   5.191  18.814  0.00  0.00    +0.000 C 
ATOM     17  C   UNL     1       7.713   6.669  18.640  0.00  0.00    +0.000 C 
ATOM     18  C   UNL     1       7.479   6.976  17.157  0.00  0.00    +0.000 C 
ENDBRANCH  11  14
ENDBRANCH   9  11
ENDBRANCH   3   5
BRANCH   1  19
ATOM     19  C   UNL     1       1.385   9.177  20.070  0.00  0.00    +0.000 C 
BRANCH  19  20
ATOM     20  O   UNL     1       1.217  10.490  19.563  0.00  0.00    +0.000 OA
BRANCH  20  29
ATOM     21  C   UNL     1      -2.573   9.980  16.145  0.00  0.00    +0.000 C 
ATOM     22  C   UNL     1      -2.506  10.716  17.441  0.00  0.00    +0.000 A 
ATOM     23  C   UNL     1      -3.566  11.443  17.950  0.00  0.00    +0.000 A 
ATOM     24  C   UNL     1      -3.388  12.082  19.173  0.00  0.00    +0.000 A 
ATOM     25  C   UNL     1      -2.182  11.994  19.861  0.00  0.00    +0.000 A 
ATOM     26  C   UNL     1      -1.987  12.627  21.110  0.00  0.00    +0.000 A 
ATOM     27  C   UNL     1      -0.777  12.525  21.782  0.00  0.00    +0.000 A 
ATOM     28  C   UNL     1       0.258  11.789  21.218  0.00  0.00    +0.000 A 
ATOM     29  C   UNL     1       0.084  11.157  19.982  0.00  0.00    +0.000 A 
ATOM     30  C   UNL     1      -1.140  11.239  19.287  0.00  0.00    +0.000 A 
ATOM     31  N   UNL     1      -1.332  10.640  18.092  0.00  0.00    +0.000 NA
ENDBRANCH  20  29
ENDBRANCH  19  20
ENDBRANCH   1  19
TORSDOF 6
ENDMDL
MODEL 6
REMARK VINA RESULT:      -8.5      1.478      2.721
REMARK  Name = 
REMARK  7 active torsions:
REMARK  status: ('A' for Active; 'I' for Inactive)
REMARK    1  A    between atoms: C_1  and  C_2
REMARK    2  A    between atoms: C_9  and  O_10
REMARK    3  A    between atoms: O_10  and  C_11
REMARK    4  A    between atoms: C_11  and  C_12
REMARK    5  A    between atoms: N_14  and  C_15
REMARK    6  A    between atoms: C_19  and  S_20
REMARK    7  A    between atoms: S_20  and  N_23
REMARK                            x       y       z     vdW  Elec       q    Type
REMARK                         _______ _______ _______ _____ _____    ______ ____
ROOT
ATOM      1  C   UNL     1       8.073   7.750  18.057  0.00  0.00    +0.000 C 
ATOM      2  O   UNL     1       7.720   8.160  16.951  0.00  0.00    +0.000 OA
ATOM      3  N   UNL     1       7.746   6.521  18.634  0.00  0.00    +0.000 N 
ATOM      4  H   UNL     1       7.830   6.456  19.643  0.00  0.00    +0.000 HD
ENDROOT
BRANCH   3   5
ATOM      5  C   UNL     1       6.946   5.569  17.972  0.00  0.00    +0.000 A 
ATOM      6  C   UNL     1       7.502   4.774  16.973  0.00  0.00    +0.000 A 
ATOM      7  C   UNL     1       6.692   4.156  16.033  0.00  0.00    +0.000 A 
ATOM      8  C   UNL     1       5.317   4.209  16.190  0.00  0.00    +0.000 A 
ATOM      9  C   UNL     1       4.781   4.717  17.380  0.00  0.00    +0.000 A 
ATOM     10  C   UNL     1       5.583   5.471  18.250  0.00  0.00    +0.000 A 
BRANCH   9  11
ATOM     11  S   UNL     1       3.053   4.445  17.727  0.00  0.00    +0.000 S 
ATOM     12  O   UNL     1       2.442   5.752  17.892  0.00  0.00    +0.000 OA
ATOM     13  O   UNL     1       2.552   3.522  16.742  0.00  0.00    +0.000 OA
BRANCH  11  14
ATOM     14  N   UNL     1       3.027   3.669  19.232  0.00  0.00    +0.000 NA
ATOM     15  C   UNL     1       2.334   2.381  19.411  0.00  0.00    +0.000 C 
ATOM     16  C   UNL     1       1.130   2.731  20.265  0.00  0.00    +0.000 C 
ATOM     17  C   UNL     1       1.638   3.830  21.185  0.00  0.00    +0.000 C 
ATOM     18  C   UNL     1       2.847   4.447  20.475  0.00  0.00    +0.000 C 
ENDBRANCH  11  14
ENDBRANCH   9  11
ENDBRANCH   3   5
BRANCH   1  19
ATOM     19  C   UNL     1       8.946   8.610  18.922  0.00  0.00    +0.000 C 
BRANCH  19  20
ATOM     20  O   UNL     1       8.929   9.937  18.423  0.00  0.00    +0.000 OA
BRANCH  20  29
ATOM     21  C   UNL     1      12.292  13.009  16.065  0.00  0.00    +0.000 C 
ATOM     22  C   UNL     1      11.783  12.996  17.468  0.00  0.00    +0.000 A 
ATOM     23  C   UNL     1      12.195  13.901  18.426  0.00  0.00    +0.000 A 
ATOM     24  C   UNL     1      11.645  13.796  19.699  0.00  0.00    +0.000 A 
ATOM     25  C   UNL     1      10.711  12.809  19.999  0.00  0.00    +0.000 A 
ATOM     26  C   UNL     1      10.132  12.694  21.284  0.00  0.00    +0.000 A 
ATOM     27  C   UNL     1       9.200  11.703  21.562  0.00  0.00    +0.000 A 
ATOM     28  C   UNL     1       8.830  10.813  20.561  0.00  0.00    +0.000 A 
ATOM     29  C   UNL     1       9.393  10.911  19.284  0.00  0.00    +0.000 A 
ATOM     30  C   UNL     1      10.333  11.915  18.977  0.00  0.00    +0.000 A 
ATOM     31  N   UNL     1      10.894  12.029  17.754  0.00  0.00    +0.000 NA
ENDBRANCH  20  29
ENDBRANCH  19  20
ENDBRANCH   1  19
TORSDOF 6
ENDMDL
MODEL 7
REMARK VINA RESULT:      -8.5      5.229      8.903
REMARK  Name = 
REMARK  7 active torsions:
REMARK  status: ('A' for Active; 'I' for Inactive)
REMARK    1  A    between atoms: C_1  and  C_2
REMARK    2  A    between atoms: C_9  and  O_10
REMARK    3  A    between atoms: O_10  and  C_11
REMARK    4  A    between atoms: C_11  and  C_12
REMARK    5  A    between atoms: N_14  and  C_15
REMARK    6  A    between atoms: C_19  and  S_20
REMARK    7  A    between atoms: S_20  and  N_23
REMARK                            x       y       z     vdW  Elec       q    Type
REMARK                         _______ _______ _______ _____ _____    ______ ____
ROOT
ATOM      1  C   UNL     1       1.806   4.431  20.835  0.00  0.00    +0.000 C 
ATOM      2  O   UNL     1       0.677   4.266  20.372  0.00  0.00    +0.000 OA
ATOM      3  N   UNL     1       2.628   5.545  20.650  0.00  0.00    +0.000 N 
ATOM      4  H   UNL     1       3.621   5.409  20.811  0.00  0.00    +0.000 HD
ENDROOT
BRANCH   3   5
ATOM      5  C   UNL     1       2.226   6.657  19.886  0.00  0.00    +0.000 A 
ATOM      6  C   UNL     1       2.527   6.708  18.527  0.00  0.00    +0.000 A 
ATOM      7  C   UNL     1       2.540   7.919  17.853  0.00  0.00    +0.000 A 
ATOM      8  C   UNL     1       2.098   9.058  18.507  0.00  0.00    +0.000 A 
ATOM      9  C   UNL     1       1.479   8.935  19.757  0.00  0.00    +0.000 A 
ATOM     10  C   UNL     1       1.603   7.748  20.493  0.00  0.00    +0.000 A 
BRANCH   9  11
ATOM     11  S   UNL     1       0.592  10.336  20.416  0.00  0.00    +0.000 S 
ATOM     12  O   UNL     1      -0.824  10.047  20.271  0.00  0.00    +0.000 OA
ATOM     13  O   UNL     1       1.149  10.633  21.709  0.00  0.00    +0.000 OA
BRANCH  11  14
ATOM     14  N   UNL     1       0.966  11.618  19.376  0.00  0.00    +0.000 NA
ATOM     15  C   UNL     1       1.851  12.714  19.809  0.00  0.00    +0.000 C 
ATOM     16  C   UNL     1       0.920  13.904  19.938  0.00  0.00    +0.000 C 
ATOM     17  C   UNL     1      -0.094  13.702  18.823  0.00  0.00    +0.000 C 
ATOM     18  C   UNL     1      -0.072  12.204  18.503  0.00  0.00    +0.000 C 
ENDBRANCH  11  14
ENDBRANCH   9  11
ENDBRANCH   3   5
BRANCH   1  19
ATOM     19  C   UNL     1       2.418   3.364  21.694  0.00  0.00    +0.000 C 
BRANCH  19  20
ATOM     20  O   UNL     1       3.534   2.810  21.019  0.00  0.00    +0.000 OA
BRANCH  20  29
ATOM     21  C   UNL     1       7.295   5.732  19.113  0.00  0.00    +0.000 C 
ATOM     22  C   UNL     1       6.201   4.970  18.442  0.00  0.00    +0.000 A 
ATOM     23  C   UNL     1       6.029   4.949  17.072  0.00  0.00    +0.000 A 
ATOM     24  C   UNL     1       4.977   4.197  16.559  0.00  0.00    +0.000 A 
ATOM     25  C   UNL     1       4.124   3.488  17.400  0.00  0.00    +0.000 A 
ATOM     26  C   UNL     1       3.057   2.709  16.897  0.00  0.00    +0.000 A 
ATOM     27  C   UNL     1       2.218   2.008  17.753  0.00  0.00    +0.000 A 
ATOM     28  C   UNL     1       2.432   2.073  19.124  0.00  0.00    +0.000 A 
ATOM     29  C   UNL     1       3.482   2.841  19.641  0.00  0.00    +0.000 A 
ATOM     30  C   UNL     1       4.352   3.552  18.790  0.00  0.00    +0.000 A 
ATOM     31  N   UNL     1       5.370   4.302  19.262  0.00  0.00    +0.000 NA
ENDBRANCH  20  29
ENDBRANCH  19  20
ENDBRANCH   1  19
TORSDOF 6
ENDMDL
MODEL 8
REMARK VINA RESULT:      -8.4      5.472      7.547
REMARK  Name = 
REMARK  7 active torsions:
REMARK  status: ('A' for Active; 'I' for Inactive)
REMARK    1  A    between atoms: C_1  and  C_2
REMARK    2  A    between atoms: C_9  and  O_10
REMARK    3  A    between atoms: O_10  and  C_11
REMARK    4  A    between atoms: C_11  and  C_12
REMARK    5  A    between atoms: N_14  and  C_15
REMARK    6  A    between atoms: C_19  and  S_20
REMARK    7  A    between atoms: S_20  and  N_23
REMARK                            x       y       z     vdW  Elec       q    Type
REMARK                         _______ _______ _______ _____ _____    ______ ____
ROOT
ATOM      1  C   UNL     1       1.996   7.329  19.839  0.00  0.00    +0.000 C 
ATOM      2  O   UNL     1       1.740   8.001  18.840  0.00  0.00    +0.000 OA
ATOM      3  N   UNL     1       2.570   6.056  19.862  0.00  0.00    +0.000 N 
ATOM      4  H   UNL     1       2.426   5.507  20.704  0.00  0.00    +0.000 HD
ENDROOT
BRANCH   3   5
ATOM      5  C   UNL     1       2.945   5.378  18.686  0.00  0.00    +0.000 A 
ATOM      6  C   UNL     1       2.405   4.124  18.408  0.00  0.00    +0.000 A 
ATOM      7  C   UNL     1       3.042   3.264  17.527  0.00  0.00    +0.000 A 
ATOM      8  C   UNL     1       4.133   3.722  16.808  0.00  0.00    +0.000 A 
ATOM      9  C   UNL     1       4.454   5.085  16.842  0.00  0.00    +0.000 A 
ATOM     10  C   UNL     1       3.914   5.913  17.837  0.00  0.00    +0.000 A 
BRANCH   9  11
ATOM     11  S   UNL     1       5.610   5.724  15.643  0.00  0.00    +0.000 S 
ATOM     12  O   UNL     1       5.735   4.722  14.600  0.00  0.00    +0.000 OA
ATOM     13  O   UNL     1       5.204   7.068  15.322  0.00  0.00    +0.000 OA
BRANCH  11  14
ATOM     14  N   UNL     1       7.089   5.805  16.462  0.00  0.00    +0.000 NA
ATOM     15  C   UNL     1       7.583   4.665  17.254  0.00  0.00    +0.000 C 
ATOM     16  C   UNL     1       7.468   5.141  18.690  0.00  0.00    +0.000 C 
ATOM     17  C   UNL     1       7.780   6.627  18.611  0.00  0.00    +0.000 C 
ATOM     18  C   UNL     1       7.491   7.042  17.165  0.00  0.00    +0.000 C 
ENDBRANCH  11  14
ENDBRANCH   9  11
ENDBRANCH   3   5
BRANCH   1  19
ATOM     19  C   UNL     1       1.686   7.876  21.201  0.00  0.00    +0.000 C 
BRANCH  19  20
ATOM     20  O   UNL     1       1.946   9.270  21.210  0.00  0.00    +0.000 OA
BRANCH  20  29
ATOM     21  C   UNL     1       1.720  13.517  18.342  0.00  0.00    +0.000 C 
ATOM     22  C   UNL     1       0.884  13.056  19.489  0.00  0.00    +0.000 A 
ATOM     23  C   UNL     1      -0.173  13.788  19.993  0.00  0.00    +0.000 A 
ATOM     24  C   UNL     1      -0.885  13.253  21.061  0.00  0.00    +0.000 A 
ATOM     25  C   UNL     1      -0.543  12.019  21.606  0.00  0.00    +0.000 A 
ATOM     26  C   UNL     1      -1.262  11.453  22.684  0.00  0.00    +0.000 A 
ATOM     27  C   UNL     1      -0.906  10.219  23.212  0.00  0.00    +0.000 A 
ATOM     28  C   UNL     1       0.173   9.531  22.672  0.00  0.00    +0.000 A 
ATOM     29  C   UNL     1       0.898  10.076  21.606  0.00  0.00    +0.000 A 
ATOM     30  C   UNL     1       0.547  11.322  21.048  0.00  0.00    +0.000 A 
ATOM     31  N   UNL     1       1.232  11.871  20.021  0.00  0.00    +0.000 NA
ENDBRANCH  20  29
ENDBRANCH  19  20
ENDBRANCH   1  19
TORSDOF 6
ENDMDL
MODEL 9
REMARK VINA RESULT:      -8.3      5.391      7.165
REMARK  Name = 
REMARK  7 active torsions:
REMARK  status: ('A' for Active; 'I' for Inactive)
REMARK    1  A    between atoms: C_1  and  C_2
REMARK    2  A    between atoms: C_9  and  O_10
REMARK    3  A    between atoms: O_10  and  C_11
REMARK    4  A    between atoms: C_11  and  C_12
REMARK    5  A    between atoms: N_14  and  C_15
REMARK    6  A    between atoms: C_19  and  S_20
REMARK    7  A    between atoms: S_20  and  N_23
REMARK                            x       y       z     vdW  Elec       q    Type
REMARK                         _______ _______ _______ _____ _____    ______ ____
ROOT
ATOM      1  C   UNL     1       2.234   8.180  18.683  0.00  0.00    +0.000 C 
ATOM      2  O   UNL     1       2.006   7.696  19.792  0.00  0.00    +0.000 OA
ATOM      3  N   UNL     1       3.058   7.641  17.692  0.00  0.00    +0.000 N 
ATOM      4  H   UNL     1       3.399   8.285  16.985  0.00  0.00    +0.000 HD
ENDROOT
BRANCH   3   5
ATOM      5  C   UNL     1       3.739   6.420  17.862  0.00  0.00    +0.000 A 
ATOM      6  C   UNL     1       5.131   6.404  17.889  0.00  0.00    +0.000 A 
ATOM      7  C   UNL     1       5.827   5.233  17.628  0.00  0.00    +0.000 A 
ATOM      8  C   UNL     1       5.123   4.048  17.493  0.00  0.00    +0.000 A 
ATOM      9  C   UNL     1       3.758   4.021  17.806  0.00  0.00    +0.000 A 
ATOM     10  C   UNL     1       3.035   5.217  17.920  0.00  0.00    +0.000 A 
BRANCH   9  11
ATOM     11  S   UNL     1       2.951   2.440  17.987  0.00  0.00    +0.000 S 
ATOM     12  O   UNL     1       1.842   2.420  17.051  0.00  0.00    +0.000 OA
ATOM     13  O   UNL     1       3.971   1.424  17.935  0.00  0.00    +0.000 OA
BRANCH  11  14
ATOM     14  N   UNL     1       2.307   2.456  19.553  0.00  0.00    +0.000 NA
ATOM     15  C   UNL     1       0.894   2.802  19.789  0.00  0.00    +0.000 C 
ATOM     16  C   UNL     1       0.960   4.156  20.469  0.00  0.00    +0.000 C 
ATOM     17  C   UNL     1       2.218   4.080  21.320  0.00  0.00    +0.000 C 
ATOM     18  C   UNL     1       3.092   2.995  20.682  0.00  0.00    +0.000 C 
ENDBRANCH  11  14
ENDBRANCH   9  11
ENDBRANCH   3   5
BRANCH   1  19
ATOM     19  C   UNL     1       1.592   9.479  18.294  0.00  0.00    +0.000 C 
BRANCH  19  20
ATOM     20  O   UNL     1       0.183   9.338  18.367  0.00  0.00    +0.000 OA
BRANCH  20  29
ATOM     21  C   UNL     1       0.308   9.303  23.495  0.00  0.00    +0.000 C 
ATOM     22  C   UNL     1      -0.340  10.239  22.530  0.00  0.00    +0.000 A 
ATOM     23  C   UNL     1      -1.078  11.337  22.927  0.00  0.00    +0.000 A 
ATOM     24  C   UNL     1      -1.629  12.144  21.937  0.00  0.00    +0.000 A 
ATOM     25  C   UNL     1      -1.446  11.852  20.588  0.00  0.00    +0.000 A 
ATOM     26  C   UNL     1      -1.988  12.666  19.568  0.00  0.00    +0.000 A 
ATOM     27  C   UNL     1      -1.791  12.359  18.228  0.00  0.00    +0.000 A 
ATOM     28  C   UNL     1      -1.048  11.236  17.886  0.00  0.00    +0.000 A 
ATOM     29  C   UNL     1      -0.505  10.417  18.883  0.00  0.00    +0.000 A 
ATOM     30  C   UNL     1      -0.684  10.716  20.249  0.00  0.00    +0.000 A 
ATOM     31  N   UNL     1      -0.172   9.942  21.230  0.00  0.00    +0.000 NA
ENDBRANCH  20  29
ENDBRANCH  19  20
ENDBRANCH   1  19
TORSDOF 6
ENDMDL
