MODEL 1
REMARK VINA RESULT:      -9.2      0.000      0.000
REMARK  Name = 
REMARK  3 active torsions:
REMARK  status: ('A' for Active; 'I' for Inactive)
REMARK    1  A    between atoms: C_8  and  C_9
REMARK    2  A    between atoms: C_9  and  N_10
REMARK    3  A    between atoms: C_14  and  C_15
REMARK                            x       y       z     vdW  Elec       q    Type
REMARK                         _______ _______ _______ _____ _____    ______ ____
ROOT
ATOM      1  N   UNL     1       1.913   5.123  19.431  0.00  0.00    +0.000 NA
ATOM      2  C   UNL     1       2.108   3.899  20.225  0.00  0.00    +0.000 C 
ATOM      3  C   UNL     1       3.426   3.132  20.030  0.00  0.00    +0.000 C 
ATOM      4  O   UNL     1       3.897   3.012  18.683  0.00  0.00    +0.000 OA
ATOM      5  C   UNL     1       3.781   4.199  17.881  0.00  0.00    +0.000 C 
ATOM      6  C   UNL     1       2.357   4.828  18.042  0.00  0.00    +0.000 C 
ENDROOT
BRANCH   5   7
ATOM      7  C   UNL     1       4.963   5.165  18.000  0.00  0.00    +0.000 A 
ATOM      8  C   UNL     1       5.155   6.248  17.122  0.00  0.00    +0.000 A 
ATOM      9  C   UNL     1       6.326   7.017  17.156  0.00  0.00    +0.000 A 
ATOM     10  C   UNL     1       7.288   6.754  18.115  0.00  0.00    +0.000 A 
ATOM     11  F   UNL     1       8.418   7.478  18.137  0.00  0.00    +0.000 F 
ATOM     12  C   UNL     1       7.083   5.749  19.050  0.00  0.00    +0.000 A 
ATOM     13  F   UNL     1       7.996   5.519  20.005  0.00  0.00    +0.000 F 
ATOM     14  C   UNL     1       5.935   4.957  19.000  0.00  0.00    +0.000 A 
ENDBRANCH   5   7
BRANCH   1  15
ATOM     15  C   UNL     1       2.570   6.337  19.943  0.00  0.00    +0.000 C 
BRANCH  15  23
ATOM     16  O   UNL     1       0.512   9.712  23.434  0.00  0.00    +0.000 OA
ATOM     17  C   UNL     1       0.724   9.472  22.256  0.00  0.00    +0.000 A 
ATOM     18  N   UNL     1       0.447  10.328  21.217  0.00  0.00    +0.000 N 
ATOM     19  C   UNL     1       0.913   9.751  20.071  0.00  0.00    +0.000 A 
ATOM     20  C   UNL     1       0.968  10.245  18.790  0.00  0.00    +0.000 A 
ATOM     21  C   UNL     1       1.637   9.456  17.852  0.00  0.00    +0.000 A 
ATOM     22  C   UNL     1       2.173   8.193  18.204  0.00  0.00    +0.000 A 
ATOM     23  C   UNL     1       2.025   7.675  19.503  0.00  0.00    +0.000 A 
ATOM     24  C   UNL     1       1.422   8.519  20.427  0.00  0.00    +0.000 A 
ATOM     25  O   UNL     1       1.297   8.284  21.793  0.00  0.00    +0.000 OA
ATOM     26  H   UNL     1       0.062  11.248  21.339  0.00  0.00    +0.000 HD
ENDBRANCH  15  23
ENDBRANCH   1  15
TORSDOF 3
ENDMDL
MODEL 2
REMARK VINA RESULT:      -9.1      1.175      1.726
REMARK  Name = 
REMARK  3 active torsions:
REMARK  status: ('A' for Active; 'I' for Inactive)
REMARK    1  A    between atoms: C_8  and  C_9
REMARK    2  A    between atoms: C_9  and  N_10
REMARK    3  A    between atoms: C_14  and  C_15
REMARK                            x       y       z     vdW  Elec       q    Type
REMARK                         _______ _______ _______ _____ _____    ______ ____
ROOT
ATOM      1  N   UNL     1       1.675   4.983  20.091  0.00  0.00    +0.000 NA
ATOM      2  C   UNL     1       1.941   3.941  21.096  0.00  0.00    +0.000 C 
ATOM      3  C   UNL     1       3.054   2.928  20.786  0.00  0.00    +0.000 C 
ATOM      4  O   UNL     1       3.113   2.442  19.441  0.00  0.00    +0.000 OA
ATOM      5  C   UNL     1       2.916   3.431  18.418  0.00  0.00    +0.000 C 
ATOM      6  C   UNL     1       1.676   4.325  18.757  0.00  0.00    +0.000 C 
ENDROOT
BRANCH   5   7
ATOM      7  C   UNL     1       4.187   4.174  17.998  0.00  0.00    +0.000 A 
ATOM      8  C   UNL     1       5.384   4.117  18.734  0.00  0.00    +0.000 A 
ATOM      9  C   UNL     1       6.479   4.931  18.413  0.00  0.00    +0.000 A 
ATOM     10  C   UNL     1       6.412   5.761  17.309  0.00  0.00    +0.000 A 
ATOM     11  F   UNL     1       7.453   6.554  17.011  0.00  0.00    +0.000 F 
ATOM     12  C   UNL     1       5.275   5.770  16.512  0.00  0.00    +0.000 A 
ATOM     13  F   UNL     1       5.224   6.545  15.419  0.00  0.00    +0.000 F 
ATOM     14  C   UNL     1       4.169   4.988  16.846  0.00  0.00    +0.000 A 
ENDBRANCH   5   7
BRANCH   1  15
ATOM     15  C   UNL     1       2.583   6.141  20.104  0.00  0.00    +0.000 C 
BRANCH  15  23
ATOM     16  O   UNL     1       0.513   9.788  23.302  0.00  0.00    +0.000 OA
ATOM     17  C   UNL     1       0.743   9.460  22.148  0.00  0.00    +0.000 A 
ATOM     18  N   UNL     1       0.499  10.242  21.046  0.00  0.00    +0.000 N 
ATOM     19  C   UNL     1       0.978   9.578  19.953  0.00  0.00    +0.000 A 
ATOM     20  C   UNL     1       1.064   9.977  18.642  0.00  0.00    +0.000 A 
ATOM     21  C   UNL     1       1.738   9.113  17.776  0.00  0.00    +0.000 A 
ATOM     22  C   UNL     1       2.247   7.871  18.228  0.00  0.00    +0.000 A 
ATOM     23  C   UNL     1       2.068   7.450  19.558  0.00  0.00    +0.000 A 
ATOM     24  C   UNL     1       1.461   8.368  20.407  0.00  0.00    +0.000 A 
ATOM     25  O   UNL     1       1.307   8.234  21.784  0.00  0.00    +0.000 OA
ATOM     26  H   UNL     1       0.126  11.175  21.093  0.00  0.00    +0.000 HD
ENDBRANCH  15  23
ENDBRANCH   1  15
TORSDOF 3
ENDMDL
MODEL 3
REMARK VINA RESULT:      -8.8      1.172      1.323
REMARK  Name = 
REMARK  3 active torsions:
REMARK  status: ('A' for Active; 'I' for Inactive)
REMARK    1  A    between atoms: C_8  and  C_9
REMARK    2  A    between atoms: C_9  and  N_10
REMARK    3  A    between atoms: C_14  and  C_15
REMARK                            x       y       z     vdW  Elec       q    Type
REMARK                         _______ _______ _______ _____ _____    ______ ____
ROOT
ATOM      1  N   UNL     1       1.611   4.947  20.122  0.00  0.00    +0.000 NA
ATOM      2  C   UNL     1       1.850   3.969  21.196  0.00  0.00    +0.000 C 
ATOM      3  C   UNL     1       2.904   2.880  20.938  0.00  0.00    +0.000 C 
ATOM      4  O   UNL     1       2.905   2.295  19.632  0.00  0.00    +0.000 OA
ATOM      5  C   UNL     1       2.731   3.216  18.543  0.00  0.00    +0.000 C 
ATOM      6  C   UNL     1       1.546   4.194  18.841  0.00  0.00    +0.000 C 
ENDROOT
BRANCH   5   7
ATOM      7  C   UNL     1       4.026   3.860  18.041  0.00  0.00    +0.000 A 
ATOM      8  C   UNL     1       4.333   3.993  16.674  0.00  0.00    +0.000 A 
ATOM      9  C   UNL     1       5.591   4.440  16.248  0.00  0.00    +0.000 A 
ATOM     10  C   UNL     1       6.534   4.823  17.186  0.00  0.00    +0.000 A 
ATOM     11  F   UNL     1       7.745   5.233  16.779  0.00  0.00    +0.000 F 
ATOM     12  C   UNL     1       6.225   4.786  18.539  0.00  0.00    +0.000 A 
ATOM     13  F   UNL     1       7.123   5.195  19.447  0.00  0.00    +0.000 F 
ATOM     14  C   UNL     1       4.986   4.311  18.971  0.00  0.00    +0.000 A 
ENDBRANCH   5   7
BRANCH   1  15
ATOM     15  C   UNL     1       2.575   6.055  20.029  0.00  0.00    +0.000 C 
BRANCH  15  23
ATOM     16  O   UNL     1       0.645   9.698  23.318  0.00  0.00    +0.000 OA
ATOM     17  C   UNL     1       0.847   9.383  22.155  0.00  0.00    +0.000 A 
ATOM     18  N   UNL     1       0.601  10.187  21.069  0.00  0.00    +0.000 N 
ATOM     19  C   UNL     1       1.044   9.529  19.958  0.00  0.00    +0.000 A 
ATOM     20  C   UNL     1       1.116   9.945  18.651  0.00  0.00    +0.000 A 
ATOM     21  C   UNL     1       1.755   9.079  17.761  0.00  0.00    +0.000 A 
ATOM     22  C   UNL     1       2.244   7.820  18.186  0.00  0.00    +0.000 A 
ATOM     23  C   UNL     1       2.079   7.383  19.512  0.00  0.00    +0.000 A 
ATOM     24  C   UNL     1       1.509   8.302  20.385  0.00  0.00    +0.000 A 
ATOM     25  O   UNL     1       1.376   8.151  21.763  0.00  0.00    +0.000 OA
ATOM     26  H   UNL     1       0.249  11.126  21.137  0.00  0.00    +0.000 HD
ENDBRANCH  15  23
ENDBRANCH   1  15
TORSDOF 3
ENDMDL
MODEL 4
REMARK VINA RESULT:      -8.2      3.508      6.481
REMARK  Name = 
REMARK  3 active torsions:
REMARK  status: ('A' for Active; 'I' for Inactive)
REMARK    1  A    between atoms: C_8  and  C_9
REMARK    2  A    between atoms: C_9  and  N_10
REMARK    3  A    between atoms: C_14  and  C_15
REMARK                            x       y       z     vdW  Elec       q    Type
REMARK                         _______ _______ _______ _____ _____    ______ ____
ROOT
ATOM      1  N   UNL     1       3.388   2.592  18.827  0.00  0.00    +0.000 NA
ATOM      2  C   UNL     1       2.151   1.835  18.571  0.00  0.00    +0.000 C 
ATOM      3  C   UNL     1       0.822   2.503  18.956  0.00  0.00    +0.000 C 
ATOM      4  O   UNL     1       0.803   3.209  20.201  0.00  0.00    +0.000 OA
ATOM      5  C   UNL     1       1.965   4.009  20.474  0.00  0.00    +0.000 C 
ATOM      6  C   UNL     1       3.269   3.193  20.182  0.00  0.00    +0.000 C 
ENDROOT
BRANCH   5   7
ATOM      7  C   UNL     1       1.913   5.426  19.895  0.00  0.00    +0.000 A 
ATOM      8  C   UNL     1       2.117   5.702  18.531  0.00  0.00    +0.000 A 
ATOM      9  C   UNL     1       2.221   7.017  18.059  0.00  0.00    +0.000 A 
ATOM     10  C   UNL     1       2.054   8.073  18.937  0.00  0.00    +0.000 A 
ATOM     11  F   UNL     1       2.171   9.333  18.490  0.00  0.00    +0.000 F 
ATOM     12  C   UNL     1       1.762   7.829  20.272  0.00  0.00    +0.000 A 
ATOM     13  F   UNL     1       1.560   8.851  21.116  0.00  0.00    +0.000 F 
ATOM     14  C   UNL     1       1.691   6.522  20.755  0.00  0.00    +0.000 A 
ENDBRANCH   5   7
BRANCH   1  15
ATOM     15  C   UNL     1       3.738   3.615  17.830  0.00  0.00    +0.000 C 
BRANCH  15  23
ATOM     16  O   UNL     1       6.733   4.286  13.540  0.00  0.00    +0.000 OA
ATOM     17  C   UNL     1       6.662   4.383  14.756  0.00  0.00    +0.000 A 
ATOM     18  N   UNL     1       7.635   4.924  15.560  0.00  0.00    +0.000 N 
ATOM     19  C   UNL     1       7.153   4.946  16.836  0.00  0.00    +0.000 A 
ATOM     20  C   UNL     1       7.697   5.478  17.980  0.00  0.00    +0.000 A 
ATOM     21  C   UNL     1       6.885   5.462  19.116  0.00  0.00    +0.000 A 
ATOM     22  C   UNL     1       5.597   4.874  19.089  0.00  0.00    +0.000 A 
ATOM     23  C   UNL     1       5.100   4.260  17.926  0.00  0.00    +0.000 A 
ATOM     24  C   UNL     1       5.903   4.363  16.796  0.00  0.00    +0.000 A 
ATOM     25  O   UNL     1       5.562   3.962  15.508  0.00  0.00    +0.000 OA
ATOM     26  H   UNL     1       8.494   5.315  15.211  0.00  0.00    +0.000 HD
ENDBRANCH  15  23
ENDBRANCH   1  15
TORSDOF 3
ENDMDL
MODEL 5
REMARK VINA RESULT:      -7.9      3.642      6.108
REMARK  Name = 
REMARK  3 active torsions:
REMARK  status: ('A' for Active; 'I' for Inactive)
REMARK    1  A    between atoms: C_8  and  C_9
REMARK    2  A    between atoms: C_9  and  N_10
REMARK    3  A    between atoms: C_14  and  C_15
REMARK                            x       y       z     vdW  Elec       q    Type
REMARK                         _______ _______ _______ _____ _____    ______ ____
ROOT
ATOM      1  N   UNL     1       3.818   2.941  18.018  0.00  0.00    +0.000 NA
ATOM      2  C   UNL     1       2.663   2.028  18.034  0.00  0.00    +0.000 C 
ATOM      3  C   UNL     1       1.451   2.439  18.885  0.00  0.00    +0.000 C 
ATOM      4  O   UNL     1       1.739   3.007  20.168  0.00  0.00    +0.000 OA
ATOM      5  C   UNL     1       2.823   3.949  20.195  0.00  0.00    +0.000 C 
ATOM      6  C   UNL     1       4.058   3.380  19.418  0.00  0.00    +0.000 C 
ENDROOT
BRANCH   5   7
ATOM      7  C   UNL     1       2.424   5.389  19.864  0.00  0.00    +0.000 A 
ATOM      8  C   UNL     1       2.747   6.011  18.644  0.00  0.00    +0.000 A 
ATOM      9  C   UNL     1       2.509   7.376  18.434  0.00  0.00    +0.000 A 
ATOM     10  C   UNL     1       1.881   8.119  19.418  0.00  0.00    +0.000 A 
ATOM     11  F   UNL     1       1.669   9.430  19.224  0.00  0.00    +0.000 F 
ATOM     12  C   UNL     1       1.472   7.510  20.595  0.00  0.00    +0.000 A 
ATOM     13  F   UNL     1       0.828   8.220  21.533  0.00  0.00    +0.000 F 
ATOM     14  C   UNL     1       1.736   6.160  20.825  0.00  0.00    +0.000 A 
ENDBRANCH   5   7
BRANCH   1  15
ATOM     15  C   UNL     1       3.714   4.100  17.117  0.00  0.00    +0.000 C 
BRANCH  15  23
ATOM     16  O   UNL     1       7.778   7.197  18.425  0.00  0.00    +0.000 OA
ATOM     17  C   UNL     1       7.240   6.543  17.545  0.00  0.00    +0.000 A 
ATOM     18  N   UNL     1       7.763   6.332  16.292  0.00  0.00    +0.000 N 
ATOM     19  C   UNL     1       6.927   5.478  15.634  0.00  0.00    +0.000 A 
ATOM     20  C   UNL     1       7.056   4.886  14.400  0.00  0.00    +0.000 A 
ATOM     21  C   UNL     1       6.084   3.941  14.063  0.00  0.00    +0.000 A 
ATOM     22  C   UNL     1       4.999   3.663  14.930  0.00  0.00    +0.000 A 
ATOM     23  C   UNL     1       4.846   4.347  16.149  0.00  0.00    +0.000 A 
ATOM     24  C   UNL     1       5.871   5.223  16.485  0.00  0.00    +0.000 A 
ATOM     25  O   UNL     1       6.009   5.899  17.694  0.00  0.00    +0.000 OA
ATOM     26  H   UNL     1       8.656   6.683  15.993  0.00  0.00    +0.000 HD
ENDBRANCH  15  23
ENDBRANCH   1  15
TORSDOF 3
ENDMDL
MODEL 6
REMARK VINA RESULT:      -7.8      3.483      6.007
REMARK  Name = 
REMARK  3 active torsions:
REMARK  status: ('A' for Active; 'I' for Inactive)
REMARK    1  A    between atoms: C_8  and  C_9
REMARK    2  A    between atoms: C_9  and  N_10
REMARK    3  A    between atoms: C_14  and  C_15
REMARK                            x       y       z     vdW  Elec       q    Type
REMARK                         _______ _______ _______ _____ _____    ______ ____
ROOT
ATOM      1  N   UNL     1       3.275   2.920  18.372  0.00  0.00    +0.000 NA
ATOM      2  C   UNL     1       2.021   2.149  18.338  0.00  0.00    +0.000 C 
ATOM      3  C   UNL     1       0.801   2.753  19.050  0.00  0.00    +0.000 C 
ATOM      4  O   UNL     1       1.048   3.372  20.318  0.00  0.00    +0.000 OA
ATOM      5  C   UNL     1       2.231   4.183  20.387  0.00  0.00    +0.000 C 
ATOM      6  C   UNL     1       3.449   3.425  19.760  0.00  0.00    +0.000 C 
ENDROOT
BRANCH   5   7
ATOM      7  C   UNL     1       2.036   5.633  19.938  0.00  0.00    +0.000 A 
ATOM      8  C   UNL     1       2.359   6.083  18.644  0.00  0.00    +0.000 A 
ATOM      9  C   UNL     1       2.320   7.443  18.312  0.00  0.00    +0.000 A 
ATOM     10  C   UNL     1       1.891   8.364  19.251  0.00  0.00    +0.000 A 
ATOM     11  F   UNL     1       1.871   9.669  18.940  0.00  0.00    +0.000 F 
ATOM     12  C   UNL     1       1.481   7.937  20.507  0.00  0.00    +0.000 A 
ATOM     13  F   UNL     1       1.027   8.823  21.405  0.00  0.00    +0.000 F 
ATOM     14  C   UNL     1       1.550   6.588  20.855  0.00  0.00    +0.000 A 
ENDBRANCH   5   7
BRANCH   1  15
ATOM     15  C   UNL     1       3.385   4.018  17.398  0.00  0.00    +0.000 C 
BRANCH  15  23
ATOM     16  O   UNL     1       7.614   5.548  20.154  0.00  0.00    +0.000 OA
ATOM     17  C   UNL     1       7.153   5.310  19.048  0.00  0.00    +0.000 A 
ATOM     18  N   UNL     1       7.870   5.325  17.877  0.00  0.00    +0.000 N 
ATOM     19  C   UNL     1       7.038   4.913  16.877  0.00  0.00    +0.000 A 
ATOM     20  C   UNL     1       7.302   4.664  15.552  0.00  0.00    +0.000 A 
ATOM     21  C   UNL     1       6.256   4.115  14.807  0.00  0.00    +0.000 A 
ATOM     22  C   UNL     1       4.983   3.887  15.385  0.00  0.00    +0.000 A 
ATOM     23  C   UNL     1       4.718   4.233  16.722  0.00  0.00    +0.000 A 
ATOM     24  C   UNL     1       5.802   4.705  17.452  0.00  0.00    +0.000 A 
ATOM     25  O   UNL     1       5.816   4.972  18.818  0.00  0.00    +0.000 OA
ATOM     26  H   UNL     1       8.857   5.513  17.829  0.00  0.00    +0.000 HD
ENDBRANCH  15  23
ENDBRANCH   1  15
TORSDOF 3
ENDMDL
MODEL 7
REMARK VINA RESULT:      -7.8      2.914      4.363
REMARK  Name = 
REMARK  3 active torsions:
REMARK  status: ('A' for Active; 'I' for Inactive)
REMARK    1  A    between atoms: C_8  and  C_9
REMARK    2  A    between atoms: C_9  and  N_10
REMARK    3  A    between atoms: C_14  and  C_15
REMARK                            x       y       z     vdW  Elec       q    Type
REMARK                         _______ _______ _______ _____ _____    ______ ____
ROOT
ATOM      1  N   UNL     1       4.632   6.866  17.265  0.00  0.00    +0.000 NA
ATOM      2  C   UNL     1       5.197   6.608  15.931  0.00  0.00    +0.000 C 
ATOM      3  C   UNL     1       5.627   5.167  15.612  0.00  0.00    +0.000 C 
ATOM      4  O   UNL     1       6.304   4.461  16.658  0.00  0.00    +0.000 OA
ATOM      5  C   UNL     1       5.756   4.635  17.974  0.00  0.00    +0.000 C 
ATOM      6  C   UNL     1       5.481   6.150  18.254  0.00  0.00    +0.000 C 
ENDROOT
BRANCH   5   7
ATOM      7  C   UNL     1       4.622   3.668  18.324  0.00  0.00    +0.000 A 
ATOM      8  C   UNL     1       3.782   3.091  17.353  0.00  0.00    +0.000 A 
ATOM      9  C   UNL     1       2.657   2.339  17.714  0.00  0.00    +0.000 A 
ATOM     10  C   UNL     1       2.397   2.097  19.052  0.00  0.00    +0.000 A 
ATOM     11  F   UNL     1       1.310   1.392  19.399  0.00  0.00    +0.000 F 
ATOM     12  C   UNL     1       3.260   2.579  20.026  0.00  0.00    +0.000 A 
ATOM     13  F   UNL     1       3.032   2.312  21.321  0.00  0.00    +0.000 F 
ATOM     14  C   UNL     1       4.363   3.357  19.675  0.00  0.00    +0.000 A 
ENDBRANCH   5   7
BRANCH   1  15
ATOM     15  C   UNL     1       3.213   6.517  17.445  0.00  0.00    +0.000 C 
BRANCH  15  23
ATOM     16  O   UNL     1       1.291  11.396  18.013  0.00  0.00    +0.000 OA
ATOM     17  C   UNL     1       1.514  10.323  18.551  0.00  0.00    +0.000 A 
ATOM     18  N   UNL     1       1.142   9.992  19.831  0.00  0.00    +0.000 N 
ATOM     19  C   UNL     1       1.477   8.685  20.035  0.00  0.00    +0.000 A 
ATOM     20  C   UNL     1       1.227   7.863  21.107  0.00  0.00    +0.000 A 
ATOM     21  C   UNL     1       1.581   6.521  20.953  0.00  0.00    +0.000 A 
ATOM     22  C   UNL     1       2.215   6.060  19.773  0.00  0.00    +0.000 A 
ATOM     23  C   UNL     1       2.537   6.942  18.727  0.00  0.00    +0.000 A 
ATOM     24  C   UNL     1       2.102   8.252  18.883  0.00  0.00    +0.000 A 
ATOM     25  O   UNL     1       2.177   9.261  17.927  0.00  0.00    +0.000 OA
ATOM     26  H   UNL     1       0.626  10.605  20.439  0.00  0.00    +0.000 HD
ENDBRANCH  15  23
ENDBRANCH   1  15
TORSDOF 3
ENDMDL
MODEL 8
REMARK VINA RESULT:      -7.8      3.170      5.979
REMARK  Name = 
REMARK  3 active torsions:
REMARK  status: ('A' for Active; 'I' for Inactive)
REMARK    1  A    between atoms: C_8  and  C_9
REMARK    2  A    between atoms: C_9  and  N_10
REMARK    3  A    between atoms: C_14  and  C_15
REMARK                            x       y       z     vdW  Elec       q    Type
REMARK                         _______ _______ _______ _____ _____    ______ ____
ROOT
ATOM      1  N   UNL     1       3.122   3.144  18.533  0.00  0.00    +0.000 NA
ATOM      2  C   UNL     1       1.812   2.475  18.454  0.00  0.00    +0.000 C 
ATOM      3  C   UNL     1       0.634   3.143  19.182  0.00  0.00    +0.000 C 
ATOM      4  O   UNL     1       0.913   3.686  20.477  0.00  0.00    +0.000 OA
ATOM      5  C   UNL     1       2.156   4.399  20.591  0.00  0.00    +0.000 C 
ATOM      6  C   UNL     1       3.318   3.575  19.943  0.00  0.00    +0.000 C 
ENDROOT
BRANCH   5   7
ATOM      7  C   UNL     1       2.080   5.878  20.203  0.00  0.00    +0.000 A 
ATOM      8  C   UNL     1       1.466   6.850  21.014  0.00  0.00    +0.000 A 
ATOM      9  C   UNL     1       1.271   8.162  20.561  0.00  0.00    +0.000 A 
ATOM     10  C   UNL     1       1.751   8.534  19.318  0.00  0.00    +0.000 A 
ATOM     11  F   UNL     1       1.549   9.784  18.876  0.00  0.00    +0.000 F 
ATOM     12  C   UNL     1       2.439   7.618  18.535  0.00  0.00    +0.000 A 
ATOM     13  F   UNL     1       2.940   7.987  17.347  0.00  0.00    +0.000 F 
ATOM     14  C   UNL     1       2.607   6.301  18.965  0.00  0.00    +0.000 A 
ENDBRANCH   5   7
BRANCH   1  15
ATOM     15  C   UNL     1       3.329   4.270  17.608  0.00  0.00    +0.000 C 
BRANCH  15  23
ATOM     16  O   UNL     1       7.729   5.520  20.234  0.00  0.00    +0.000 OA
ATOM     17  C   UNL     1       7.225   5.296  19.145  0.00  0.00    +0.000 A 
ATOM     18  N   UNL     1       7.912   5.232  17.957  0.00  0.00    +0.000 N 
ATOM     19  C   UNL     1       7.027   4.867  16.985  0.00  0.00    +0.000 A 
ATOM     20  C   UNL     1       7.238   4.572  15.660  0.00  0.00    +0.000 A 
ATOM     21  C   UNL     1       6.135   4.092  14.951  0.00  0.00    +0.000 A 
ATOM     22  C   UNL     1       4.863   3.975  15.562  0.00  0.00    +0.000 A 
ATOM     23  C   UNL     1       4.657   4.367  16.898  0.00  0.00    +0.000 A 
ATOM     24  C   UNL     1       5.792   4.767  17.593  0.00  0.00    +0.000 A 
ATOM     25  O   UNL     1       5.860   5.059  18.952  0.00  0.00    +0.000 OA
ATOM     26  H   UNL     1       8.909   5.341  17.883  0.00  0.00    +0.000 HD
ENDBRANCH  15  23
ENDBRANCH   1  15
TORSDOF 3
ENDMDL
MODEL 9
REMARK VINA RESULT:      -7.7      3.464      6.130
REMARK  Name = 
REMARK  3 active torsions:
REMARK  status: ('A' for Active; 'I' for Inactive)
REMARK    1  A    between atoms: C_8  and  C_9
REMARK    2  A    between atoms: C_9  and  N_10
REMARK    3  A    between atoms: C_14  and  C_15
REMARK                            x       y       z     vdW  Elec       q    Type
REMARK                         _______ _______ _______ _____ _____    ______ ____
ROOT
ATOM      1  N   UNL     1       3.637   3.842  18.581  0.00  0.00    +0.000 NA
ATOM      2  C   UNL     1       2.467   2.964  18.743  0.00  0.00    +0.000 C 
ATOM      3  C   UNL     1       1.219   3.567  19.407  0.00  0.00    +0.000 C 
ATOM      4  O   UNL     1       1.449   4.416  20.537  0.00  0.00    +0.000 OA
ATOM      5  C   UNL     1       2.547   5.333  20.406  0.00  0.00    +0.000 C 
ATOM      6  C   UNL     1       3.811   4.593  19.852  0.00  0.00    +0.000 C 
ENDROOT
BRANCH   5   7
ATOM      7  C   UNL     1       2.192   6.659  19.730  0.00  0.00    +0.000 A 
ATOM      8  C   UNL     1       2.535   6.954  18.398  0.00  0.00    +0.000 A 
ATOM      9  C   UNL     1       2.339   8.232  17.858  0.00  0.00    +0.000 A 
ATOM     10  C   UNL     1       1.732   9.211  18.624  0.00  0.00    +0.000 A 
ATOM     11  F   UNL     1       1.560  10.440  18.114  0.00  0.00    +0.000 F 
ATOM     12  C   UNL     1       1.303   8.921  19.911  0.00  0.00    +0.000 A 
ATOM     13  F   UNL     1       0.679   9.857  20.641  0.00  0.00    +0.000 F 
ATOM     14  C   UNL     1       1.526   7.661  20.467  0.00  0.00    +0.000 A 
ENDBRANCH   5   7
BRANCH   1  15
ATOM     15  C   UNL     1       3.602   4.761  17.431  0.00  0.00    +0.000 C 
BRANCH  15  23
ATOM     16  O   UNL     1       7.847   7.794  18.204  0.00  0.00    +0.000 OA
ATOM     17  C   UNL     1       7.280   7.010  17.459  0.00  0.00    +0.000 A 
ATOM     18  N   UNL     1       7.806   6.515  16.291  0.00  0.00    +0.000 N 
ATOM     19  C   UNL     1       6.924   5.599  15.795  0.00  0.00    +0.000 A 
ATOM     20  C   UNL     1       7.033   4.761  14.712  0.00  0.00    +0.000 A 
ATOM     21  C   UNL     1       6.004   3.831  14.545  0.00  0.00    +0.000 A 
ATOM     22  C   UNL     1       4.889   3.805  15.417  0.00  0.00    +0.000 A 
ATOM     23  C   UNL     1       4.763   4.733  16.467  0.00  0.00    +0.000 A 
ATOM     24  C   UNL     1       5.841   5.591  16.649  0.00  0.00    +0.000 A 
ATOM     25  O   UNL     1       6.005   6.489  17.699  0.00  0.00    +0.000 OA
ATOM     26  H   UNL     1       8.727   6.739  15.953  0.00  0.00    +0.000 HD
ENDBRANCH  15  23
ENDBRANCH   1  15
TORSDOF 3
ENDMDL
