MODEL 1
REMARK VINA RESULT:      -8.4      0.000      0.000
REMARK  Name = 
REMARK  7 active torsions:
REMARK  status: ('A' for Active; 'I' for Inactive)
REMARK    1  A    between atoms: C_1  and  C_2
REMARK    2  A    between atoms: C_2  and  S_3
REMARK    3  A    between atoms: C_2  and  C_19
REMARK    4  A    between atoms: S_3  and  C_4
REMARK    5  A    between atoms: C_7  and  C_8
REMARK    6  A    between atoms: N_15  and  C_16
REMARK    7  A    between atoms: C_22  and  C_23
REMARK                            x       y       z     vdW  Elec       q    Type
REMARK                         _______ _______ _______ _____ _____    ______ ____
ROOT
ATOM      1  S   UNL     1       0.997   7.363  20.855  0.00  0.00    +0.000 S 
ENDROOT
BRANCH   1   2
ATOM      2  C   UNL     1       2.167   7.149  19.587  0.00  0.00    +0.000 A 
ATOM      3  N   UNL     1       2.290   7.963  18.562  0.00  0.00    +0.000 NA
ATOM      4  N   UNL     1       3.341   7.534  17.793  0.00  0.00    +0.000 NA
ATOM      5  C   UNL     1       3.869   6.450  18.342  0.00  0.00    +0.000 A 
ATOM      6  N   UNL     1       3.068   6.108  19.437  0.00  0.00    +0.000 N 
BRANCH   5   7
ATOM      7  C   UNL     1       5.091   5.793  17.843  0.00  0.00    +0.000 A 
ATOM      8  C   UNL     1       6.328   6.099  18.441  0.00  0.00    +0.000 A 
ATOM      9  C   UNL     1       7.514   5.469  18.041  0.00  0.00    +0.000 A 
ATOM     10  C   UNL     1       7.491   4.516  17.027  0.00  0.00    +0.000 A 
ATOM     11  C   UNL     1       6.279   4.178  16.433  0.00  0.00    +0.000 A 
ATOM     12  C   UNL     1       5.099   4.796  16.858  0.00  0.00    +0.000 A 
ATOM     13  F   UNL     1       3.954   4.364  16.311  0.00  0.00    +0.000 F 
ENDBRANCH   5   7
BRANCH   6  14
ATOM     14  C   UNL     1       3.124   4.808  20.090  0.00  0.00    +0.000 C 
ATOM     15  C   UNL     1       3.063   3.442  19.448  0.00  0.00    +0.000 C 
ATOM     16  C   UNL     1       1.901   3.930  20.248  0.00  0.00    +0.000 C 
ENDBRANCH   6  14
ENDBRANCH   1   2
BRANCH   1  18
ATOM     17  C   UNL     1       0.538   9.343  22.765  0.00  0.00    +0.000 C 
ATOM     18  C   UNL     1       1.233   9.111  21.414  0.00  0.00    +0.000 C 
BRANCH  18  19
ATOM     19  C   UNL     1       0.638  10.066  20.402  0.00  0.00    +0.000 A 
ATOM     20  N   UNL     1       1.169  11.181  19.940  0.00  0.00    +0.000 NA
ATOM     21  N   UNL     1       0.316  11.665  18.982  0.00  0.00    +0.000 NA
ATOM     22  C   UNL     1      -0.702  10.829  18.908  0.00  0.00    +0.000 A 
ATOM     23  O   UNL     1      -0.565   9.765  19.780  0.00  0.00    +0.000 OA
BRANCH  22  24
ATOM     24  C   UNL     1      -1.896  10.954  18.062  0.00  0.00    +0.000 A 
ATOM     25  C   UNL     1      -3.059  11.521  18.627  0.00  0.00    +0.000 A 
ATOM     26  C   UNL     1      -4.259  11.613  17.914  0.00  0.00    +0.000 A 
ATOM     27  C   UNL     1      -4.320  11.137  16.609  0.00  0.00    +0.000 A 
ATOM     28  C   UNL     1      -3.170  10.592  16.027  0.00  0.00    +0.000 A 
ATOM     29 CL   UNL     1      -3.261  10.005  14.409  0.00  0.00    +0.000 Cl
ATOM     30  C   UNL     1      -1.967  10.506  16.737  0.00  0.00    +0.000 A 
ENDBRANCH  22  24
ENDBRANCH  18  19
ENDBRANCH   1  18
TORSDOF 6
ENDMDL
MODEL 2
REMARK VINA RESULT:      -8.4      5.698      8.714
REMARK  Name = 
REMARK  7 active torsions:
REMARK  status: ('A' for Active; 'I' for Inactive)
REMARK    1  A    between atoms: C_1  and  C_2
REMARK    2  A    between atoms: C_2  and  S_3
REMARK    3  A    between atoms: C_2  and  C_19
REMARK    4  A    between atoms: S_3  and  C_4
REMARK    5  A    between atoms: C_7  and  C_8
REMARK    6  A    between atoms: N_15  and  C_16
REMARK    7  A    between atoms: C_22  and  C_23
REMARK                            x       y       z     vdW  Elec       q    Type
REMARK                         _______ _______ _______ _____ _____    ______ ____
ROOT
ATOM      1  S   UNL     1       6.467   5.862  16.245  0.00  0.00    +0.000 S 
ENDROOT
BRANCH   1   2
ATOM      2  C   UNL     1       5.320   4.746  16.924  0.00  0.00    +0.000 A 
ATOM      3  N   UNL     1       5.177   3.506  16.511  0.00  0.00    +0.000 NA
ATOM      4  N   UNL     1       4.235   2.895  17.299  0.00  0.00    +0.000 NA
ATOM      5  C   UNL     1       3.793   3.760  18.200  0.00  0.00    +0.000 A 
ATOM      6  N   UNL     1       4.387   4.994  17.917  0.00  0.00    +0.000 N 
BRANCH   5   7
ATOM      7  C   UNL     1       2.860   3.404  19.286  0.00  0.00    +0.000 A 
ATOM      8  C   UNL     1       3.375   3.088  20.557  0.00  0.00    +0.000 A 
ATOM      9  C   UNL     1       2.533   2.791  21.638  0.00  0.00    +0.000 A 
ATOM     10  C   UNL     1       1.152   2.801  21.470  0.00  0.00    +0.000 A 
ATOM     11  C   UNL     1       0.616   3.131  20.230  0.00  0.00    +0.000 A 
ATOM     12  C   UNL     1       1.465   3.449  19.166  0.00  0.00    +0.000 A 
ATOM     13  F   UNL     1       0.888   3.846  18.024  0.00  0.00    +0.000 F 
ENDBRANCH   5   7
BRANCH   6  14
ATOM     14  C   UNL     1       3.910   6.253  18.469  0.00  0.00    +0.000 C 
ATOM     15  C   UNL     1       2.627   6.511  19.224  0.00  0.00    +0.000 C 
ATOM     16  C   UNL     1       2.778   7.036  17.835  0.00  0.00    +0.000 C 
ENDBRANCH   6  14
ENDBRANCH   1   2
BRANCH   1  18
ATOM     17  C   UNL     1       7.041   5.744  18.972  0.00  0.00    +0.000 C 
ATOM     18  C   UNL     1       7.613   6.259  17.642  0.00  0.00    +0.000 C 
BRANCH  18  19
ATOM     19  C   UNL     1       7.800   7.757  17.752  0.00  0.00    +0.000 A 
ATOM     20  N   UNL     1       7.057   8.701  17.209  0.00  0.00    +0.000 NA
ATOM     21  N   UNL     1       7.550   9.903  17.650  0.00  0.00    +0.000 NA
ATOM     22  C   UNL     1       8.577   9.639  18.434  0.00  0.00    +0.000 A 
ATOM     23  O   UNL     1       8.797   8.279  18.563  0.00  0.00    +0.000 OA
BRANCH  22  24
ATOM     24  C   UNL     1       9.460  10.605  19.099  0.00  0.00    +0.000 A 
ATOM     25  C   UNL     1       9.304  10.809  20.487  0.00  0.00    +0.000 A 
ATOM     26  C   UNL     1      10.056  11.760  21.184  0.00  0.00    +0.000 A 
ATOM     27  C   UNL     1      10.990  12.532  20.502  0.00  0.00    +0.000 A 
ATOM     28  C   UNL     1      11.173  12.326  19.131  0.00  0.00    +0.000 A 
ATOM     29 CL   UNL     1      12.333  13.291  18.297  0.00  0.00    +0.000 Cl
ATOM     30  C   UNL     1      10.426  11.370  18.433  0.00  0.00    +0.000 A 
ENDBRANCH  22  24
ENDBRANCH  18  19
ENDBRANCH   1  18
TORSDOF 6
ENDMDL
MODEL 3
REMARK VINA RESULT:      -8.3      3.345      8.375
REMARK  Name = 
REMARK  7 active torsions:
REMARK  status: ('A' for Active; 'I' for Inactive)
REMARK    1  A    between atoms: C_1  and  C_2
REMARK    2  A    between atoms: C_2  and  S_3
REMARK    3  A    between atoms: C_2  and  C_19
REMARK    4  A    between atoms: S_3  and  C_4
REMARK    5  A    between atoms: C_7  and  C_8
REMARK    6  A    between atoms: N_15  and  C_16
REMARK    7  A    between atoms: C_22  and  C_23
REMARK                            x       y       z     vdW  Elec       q    Type
REMARK                         _______ _______ _______ _____ _____    ______ ____
ROOT
ATOM      1  S   UNL     1       2.394   5.909  20.599  0.00  0.00    +0.000 S 
ENDROOT
BRANCH   1   2
ATOM      2  C   UNL     1       2.103   7.358  19.683  0.00  0.00    +0.000 A 
ATOM      3  N   UNL     1       2.736   7.657  18.570  0.00  0.00    +0.000 NA
ATOM      4  N   UNL     1       2.222   8.832  18.083  0.00  0.00    +0.000 NA
ATOM      5  C   UNL     1       1.271   9.262  18.898  0.00  0.00    +0.000 A 
ATOM      6  N   UNL     1       1.244   8.398  19.997  0.00  0.00    +0.000 N 
BRANCH   5   7
ATOM      7  C   UNL     1       0.422  10.435  18.617  0.00  0.00    +0.000 A 
ATOM      8  C   UNL     1      -0.907  10.237  18.199  0.00  0.00    +0.000 A 
ATOM      9  C   UNL     1      -1.773  11.314  17.966  0.00  0.00    +0.000 A 
ATOM     10  C   UNL     1      -1.326  12.620  18.143  0.00  0.00    +0.000 A 
ATOM     11  C   UNL     1      -0.024  12.844  18.577  0.00  0.00    +0.000 A 
ATOM     12  C   UNL     1       0.823  11.761  18.830  0.00  0.00    +0.000 A 
ATOM     13  F   UNL     1       2.034  12.038  19.331  0.00  0.00    +0.000 F 
ENDBRANCH   5   7
BRANCH   6  14
ATOM     14  C   UNL     1       0.571   8.719  21.247  0.00  0.00    +0.000 C 
ATOM     15  C   UNL     1       0.364  10.081  21.868  0.00  0.00    +0.000 C 
ATOM     16  C   UNL     1       1.331   9.130  22.492  0.00  0.00    +0.000 C 
ENDBRANCH   6  14
ENDBRANCH   1   2
BRANCH   1  18
ATOM     17  C   UNL     1       1.088   3.447  20.717  0.00  0.00    +0.000 C 
ATOM     18  C   UNL     1       1.371   4.616  19.760  0.00  0.00    +0.000 C 
BRANCH  18  19
ATOM     19  C   UNL     1       2.105   4.075  18.552  0.00  0.00    +0.000 A 
ATOM     20  N   UNL     1       1.690   3.152  17.706  0.00  0.00    +0.000 NA
ATOM     21  N   UNL     1       2.643   3.049  16.725  0.00  0.00    +0.000 NA
ATOM     22  C   UNL     1       3.601   3.906  17.020  0.00  0.00    +0.000 A 
ATOM     23  O   UNL     1       3.325   4.617  18.175  0.00  0.00    +0.000 OA
BRANCH  22  24
ATOM     24  C   UNL     1       4.858   4.121  16.294  0.00  0.00    +0.000 A 
ATOM     25  C   UNL     1       5.937   4.714  16.986  0.00  0.00    +0.000 A 
ATOM     26  C   UNL     1       7.146   5.016  16.350  0.00  0.00    +0.000 A 
ATOM     27  C   UNL     1       7.303   4.728  15.000  0.00  0.00    +0.000 A 
ATOM     28  C   UNL     1       6.252   4.120  14.306  0.00  0.00    +0.000 A 
ATOM     29 CL   UNL     1       6.460   3.769  12.630  0.00  0.00    +0.000 Cl
ATOM     30  C   UNL     1       5.044   3.810  14.941  0.00  0.00    +0.000 A 
ENDBRANCH  22  24
ENDBRANCH  18  19
ENDBRANCH   1  18
TORSDOF 6
ENDMDL
MODEL 4
REMARK VINA RESULT:      -8.3      1.127      1.370
REMARK  Name = 
REMARK  7 active torsions:
REMARK  status: ('A' for Active; 'I' for Inactive)
REMARK    1  A    between atoms: C_1  and  C_2
REMARK    2  A    between atoms: C_2  and  S_3
REMARK    3  A    between atoms: C_2  and  C_19
REMARK    4  A    between atoms: S_3  and  C_4
REMARK    5  A    between atoms: C_7  and  C_8
REMARK    6  A    between atoms: N_15  and  C_16
REMARK    7  A    between atoms: C_22  and  C_23
REMARK                            x       y       z     vdW  Elec       q    Type
REMARK                         _______ _______ _______ _____ _____    ______ ____
ROOT
ATOM      1  S   UNL     1       1.077   7.535  20.554  0.00  0.00    +0.000 S 
ENDROOT
BRANCH   1   2
ATOM      2  C   UNL     1       2.234   7.344  19.270  0.00  0.00    +0.000 A 
ATOM      3  N   UNL     1       2.500   8.277  18.383  0.00  0.00    +0.000 NA
ATOM      4  N   UNL     1       3.496   7.819  17.559  0.00  0.00    +0.000 NA
ATOM      5  C   UNL     1       3.846   6.598  17.936  0.00  0.00    +0.000 A 
ATOM      6  N   UNL     1       2.977   6.216  18.964  0.00  0.00    +0.000 N 
BRANCH   5   7
ATOM      7  C   UNL     1       4.971   5.850  17.345  0.00  0.00    +0.000 A 
ATOM      8  C   UNL     1       5.006   5.647  15.952  0.00  0.00    +0.000 A 
ATOM      9  C   UNL     1       6.075   4.987  15.332  0.00  0.00    +0.000 A 
ATOM     10  C   UNL     1       7.138   4.510  16.093  0.00  0.00    +0.000 A 
ATOM     11  C   UNL     1       7.140   4.716  17.469  0.00  0.00    +0.000 A 
ATOM     12  C   UNL     1       6.079   5.397  18.074  0.00  0.00    +0.000 A 
ATOM     13  F   UNL     1       6.182   5.643  19.387  0.00  0.00    +0.000 F 
ENDBRANCH   5   7
BRANCH   6  14
ATOM     14  C   UNL     1       2.827   4.839  19.410  0.00  0.00    +0.000 C 
ATOM     15  C   UNL     1       2.906   3.579  18.579  0.00  0.00    +0.000 C 
ATOM     16  C   UNL     1       1.585   4.024  19.114  0.00  0.00    +0.000 C 
ENDBRANCH   6  14
ENDBRANCH   1   2
BRANCH   1  18
ATOM     17  C   UNL     1       1.366   9.342  22.659  0.00  0.00    +0.000 C 
ATOM     18  C   UNL     1       1.299   9.280  21.125  0.00  0.00    +0.000 C 
BRANCH  18  19
ATOM     19  C   UNL     1       0.135  10.130  20.664  0.00  0.00    +0.000 A 
ATOM     20  N   UNL     1      -0.380  11.183  21.269  0.00  0.00    +0.000 NA
ATOM     21  N   UNL     1      -1.357  11.681  20.444  0.00  0.00    +0.000 NA
ATOM     22  C   UNL     1      -1.402  10.905  19.379  0.00  0.00    +0.000 A 
ATOM     23  O   UNL     1      -0.463   9.890  19.436  0.00  0.00    +0.000 OA
BRANCH  22  24
ATOM     24  C   UNL     1      -2.326  11.005  18.243  0.00  0.00    +0.000 A 
ATOM     25  C   UNL     1      -3.579  11.621  18.453  0.00  0.00    +0.000 A 
ATOM     26  C   UNL     1      -4.545  11.696  17.443  0.00  0.00    +0.000 A 
ATOM     27  C   UNL     1      -4.274  11.154  16.193  0.00  0.00    +0.000 A 
ATOM     28  C   UNL     1      -3.029  10.560  15.962  0.00  0.00    +0.000 A 
ATOM     29 CL   UNL     1      -2.707   9.890  14.406  0.00  0.00    +0.000 Cl
ATOM     30  C   UNL     1      -2.059  10.490  16.968  0.00  0.00    +0.000 A 
ENDBRANCH  22  24
ENDBRANCH  18  19
ENDBRANCH   1  18
TORSDOF 6
ENDMDL
MODEL 5
REMARK VINA RESULT:      -8.3      0.975      1.295
REMARK  Name = 
REMARK  7 active torsions:
REMARK  status: ('A' for Active; 'I' for Inactive)
REMARK    1  A    between atoms: C_1  and  C_2
REMARK    2  A    between atoms: C_2  and  S_3
REMARK    3  A    between atoms: C_2  and  C_19
REMARK    4  A    between atoms: S_3  and  C_4
REMARK    5  A    between atoms: C_7  and  C_8
REMARK    6  A    between atoms: N_15  and  C_16
REMARK    7  A    between atoms: C_22  and  C_23
REMARK                            x       y       z     vdW  Elec       q    Type
REMARK                         _______ _______ _______ _____ _____    ______ ____
ROOT
ATOM      1  S   UNL     1       1.033   7.518  20.849  0.00  0.00    +0.000 S 
ENDROOT
BRANCH   1   2
ATOM      2  C   UNL     1       2.156   7.269  19.545  0.00  0.00    +0.000 A 
ATOM      3  N   UNL     1       2.268   8.078  18.515  0.00  0.00    +0.000 NA
ATOM      4  N   UNL     1       3.282   7.619  17.713  0.00  0.00    +0.000 NA
ATOM      5  C   UNL     1       3.797   6.522  18.248  0.00  0.00    +0.000 A 
ATOM      6  N   UNL     1       3.023   6.204  19.369  0.00  0.00    +0.000 N 
BRANCH   5   7
ATOM      7  C   UNL     1       4.985   5.831  17.713  0.00  0.00    +0.000 A 
ATOM      8  C   UNL     1       6.260   6.191  18.187  0.00  0.00    +0.000 A 
ATOM      9  C   UNL     1       7.419   5.534  17.749  0.00  0.00    +0.000 A 
ATOM     10  C   UNL     1       7.328   4.501  16.821  0.00  0.00    +0.000 A 
ATOM     11  C   UNL     1       6.078   4.111  16.353  0.00  0.00    +0.000 A 
ATOM     12  C   UNL     1       4.928   4.757  16.814  0.00  0.00    +0.000 A 
ATOM     13  F   UNL     1       3.749   4.277  16.395  0.00  0.00    +0.000 F 
ENDBRANCH   5   7
BRANCH   6  14
ATOM     14  C   UNL     1       3.065   4.905  20.024  0.00  0.00    +0.000 C 
ATOM     15  C   UNL     1       2.674   3.562  19.451  0.00  0.00    +0.000 C 
ATOM     16  C   UNL     1       1.812   4.195  20.493  0.00  0.00    +0.000 C 
ENDBRANCH   6  14
ENDBRANCH   1   2
BRANCH   1  18
ATOM     17  C   UNL     1       1.171   9.426  22.879  0.00  0.00    +0.000 C 
ATOM     18  C   UNL     1       1.289   9.280  21.354  0.00  0.00    +0.000 C 
BRANCH  18  19
ATOM     19  C   UNL     1       0.243  10.162  20.707  0.00  0.00    +0.000 A 
ATOM     20  N   UNL     1      -0.067  11.404  21.024  0.00  0.00    +0.000 NA
ATOM     21  N   UNL     1      -1.004  11.827  20.116  0.00  0.00    +0.000 NA
ATOM     22  C   UNL     1      -1.231  10.823  19.293  0.00  0.00    +0.000 A 
ATOM     23  O   UNL     1      -0.458   9.717  19.596  0.00  0.00    +0.000 OA
BRANCH  22  24
ATOM     24  C   UNL     1      -2.195  10.780  18.186  0.00  0.00    +0.000 A 
ATOM     25  C   UNL     1      -1.881   9.994  17.056  0.00  0.00    +0.000 A 
ATOM     26  C   UNL     1      -2.711   9.952  15.931  0.00  0.00    +0.000 A 
ATOM     27  C   UNL     1      -3.882  10.700  15.913  0.00  0.00    +0.000 A 
ATOM     28  C   UNL     1      -4.219  11.466  17.034  0.00  0.00    +0.000 A 
ATOM     29 CL   UNL     1      -5.675  12.389  16.998  0.00  0.00    +0.000 Cl
ATOM     30  C   UNL     1      -3.394  11.504  18.163  0.00  0.00    +0.000 A 
ENDBRANCH  22  24
ENDBRANCH  18  19
ENDBRANCH   1  18
TORSDOF 6
ENDMDL
MODEL 6
REMARK VINA RESULT:      -8.2      3.337      8.302
REMARK  Name = 
REMARK  7 active torsions:
REMARK  status: ('A' for Active; 'I' for Inactive)
REMARK    1  A    between atoms: C_1  and  C_2
REMARK    2  A    between atoms: C_2  and  S_3
REMARK    3  A    between atoms: C_2  and  C_19
REMARK    4  A    between atoms: S_3  and  C_4
REMARK    5  A    between atoms: C_7  and  C_8
REMARK    6  A    between atoms: N_15  and  C_16
REMARK    7  A    between atoms: C_22  and  C_23
REMARK                            x       y       z     vdW  Elec       q    Type
REMARK                         _______ _______ _______ _____ _____    ______ ____
ROOT
ATOM      1  S   UNL     1       2.323   6.100  20.524  0.00  0.00    +0.000 S 
ENDROOT
BRANCH   1   2
ATOM      2  C   UNL     1       2.030   7.535  19.586  0.00  0.00    +0.000 A 
ATOM      3  N   UNL     1       2.435   7.691  18.345  0.00  0.00    +0.000 NA
ATOM      4  N   UNL     1       1.984   8.905  17.893  0.00  0.00    +0.000 NA
ATOM      5  C   UNL     1       1.302   9.503  18.858  0.00  0.00    +0.000 A 
ATOM      6  N   UNL     1       1.405   8.700  19.999  0.00  0.00    +0.000 N 
BRANCH   5   7
ATOM      7  C   UNL     1       0.574  10.773  18.679  0.00  0.00    +0.000 A 
ATOM      8  C   UNL     1       1.282  11.987  18.749  0.00  0.00    +0.000 A 
ATOM      9  C   UNL     1       0.650  13.220  18.538  0.00  0.00    +0.000 A 
ATOM     10  C   UNL     1      -0.711  13.268  18.254  0.00  0.00    +0.000 A 
ATOM     11  C   UNL     1      -1.431  12.082  18.157  0.00  0.00    +0.000 A 
ATOM     12  C   UNL     1      -0.785  10.856  18.346  0.00  0.00    +0.000 A 
ATOM     13  F   UNL     1      -1.512   9.748  18.151  0.00  0.00    +0.000 F 
ENDBRANCH   5   7
BRANCH   6  14
ATOM     14  C   UNL     1       1.074   9.169  21.336  0.00  0.00    +0.000 C 
ATOM     15  C   UNL     1       0.135   8.537  22.337  0.00  0.00    +0.000 C 
ATOM     16  C   UNL     1      -0.259   9.809  21.662  0.00  0.00    +0.000 C 
ENDBRANCH   6  14
ENDBRANCH   1   2
BRANCH   1  18
ATOM     17  C   UNL     1       0.995   3.652  20.682  0.00  0.00    +0.000 C 
ATOM     18  C   UNL     1       1.311   4.790  19.698  0.00  0.00    +0.000 C 
BRANCH  18  19
ATOM     19  C   UNL     1       2.070   4.209  18.525  0.00  0.00    +0.000 A 
ATOM     20  N   UNL     1       1.678   3.248  17.710  0.00  0.00    +0.000 NA
ATOM     21  N   UNL     1       2.648   3.116  16.750  0.00  0.00    +0.000 NA
ATOM     22  C   UNL     1       3.593   3.994  17.026  0.00  0.00    +0.000 A 
ATOM     23  O   UNL     1       3.291   4.747  18.146  0.00  0.00    +0.000 OA
BRANCH  22  24
ATOM     24  C   UNL     1       4.861   4.191  16.312  0.00  0.00    +0.000 A 
ATOM     25  C   UNL     1       5.939   4.772  17.014  0.00  0.00    +0.000 A 
ATOM     26  C   UNL     1       7.158   5.059  16.391  0.00  0.00    +0.000 A 
ATOM     27  C   UNL     1       7.326   4.765  15.043  0.00  0.00    +0.000 A 
ATOM     28  C   UNL     1       6.274   4.169  14.339  0.00  0.00    +0.000 A 
ATOM     29 CL   UNL     1       6.496   3.811  12.667  0.00  0.00    +0.000 Cl
ATOM     30  C   UNL     1       5.057   3.875  14.962  0.00  0.00    +0.000 A 
ENDBRANCH  22  24
ENDBRANCH  18  19
ENDBRANCH   1  18
TORSDOF 6
ENDMDL
MODEL 7
REMARK VINA RESULT:      -8.1      5.144      8.261
REMARK  Name = 
REMARK  7 active torsions:
REMARK  status: ('A' for Active; 'I' for Inactive)
REMARK    1  A    between atoms: C_1  and  C_2
REMARK    2  A    between atoms: C_2  and  S_3
REMARK    3  A    between atoms: C_2  and  C_19
REMARK    4  A    between atoms: S_3  and  C_4
REMARK    5  A    between atoms: C_7  and  C_8
REMARK    6  A    between atoms: N_15  and  C_16
REMARK    7  A    between atoms: C_22  and  C_23
REMARK                            x       y       z     vdW  Elec       q    Type
REMARK                         _______ _______ _______ _____ _____    ______ ____
ROOT
ATOM      1  S   UNL     1       5.367   6.289  15.736  0.00  0.00    +0.000 S 
ENDROOT
BRANCH   1   2
ATOM      2  C   UNL     1       4.397   5.120  16.581  0.00  0.00    +0.000 A 
ATOM      3  N   UNL     1       4.059   3.952  16.079  0.00  0.00    +0.000 NA
ATOM      4  N   UNL     1       3.349   3.263  17.029  0.00  0.00    +0.000 NA
ATOM      5  C   UNL     1       3.244   4.007  18.120  0.00  0.00    +0.000 A 
ATOM      6  N   UNL     1       3.810   5.252  17.829  0.00  0.00    +0.000 N 
BRANCH   5   7
ATOM      7  C   UNL     1       2.646   3.530  19.380  0.00  0.00    +0.000 A 
ATOM      8  C   UNL     1       1.249   3.588  19.543  0.00  0.00    +0.000 A 
ATOM      9  C   UNL     1       0.623   3.104  20.700  0.00  0.00    +0.000 A 
ATOM     10  C   UNL     1       1.383   2.551  21.726  0.00  0.00    +0.000 A 
ATOM     11  C   UNL     1       2.763   2.461  21.582  0.00  0.00    +0.000 A 
ATOM     12  C   UNL     1       3.374   2.925  20.414  0.00  0.00    +0.000 A 
ATOM     13  F   UNL     1       4.694   2.729  20.297  0.00  0.00    +0.000 F 
ENDBRANCH   5   7
BRANCH   6  14
ATOM     14  C   UNL     1       3.595   6.436  18.648  0.00  0.00    +0.000 C 
ATOM     15  C   UNL     1       2.311   6.898  19.296  0.00  0.00    +0.000 C 
ATOM     16  C   UNL     1       2.858   7.654  18.131  0.00  0.00    +0.000 C 
ENDBRANCH   6  14
ENDBRANCH   1   2
BRANCH   1  18
ATOM     17  C   UNL     1       7.190   4.372  16.619  0.00  0.00    +0.000 C 
ATOM     18  C   UNL     1       7.111   5.834  16.152  0.00  0.00    +0.000 C 
BRANCH  18  19
ATOM     19  C   UNL     1       7.628   6.718  17.267  0.00  0.00    +0.000 A 
ATOM     20  N   UNL     1       7.993   6.352  18.479  0.00  0.00    +0.000 NA
ATOM     21  N   UNL     1       8.472   7.473  19.109  0.00  0.00    +0.000 NA
ATOM     22  C   UNL     1       8.369   8.474  18.257  0.00  0.00    +0.000 A 
ATOM     23  O   UNL     1       7.846   8.070  17.042  0.00  0.00    +0.000 OA
BRANCH  22  24
ATOM     24  C   UNL     1       8.704   9.883  18.495  0.00  0.00    +0.000 A 
ATOM     25  C   UNL     1       9.532  10.197  19.595  0.00  0.00    +0.000 A 
ATOM     26  C   UNL     1       9.843  11.518  19.934  0.00  0.00    +0.000 A 
ATOM     27  C   UNL     1       9.330  12.561  19.171  0.00  0.00    +0.000 A 
ATOM     28  C   UNL     1       8.527  12.266  18.064  0.00  0.00    +0.000 A 
ATOM     29 CL   UNL     1       7.897  13.570  17.128  0.00  0.00    +0.000 Cl
ATOM     30  C   UNL     1       8.220  10.945  17.720  0.00  0.00    +0.000 A 
ENDBRANCH  22  24
ENDBRANCH  18  19
ENDBRANCH   1  18
TORSDOF 6
ENDMDL
MODEL 8
REMARK VINA RESULT:      -8.1      1.264      1.765
REMARK  Name = 
REMARK  7 active torsions:
REMARK  status: ('A' for Active; 'I' for Inactive)
REMARK    1  A    between atoms: C_1  and  C_2
REMARK    2  A    between atoms: C_2  and  S_3
REMARK    3  A    between atoms: C_2  and  C_19
REMARK    4  A    between atoms: S_3  and  C_4
REMARK    5  A    between atoms: C_7  and  C_8
REMARK    6  A    between atoms: N_15  and  C_16
REMARK    7  A    between atoms: C_22  and  C_23
REMARK                            x       y       z     vdW  Elec       q    Type
REMARK                         _______ _______ _______ _____ _____    ______ ____
ROOT
ATOM      1  S   UNL     1       1.185   7.440  20.924  0.00  0.00    +0.000 S 
ENDROOT
BRANCH   1   2
ATOM      2  C   UNL     1       2.210   7.234  19.534  0.00  0.00    +0.000 A 
ATOM      3  N   UNL     1       2.330   8.128  18.577  0.00  0.00    +0.000 NA
ATOM      4  N   UNL     1       3.257   7.673  17.675  0.00  0.00    +0.000 NA
ATOM      5  C   UNL     1       3.710   6.493  18.072  0.00  0.00    +0.000 A 
ATOM      6  N   UNL     1       2.976   6.128  19.206  0.00  0.00    +0.000 N 
BRANCH   5   7
ATOM      7  C   UNL     1       4.805   5.769  17.402  0.00  0.00    +0.000 A 
ATOM      8  C   UNL     1       4.494   4.751  16.481  0.00  0.00    +0.000 A 
ATOM      9  C   UNL     1       5.493   4.064  15.779  0.00  0.00    +0.000 A 
ATOM     10  C   UNL     1       6.833   4.378  15.984  0.00  0.00    +0.000 A 
ATOM     11  C   UNL     1       7.168   5.395  16.872  0.00  0.00    +0.000 A 
ATOM     12  C   UNL     1       6.162   6.090  17.549  0.00  0.00    +0.000 A 
ATOM     13  F   UNL     1       6.543   7.117  18.320  0.00  0.00    +0.000 F 
ENDBRANCH   5   7
BRANCH   6  14
ATOM     14  C   UNL     1       2.948   4.772  19.734  0.00  0.00    +0.000 C 
ATOM     15  C   UNL     1       2.422   3.524  19.064  0.00  0.00    +0.000 C 
ATOM     16  C   UNL     1       1.668   4.115  20.208  0.00  0.00    +0.000 C 
ENDBRANCH   6  14
ENDBRANCH   1   2
BRANCH   1  18
ATOM     17  C   UNL     1       0.738   9.498  22.752  0.00  0.00    +0.000 C 
ATOM     18  C   UNL     1       1.375   9.223  21.381  0.00  0.00    +0.000 C 
BRANCH  18  19
ATOM     19  C   UNL     1       0.693  10.099  20.353  0.00  0.00    +0.000 A 
ATOM     20  N   UNL     1       1.123  11.244  19.861  0.00  0.00    +0.000 NA
ATOM     21  N   UNL     1       0.223  11.630  18.900  0.00  0.00    +0.000 NA
ATOM     22  C   UNL     1      -0.719  10.709  18.854  0.00  0.00    +0.000 A 
ATOM     23  O   UNL     1      -0.485   9.681  19.750  0.00  0.00    +0.000 OA
BRANCH  22  24
ATOM     24  C   UNL     1      -1.926  10.711  18.018  0.00  0.00    +0.000 A 
ATOM     25  C   UNL     1      -1.917   9.944  16.832  0.00  0.00    +0.000 A 
ATOM     26  C   UNL     1      -2.998   9.945  15.943  0.00  0.00    +0.000 A 
ATOM     27  C   UNL     1      -4.119  10.717  16.226  0.00  0.00    +0.000 A 
ATOM     28  C   UNL     1      -4.152  11.464  17.408  0.00  0.00    +0.000 A 
ATOM     29 CL   UNL     1      -5.548  12.418  17.745  0.00  0.00    +0.000 Cl
ATOM     30  C   UNL     1      -3.075  11.459  18.301  0.00  0.00    +0.000 A 
ENDBRANCH  22  24
ENDBRANCH  18  19
ENDBRANCH   1  18
TORSDOF 6
ENDMDL
MODEL 9
REMARK VINA RESULT:      -8.0      3.490      8.330
REMARK  Name = 
REMARK  7 active torsions:
REMARK  status: ('A' for Active; 'I' for Inactive)
REMARK    1  A    between atoms: C_1  and  C_2
REMARK    2  A    between atoms: C_2  and  S_3
REMARK    3  A    between atoms: C_2  and  C_19
REMARK    4  A    between atoms: S_3  and  C_4
REMARK    5  A    between atoms: C_7  and  C_8
REMARK    6  A    between atoms: N_15  and  C_16
REMARK    7  A    between atoms: C_22  and  C_23
REMARK                            x       y       z     vdW  Elec       q    Type
REMARK                         _______ _______ _______ _____ _____    ______ ____
ROOT
ATOM      1  S   UNL     1       2.376   6.096  20.727  0.00  0.00    +0.000 S 
ENDROOT
BRANCH   1   2
ATOM      2  C   UNL     1       1.367   7.512  20.721  0.00  0.00    +0.000 A 
ATOM      3  N   UNL     1       0.554   7.834  21.704  0.00  0.00    +0.000 NA
ATOM      4  N   UNL     1      -0.040   9.031  21.398  0.00  0.00    +0.000 NA
ATOM      5  C   UNL     1       0.404   9.451  20.223  0.00  0.00    +0.000 A 
ATOM      6  N   UNL     1       1.225   8.444  19.706  0.00  0.00    +0.000 N 
BRANCH   5   7
ATOM      7  C   UNL     1       0.065  10.763  19.641  0.00  0.00    +0.000 A 
ATOM      8  C   UNL     1       0.884  11.872  19.925  0.00  0.00    +0.000 A 
ATOM      9  C   UNL     1       0.637  13.131  19.360  0.00  0.00    +0.000 A 
ATOM     10  C   UNL     1      -0.440  13.311  18.499  0.00  0.00    +0.000 A 
ATOM     11  C   UNL     1      -1.253  12.227  18.185  0.00  0.00    +0.000 A 
ATOM     12  C   UNL     1      -0.983  10.971  18.734  0.00  0.00    +0.000 A 
ATOM     13  F   UNL     1      -1.746   9.949  18.323  0.00  0.00    +0.000 F 
ENDBRANCH   5   7
BRANCH   6  14
ATOM     14  C   UNL     1       1.631   8.384  18.309  0.00  0.00    +0.000 C 
ATOM     15  C   UNL     1       2.999   8.071  17.751  0.00  0.00    +0.000 C 
ATOM     16  C   UNL     1       2.473   9.466  17.665  0.00  0.00    +0.000 C 
ENDBRANCH   6  14
ENDBRANCH   1   2
BRANCH   1  18
ATOM     17  C   UNL     1       1.119   3.612  20.897  0.00  0.00    +0.000 C 
ATOM     18  C   UNL     1       1.343   4.785  19.930  0.00  0.00    +0.000 C 
BRANCH  18  19
ATOM     19  C   UNL     1       2.037   4.257  18.693  0.00  0.00    +0.000 A 
ATOM     20  N   UNL     1       1.557   3.411  17.802  0.00  0.00    +0.000 NA
ATOM     21  N   UNL     1       2.501   3.292  16.814  0.00  0.00    +0.000 NA
ATOM     22  C   UNL     1       3.518   4.062  17.150  0.00  0.00    +0.000 A 
ATOM     23  O   UNL     1       3.293   4.729  18.341  0.00  0.00    +0.000 OA
BRANCH  22  24
ATOM     24  C   UNL     1       4.788   4.223  16.432  0.00  0.00    +0.000 A 
ATOM     25  C   UNL     1       5.877   4.798  17.122  0.00  0.00    +0.000 A 
ATOM     26  C   UNL     1       7.101   5.051  16.492  0.00  0.00    +0.000 A 
ATOM     27  C   UNL     1       7.262   4.730  15.150  0.00  0.00    +0.000 A 
ATOM     28  C   UNL     1       6.199   4.139  14.458  0.00  0.00    +0.000 A 
ATOM     29 CL   UNL     1       6.412   3.747  12.792  0.00  0.00    +0.000 Cl
ATOM     30  C   UNL     1       4.977   3.879  15.087  0.00  0.00    +0.000 A 
ENDBRANCH  22  24
ENDBRANCH  18  19
ENDBRANCH   1  18
TORSDOF 6
ENDMDL
