MODEL 1
REMARK VINA RESULT:      -8.0      0.000      0.000
REMARK  Name = 
REMARK  6 active torsions:
REMARK  status: ('A' for Active; 'I' for Inactive)
REMARK    1  A    between atoms: C_1  and  C_2
REMARK    2  A    between atoms: N_4  and  C_5
REMARK    3  A    between atoms: C_13  and  C_14
REMARK    4  A    between atoms: N_16  and  C_17
REMARK    5  A    between atoms: C_17  and  C_18
REMARK    6  A    between atoms: C_21  and  C_22
REMARK                            x       y       z     vdW  Elec       q    Type
REMARK                         _______ _______ _______ _____ _____    ______ ____
ROOT
ATOM      1  C   UNL     1       9.090  10.222  18.766  0.00  0.00    +0.000 C 
ATOM      2  O   UNL     1       9.161  10.647  17.617  0.00  0.00    +0.000 OA
ATOM      3  N   UNL     1       8.702   8.923  19.039  0.00  0.00    +0.000 N 
ATOM      4  H   UNL     1       8.576   8.583  19.980  0.00  0.00    +0.000 HD
ENDROOT
BRANCH   1  10
ATOM      5  C   UNL     1      11.897  11.702  19.450  0.00  0.00    +0.000 C 
ATOM      6  C   UNL     1      10.619  11.727  20.212  0.00  0.00    +0.000 A 
ATOM      7  N   UNL     1      10.537  12.446  21.340  0.00  0.00    +0.000 NA
ATOM      8  N   UNL     1       9.297  12.208  21.820  0.00  0.00    +0.000 N 
ATOM      9  C   UNL     1       8.579  11.391  20.975  0.00  0.00    +0.000 A 
ATOM     10  C   UNL     1       9.397  11.062  19.914  0.00  0.00    +0.000 A 
BRANCH   8  11
ATOM     11  C   UNL     1       8.876  12.754  23.066  0.00  0.00    +0.000 A 
ATOM     12  C   UNL     1       8.500  11.896  24.111  0.00  0.00    +0.000 A 
ATOM     13  C   UNL     1       8.060  12.423  25.330  0.00  0.00    +0.000 A 
ATOM     14  C   UNL     1       7.986  13.803  25.502  0.00  0.00    +0.000 A 
ATOM     15 CL   UNL     1       7.421  14.455  26.990  0.00  0.00    +0.000 Cl
ATOM     16  C   UNL     1       8.363  14.663  24.473  0.00  0.00    +0.000 A 
ATOM     17  C   UNL     1       8.812  14.142  23.256  0.00  0.00    +0.000 A 
ENDBRANCH   8  11
ENDBRANCH   1  10
BRANCH   3  18
ATOM     18  C   UNL     1       8.330   8.071  17.933  0.00  0.00    +0.000 C 
BRANCH  18  19
ATOM     19  C   UNL     1       7.447   6.924  18.295  0.00  0.00    +0.000 A 
ATOM     20  N   UNL     1       7.921   5.976  19.113  0.00  0.00    +0.000 NA
ATOM     21  O   UNL     1       6.861   5.100  19.251  0.00  0.00    +0.000 OA
ATOM     22  C   UNL     1       5.827   5.591  18.503  0.00  0.00    +0.000 A 
ATOM     23  N   UNL     1       6.140   6.716  17.878  0.00  0.00    +0.000 NA
BRANCH  22  24
ATOM     24  C   UNL     1       4.593   4.804  18.536  0.00  0.00    +0.000 A 
ATOM     25  C   UNL     1       3.644   4.995  19.554  0.00  0.00    +0.000 A 
ATOM     26  C   UNL     1       2.467   4.230  19.592  0.00  0.00    +0.000 A 
ATOM     27  C   UNL     1       2.226   3.267  18.613  0.00  0.00    +0.000 A 
ATOM     28 CL   UNL     1       0.788   2.323  18.667  0.00  0.00    +0.000 Cl
ATOM     29  C   UNL     1       3.142   3.063  17.594  0.00  0.00    +0.000 A 
ATOM     30  C   UNL     1       4.310   3.827  17.564  0.00  0.00    +0.000 A 
ATOM     31  F   UNL     1       5.167   3.585  16.560  0.00  0.00    +0.000 F 
ENDBRANCH  22  24
ENDBRANCH  18  19
ENDBRANCH   3  18
TORSDOF 5
ENDMDL
MODEL 2
REMARK VINA RESULT:      -7.9      7.056     10.729
REMARK  Name = 
REMARK  6 active torsions:
REMARK  status: ('A' for Active; 'I' for Inactive)
REMARK    1  A    between atoms: C_1  and  C_2
REMARK    2  A    between atoms: N_4  and  C_5
REMARK    3  A    between atoms: C_13  and  C_14
REMARK    4  A    between atoms: N_16  and  C_17
REMARK    5  A    between atoms: C_17  and  C_18
REMARK    6  A    between atoms: C_21  and  C_22
REMARK                            x       y       z     vdW  Elec       q    Type
REMARK                         _______ _______ _______ _____ _____    ______ ____
ROOT
ATOM      1  C   UNL     1       1.993   5.292  20.134  0.00  0.00    +0.000 C 
ATOM      2  O   UNL     1       1.059   4.598  20.523  0.00  0.00    +0.000 OA
ATOM      3  N   UNL     1       2.105   6.626  20.481  0.00  0.00    +0.000 N 
ATOM      4  H   UNL     1       2.831   7.222  20.113  0.00  0.00    +0.000 HD
ENDROOT
BRANCH   1  10
ATOM      5  C   UNL     1       3.737   2.588  20.567  0.00  0.00    +0.000 C 
ATOM      6  C   UNL     1       3.793   3.565  19.446  0.00  0.00    +0.000 A 
ATOM      7  N   UNL     1       4.649   3.361  18.436  0.00  0.00    +0.000 NA
ATOM      8  N   UNL     1       4.511   4.439  17.633  0.00  0.00    +0.000 N 
ATOM      9  C   UNL     1       3.534   5.291  18.100  0.00  0.00    +0.000 A 
ATOM     10  C   UNL     1       3.036   4.757  19.272  0.00  0.00    +0.000 A 
BRANCH   8  11
ATOM     11  C   UNL     1       5.330   4.606  16.481  0.00  0.00    +0.000 A 
ATOM     12  C   UNL     1       4.839   4.240  15.218  0.00  0.00    +0.000 A 
ATOM     13  C   UNL     1       5.646   4.376  14.083  0.00  0.00    +0.000 A 
ATOM     14  C   UNL     1       6.943   4.868  14.210  0.00  0.00    +0.000 A 
ATOM     15 CL   UNL     1       7.947   5.013  12.821  0.00  0.00    +0.000 Cl
ATOM     16  C   UNL     1       7.437   5.240  15.458  0.00  0.00    +0.000 A 
ATOM     17  C   UNL     1       6.632   5.115  16.594  0.00  0.00    +0.000 A 
ENDBRANCH   8  11
ENDBRANCH   1  10
BRANCH   3  18
ATOM     18  C   UNL     1       1.059   7.215  21.287  0.00  0.00    +0.000 C 
BRANCH  18  19
ATOM     19  C   UNL     1       0.999   8.705  21.243  0.00  0.00    +0.000 A 
ATOM     20  N   UNL     1       1.449   9.401  22.294  0.00  0.00    +0.000 NA
ATOM     21  O   UNL     1       1.268  10.719  21.917  0.00  0.00    +0.000 OA
ATOM     22  C   UNL     1       0.722  10.713  20.664  0.00  0.00    +0.000 A 
ATOM     23  N   UNL     1       0.523   9.487  20.201  0.00  0.00    +0.000 NA
BRANCH  22  24
ATOM     24  C   UNL     1       0.472  12.031  20.077  0.00  0.00    +0.000 A 
ATOM     25  C   UNL     1       1.482  12.711  19.378  0.00  0.00    +0.000 A 
ATOM     26  C   UNL     1       1.245  13.981  18.827  0.00  0.00    +0.000 A 
ATOM     27  C   UNL     1      -0.005  14.583  18.968  0.00  0.00    +0.000 A 
ATOM     28 CL   UNL     1      -0.292  16.143  18.300  0.00  0.00    +0.000 Cl
ATOM     29  C   UNL     1      -1.021  13.930  19.647  0.00  0.00    +0.000 A 
ATOM     30  C   UNL     1      -0.777  12.669  20.192  0.00  0.00    +0.000 A 
ATOM     31  F   UNL     1      -1.792  12.084  20.846  0.00  0.00    +0.000 F 
ENDBRANCH  22  24
ENDBRANCH  18  19
ENDBRANCH   3  18
TORSDOF 5
ENDMDL
MODEL 3
REMARK VINA RESULT:      -7.8      0.894      1.518
REMARK  Name = 
REMARK  6 active torsions:
REMARK  status: ('A' for Active; 'I' for Inactive)
REMARK    1  A    between atoms: C_1  and  C_2
REMARK    2  A    between atoms: N_4  and  C_5
REMARK    3  A    between atoms: C_13  and  C_14
REMARK    4  A    between atoms: N_16  and  C_17
REMARK    5  A    between atoms: C_17  and  C_18
REMARK    6  A    between atoms: C_21  and  C_22
REMARK                            x       y       z     vdW  Elec       q    Type
REMARK                         _______ _______ _______ _____ _____    ______ ____
ROOT
ATOM      1  C   UNL     1       8.955  10.060  18.677  0.00  0.00    +0.000 C 
ATOM      2  O   UNL     1       8.875  10.494  17.531  0.00  0.00    +0.000 OA
ATOM      3  N   UNL     1       8.692   8.736  18.974  0.00  0.00    +0.000 N 
ATOM      4  H   UNL     1       8.689   8.384  19.920  0.00  0.00    +0.000 HD
ENDROOT
BRANCH   1  10
ATOM      5  C   UNL     1      11.817  11.481  19.243  0.00  0.00    +0.000 C 
ATOM      6  C   UNL     1      10.565  11.557  20.042  0.00  0.00    +0.000 A 
ATOM      7  N   UNL     1      10.536  12.302  21.155  0.00  0.00    +0.000 NA
ATOM      8  N   UNL     1       9.305  12.107  21.678  0.00  0.00    +0.000 N 
ATOM      9  C   UNL     1       8.540  11.290  20.873  0.00  0.00    +0.000 A 
ATOM     10  C   UNL     1       9.318  10.917  19.795  0.00  0.00    +0.000 A 
BRANCH   8  11
ATOM     11  C   UNL     1       8.936  12.691  22.923  0.00  0.00    +0.000 A 
ATOM     12  C   UNL     1       8.988  14.084  23.081  0.00  0.00    +0.000 A 
ATOM     13  C   UNL     1       8.652  14.666  24.308  0.00  0.00    +0.000 A 
ATOM     14  C   UNL     1       8.274  13.858  25.378  0.00  0.00    +0.000 A 
ATOM     15 CL   UNL     1       7.885  14.567  26.895  0.00  0.00    +0.000 Cl
ATOM     16  C   UNL     1       8.213  12.474  25.228  0.00  0.00    +0.000 A 
ATOM     17  C   UNL     1       8.538  11.889  24.002  0.00  0.00    +0.000 A 
ENDBRANCH   8  11
ENDBRANCH   1  10
BRANCH   3  18
ATOM     18  C   UNL     1       8.269   7.862  17.903  0.00  0.00    +0.000 C 
BRANCH  18  19
ATOM     19  C   UNL     1       7.354   6.760  18.319  0.00  0.00    +0.000 A 
ATOM     20  N   UNL     1       7.738   5.938  19.303  0.00  0.00    +0.000 NA
ATOM     21  O   UNL     1       6.671   5.070  19.442  0.00  0.00    +0.000 OA
ATOM     22  C   UNL     1       5.725   5.438  18.527  0.00  0.00    +0.000 A 
ATOM     23  N   UNL     1       6.102   6.476  17.794  0.00  0.00    +0.000 NA
BRANCH  22  24
ATOM     24  C   UNL     1       4.496   4.642  18.532  0.00  0.00    +0.000 A 
ATOM     25  C   UNL     1       4.415   3.436  17.817  0.00  0.00    +0.000 A 
ATOM     26  C   UNL     1       3.231   2.682  17.811  0.00  0.00    +0.000 A 
ATOM     27  C   UNL     1       2.116   3.123  18.523  0.00  0.00    +0.000 A 
ATOM     28 CL   UNL     1       0.663   2.202  18.508  0.00  0.00    +0.000 Cl
ATOM     29  C   UNL     1       2.171   4.306  19.243  0.00  0.00    +0.000 A 
ATOM     30  C   UNL     1       3.351   5.050  19.242  0.00  0.00    +0.000 A 
ATOM     31  F   UNL     1       3.349   6.191  19.949  0.00  0.00    +0.000 F 
ENDBRANCH  22  24
ENDBRANCH  18  19
ENDBRANCH   3  18
TORSDOF 5
ENDMDL
MODEL 4
REMARK VINA RESULT:      -7.8      8.102      9.353
REMARK  Name = 
REMARK  6 active torsions:
REMARK  status: ('A' for Active; 'I' for Inactive)
REMARK    1  A    between atoms: C_1  and  C_2
REMARK    2  A    between atoms: N_4  and  C_5
REMARK    3  A    between atoms: C_13  and  C_14
REMARK    4  A    between atoms: N_16  and  C_17
REMARK    5  A    between atoms: C_17  and  C_18
REMARK    6  A    between atoms: C_21  and  C_22
REMARK                            x       y       z     vdW  Elec       q    Type
REMARK                         _______ _______ _______ _____ _____    ______ ____
ROOT
ATOM      1  C   UNL     1       0.326  11.370  20.298  0.00  0.00    +0.000 C 
ATOM      2  O   UNL     1       1.192  12.232  20.185  0.00  0.00    +0.000 OA
ATOM      3  N   UNL     1       0.258  10.289  19.438  0.00  0.00    +0.000 N 
ATOM      4  H   UNL     1      -0.488   9.611  19.480  0.00  0.00    +0.000 HD
ENDROOT
BRANCH   1  10
ATOM      5  C   UNL     1       0.206   9.694  23.075  0.00  0.00    +0.000 C 
ATOM      6  C   UNL     1      -0.743  10.719  22.563  0.00  0.00    +0.000 A 
ATOM      7  N   UNL     1      -1.811  11.056  23.298  0.00  0.00    +0.000 NA
ATOM      8  N   UNL     1      -2.497  11.939  22.540  0.00  0.00    +0.000 N 
ATOM      9  C   UNL     1      -1.840  12.203  21.358  0.00  0.00    +0.000 A 
ATOM     10  C   UNL     1      -0.692  11.438  21.336  0.00  0.00    +0.000 A 
BRANCH   8  11
ATOM     11  C   UNL     1      -3.747  12.463  22.974  0.00  0.00    +0.000 A 
ATOM     12  C   UNL     1      -4.170  12.252  24.296  0.00  0.00    +0.000 A 
ATOM     13  C   UNL     1      -5.409  12.740  24.725  0.00  0.00    +0.000 A 
ATOM     14  C   UNL     1      -6.228  13.429  23.834  0.00  0.00    +0.000 A 
ATOM     15 CL   UNL     1      -7.763  14.009  24.350  0.00  0.00    +0.000 Cl
ATOM     16  C   UNL     1      -5.815  13.649  22.522  0.00  0.00    +0.000 A 
ATOM     17  C   UNL     1      -4.575  13.171  22.090  0.00  0.00    +0.000 A 
ENDBRANCH   8  11
ENDBRANCH   1  10
BRANCH   3  18
ATOM     18  C   UNL     1       1.213  10.212  18.355  0.00  0.00    +0.000 C 
BRANCH  18  19
ATOM     19  C   UNL     1       1.976   8.932  18.283  0.00  0.00    +0.000 A 
ATOM     20  N   UNL     1       2.823   8.741  17.265  0.00  0.00    +0.000 NA
ATOM     21  O   UNL     1       3.363   7.494  17.515  0.00  0.00    +0.000 OA
ATOM     22  C   UNL     1       2.796   7.029  18.668  0.00  0.00    +0.000 A 
ATOM     23  N   UNL     1       1.918   7.878  19.183  0.00  0.00    +0.000 NA
BRANCH  22  24
ATOM     24  C   UNL     1       3.260   5.714  19.116  0.00  0.00    +0.000 A 
ATOM     25  C   UNL     1       4.520   5.226  18.734  0.00  0.00    +0.000 A 
ATOM     26  C   UNL     1       4.957   3.959  19.153  0.00  0.00    +0.000 A 
ATOM     27  C   UNL     1       4.140   3.167  19.959  0.00  0.00    +0.000 A 
ATOM     28 CL   UNL     1       4.673   1.611  20.464  0.00  0.00    +0.000 Cl
ATOM     29  C   UNL     1       2.894   3.628  20.355  0.00  0.00    +0.000 A 
ATOM     30  C   UNL     1       2.467   4.887  19.934  0.00  0.00    +0.000 A 
ATOM     31  F   UNL     1       1.251   5.282  20.340  0.00  0.00    +0.000 F 
ENDBRANCH  22  24
ENDBRANCH  18  19
ENDBRANCH   3  18
TORSDOF 5
ENDMDL
MODEL 5
REMARK VINA RESULT:      -7.8      6.483      7.742
REMARK  Name = 
REMARK  6 active torsions:
REMARK  status: ('A' for Active; 'I' for Inactive)
REMARK    1  A    between atoms: C_1  and  C_2
REMARK    2  A    between atoms: N_4  and  C_5
REMARK    3  A    between atoms: C_13  and  C_14
REMARK    4  A    between atoms: N_16  and  C_17
REMARK    5  A    between atoms: C_17  and  C_18
REMARK    6  A    between atoms: C_21  and  C_22
REMARK                            x       y       z     vdW  Elec       q    Type
REMARK                         _______ _______ _______ _____ _____    ______ ____
ROOT
ATOM      1  C   UNL     1       0.325   8.692  21.243  0.00  0.00    +0.000 C 
ATOM      2  O   UNL     1      -0.709   8.118  21.569  0.00  0.00    +0.000 OA
ATOM      3  N   UNL     1       1.482   7.996  20.948  0.00  0.00    +0.000 N 
ATOM      4  H   UNL     1       2.356   8.459  20.744  0.00  0.00    +0.000 HD
ENDROOT
BRANCH   1  10
ATOM      5  C   UNL     1      -1.093  10.873  23.184  0.00  0.00    +0.000 C 
ATOM      6  C   UNL     1      -0.203  11.105  22.015  0.00  0.00    +0.000 A 
ATOM      7  N   UNL     1       0.108  12.359  21.660  0.00  0.00    +0.000 NA
ATOM      8  N   UNL     1       0.857  12.234  20.542  0.00  0.00    +0.000 N 
ATOM      9  C   UNL     1       1.066  10.910  20.223  0.00  0.00    +0.000 A 
ATOM     10  C   UNL     1       0.402  10.143  21.158  0.00  0.00    +0.000 A 
BRANCH   8  11
ATOM     11  C   UNL     1       1.311  13.381  19.832  0.00  0.00    +0.000 A 
ATOM     12  C   UNL     1       0.541  14.555  19.839  0.00  0.00    +0.000 A 
ATOM     13  C   UNL     1       0.965  15.678  19.122  0.00  0.00    +0.000 A 
ATOM     14  C   UNL     1       2.151  15.628  18.393  0.00  0.00    +0.000 A 
ATOM     15 CL   UNL     1       2.663  16.999  17.489  0.00  0.00    +0.000 Cl
ATOM     16  C   UNL     1       2.925  14.470  18.385  0.00  0.00    +0.000 A 
ATOM     17  C   UNL     1       2.510  13.348  19.106  0.00  0.00    +0.000 A 
ENDBRANCH   8  11
ENDBRANCH   1  10
BRANCH   3  18
ATOM     18  C   UNL     1       1.470   6.556  21.077  0.00  0.00    +0.000 C 
BRANCH  18  19
ATOM     19  C   UNL     1       2.178   5.823  19.988  0.00  0.00    +0.000 A 
ATOM     20  N   UNL     1       1.903   4.528  19.795  0.00  0.00    +0.000 NA
ATOM     21  O   UNL     1       2.701   4.178  18.722  0.00  0.00    +0.000 OA
ATOM     22  C   UNL     1       3.397   5.294  18.352  0.00  0.00    +0.000 A 
ATOM     23  N   UNL     1       3.120   6.343  19.112  0.00  0.00    +0.000 NA
BRANCH  22  24
ATOM     24  C   UNL     1       4.293   5.130  17.205  0.00  0.00    +0.000 A 
ATOM     25  C   UNL     1       4.760   6.244  16.489  0.00  0.00    +0.000 A 
ATOM     26  C   UNL     1       5.607   6.084  15.381  0.00  0.00    +0.000 A 
ATOM     27  C   UNL     1       5.998   4.807  14.978  0.00  0.00    +0.000 A 
ATOM     28 CL   UNL     1       7.029   4.611  13.614  0.00  0.00    +0.000 Cl
ATOM     29  C   UNL     1       5.557   3.691  15.671  0.00  0.00    +0.000 A 
ATOM     30  C   UNL     1       4.715   3.860  16.770  0.00  0.00    +0.000 A 
ATOM     31  F   UNL     1       4.311   2.746  17.401  0.00  0.00    +0.000 F 
ENDBRANCH  22  24
ENDBRANCH  18  19
ENDBRANCH   3  18
TORSDOF 5
ENDMDL
MODEL 6
REMARK VINA RESULT:      -7.8      6.520      7.780
REMARK  Name = 
REMARK  6 active torsions:
REMARK  status: ('A' for Active; 'I' for Inactive)
REMARK    1  A    between atoms: C_1  and  C_2
REMARK    2  A    between atoms: N_4  and  C_5
REMARK    3  A    between atoms: C_13  and  C_14
REMARK    4  A    between atoms: N_16  and  C_17
REMARK    5  A    between atoms: C_17  and  C_18
REMARK    6  A    between atoms: C_21  and  C_22
REMARK                            x       y       z     vdW  Elec       q    Type
REMARK                         _______ _______ _______ _____ _____    ______ ____
ROOT
ATOM      1  C   UNL     1       0.367   8.633  21.164  0.00  0.00    +0.000 C 
ATOM      2  O   UNL     1      -0.697   8.042  21.323  0.00  0.00    +0.000 OA
ATOM      3  N   UNL     1       1.566   7.956  21.046  0.00  0.00    +0.000 N 
ATOM      4  H   UNL     1       2.453   8.433  20.983  0.00  0.00    +0.000 HD
ENDROOT
BRANCH   1  10
ATOM      5  C   UNL     1      -1.013  10.772  23.177  0.00  0.00    +0.000 C 
ATOM      6  C   UNL     1      -0.154  11.029  21.990  0.00  0.00    +0.000 A 
ATOM      7  N   UNL     1       0.141  12.291  21.650  0.00  0.00    +0.000 NA
ATOM      8  N   UNL     1       0.862  12.189  20.512  0.00  0.00    +0.000 N 
ATOM      9  C   UNL     1       1.071  10.873  20.164  0.00  0.00    +0.000 A 
ATOM     10  C   UNL     1       0.434  10.085  21.103  0.00  0.00    +0.000 A 
BRANCH   8  11
ATOM     11  C   UNL     1       1.292  13.351  19.810  0.00  0.00    +0.000 A 
ATOM     12  C   UNL     1       0.465  14.484  19.767  0.00  0.00    +0.000 A 
ATOM     13  C   UNL     1       0.867  15.621  19.058  0.00  0.00    +0.000 A 
ATOM     14  C   UNL     1       2.087  15.624  18.386  0.00  0.00    +0.000 A 
ATOM     15 CL   UNL     1       2.573  17.010  17.492  0.00  0.00    +0.000 Cl
ATOM     16  C   UNL     1       2.917  14.506  18.428  0.00  0.00    +0.000 A 
ATOM     17  C   UNL     1       2.525  13.371  19.142  0.00  0.00    +0.000 A 
ENDBRANCH   8  11
ENDBRANCH   1  10
BRANCH   3  18
ATOM     18  C   UNL     1       1.556   6.515  21.162  0.00  0.00    +0.000 C 
BRANCH  18  19
ATOM     19  C   UNL     1       2.229   5.792  20.044  0.00  0.00    +0.000 A 
ATOM     20  N   UNL     1       1.907   4.513  19.814  0.00  0.00    +0.000 NA
ATOM     21  O   UNL     1       2.683   4.170  18.723  0.00  0.00    +0.000 OA
ATOM     22  C   UNL     1       3.414   5.272  18.380  0.00  0.00    +0.000 A 
ATOM     23  N   UNL     1       3.180   6.306  19.175  0.00  0.00    +0.000 NA
BRANCH  22  24
ATOM     24  C   UNL     1       4.294   5.112  17.220  0.00  0.00    +0.000 A 
ATOM     25  C   UNL     1       4.801   3.851  16.868  0.00  0.00    +0.000 A 
ATOM     26  C   UNL     1       5.655   3.702  15.764  0.00  0.00    +0.000 A 
ATOM     27  C   UNL     1       6.010   4.813  14.998  0.00  0.00    +0.000 A 
ATOM     28 CL   UNL     1       7.065   4.630  13.651  0.00  0.00    +0.000 Cl
ATOM     29  C   UNL     1       5.518   6.067  15.320  0.00  0.00    +0.000 A 
ATOM     30  C   UNL     1       4.671   6.207  16.419  0.00  0.00    +0.000 A 
ATOM     31  F   UNL     1       4.229   7.444  16.691  0.00  0.00    +0.000 F 
ENDBRANCH  22  24
ENDBRANCH  18  19
ENDBRANCH   3  18
TORSDOF 5
ENDMDL
MODEL 7
REMARK VINA RESULT:      -7.7      8.124      9.177
REMARK  Name = 
REMARK  6 active torsions:
REMARK  status: ('A' for Active; 'I' for Inactive)
REMARK    1  A    between atoms: C_1  and  C_2
REMARK    2  A    between atoms: N_4  and  C_5
REMARK    3  A    between atoms: C_13  and  C_14
REMARK    4  A    between atoms: N_16  and  C_17
REMARK    5  A    between atoms: C_17  and  C_18
REMARK    6  A    between atoms: C_21  and  C_22
REMARK                            x       y       z     vdW  Elec       q    Type
REMARK                         _______ _______ _______ _____ _____    ______ ____
ROOT
ATOM      1  C   UNL     1       0.385  10.005  22.299  0.00  0.00    +0.000 C 
ATOM      2  O   UNL     1       1.078   9.749  23.279  0.00  0.00    +0.000 OA
ATOM      3  N   UNL     1       0.326   9.159  21.208  0.00  0.00    +0.000 N 
ATOM      4  H   UNL     1      -0.187   9.391  20.370  0.00  0.00    +0.000 HD
ENDROOT
BRANCH   1  10
ATOM      5  C   UNL     1       1.195  12.816  20.892  0.00  0.00    +0.000 C 
ATOM      6  C   UNL     1      -0.067  12.452  21.590  0.00  0.00    +0.000 A 
ATOM      7  N   UNL     1      -1.054  13.354  21.682  0.00  0.00    +0.000 NA
ATOM      8  N   UNL     1      -2.013  12.753  22.421  0.00  0.00    +0.000 N 
ATOM      9  C   UNL     1      -1.661  11.462  22.746  0.00  0.00    +0.000 A 
ATOM     10  C   UNL     1      -0.408  11.222  22.220  0.00  0.00    +0.000 A 
BRANCH   8  11
ATOM     11  C   UNL     1      -3.197  13.451  22.792  0.00  0.00    +0.000 A 
ATOM     12  C   UNL     1      -3.270  14.842  22.619  0.00  0.00    +0.000 A 
ATOM     13  C   UNL     1      -4.419  15.540  23.005  0.00  0.00    +0.000 A 
ATOM     14  C   UNL     1      -5.491  14.852  23.570  0.00  0.00    +0.000 A 
ATOM     15 CL   UNL     1      -6.895  15.709  24.069  0.00  0.00    +0.000 Cl
ATOM     16  C   UNL     1      -5.430  13.470  23.739  0.00  0.00    +0.000 A 
ATOM     17  C   UNL     1      -4.288  12.767  23.348  0.00  0.00    +0.000 A 
ENDBRANCH   8  11
ENDBRANCH   1  10
BRANCH   3  18
ATOM     18  C   UNL     1       1.144   7.967  21.217  0.00  0.00    +0.000 C 
BRANCH  18  19
ATOM     19  C   UNL     1       1.852   7.684  19.935  0.00  0.00    +0.000 A 
ATOM     20  N   UNL     1       1.824   8.604  18.964  0.00  0.00    +0.000 NA
ATOM     21  O   UNL     1       2.577   8.038  17.952  0.00  0.00    +0.000 OA
ATOM     22  C   UNL     1       3.001   6.817  18.395  0.00  0.00    +0.000 A 
ATOM     23  N   UNL     1       2.569   6.540  19.617  0.00  0.00    +0.000 NA
BRANCH  22  24
ATOM     24  C   UNL     1       3.841   6.062  17.462  0.00  0.00    +0.000 A 
ATOM     25  C   UNL     1       4.686   6.723  16.557  0.00  0.00    +0.000 A 
ATOM     26  C   UNL     1       5.480   5.998  15.654  0.00  0.00    +0.000 A 
ATOM     27  C   UNL     1       5.438   4.604  15.647  0.00  0.00    +0.000 A 
ATOM     28 CL   UNL     1       6.404   3.717  14.533  0.00  0.00    +0.000 Cl
ATOM     29  C   UNL     1       4.617   3.927  16.534  0.00  0.00    +0.000 A 
ATOM     30  C   UNL     1       3.831   4.655  17.427  0.00  0.00    +0.000 A 
ATOM     31  F   UNL     1       3.048   3.951  18.260  0.00  0.00    +0.000 F 
ENDBRANCH  22  24
ENDBRANCH  18  19
ENDBRANCH   3  18
TORSDOF 5
ENDMDL
MODEL 8
REMARK VINA RESULT:      -7.6      6.969     10.776
REMARK  Name = 
REMARK  6 active torsions:
REMARK  status: ('A' for Active; 'I' for Inactive)
REMARK    1  A    between atoms: C_1  and  C_2
REMARK    2  A    between atoms: N_4  and  C_5
REMARK    3  A    between atoms: C_13  and  C_14
REMARK    4  A    between atoms: N_16  and  C_17
REMARK    5  A    between atoms: C_17  and  C_18
REMARK    6  A    between atoms: C_21  and  C_22
REMARK                            x       y       z     vdW  Elec       q    Type
REMARK                         _______ _______ _______ _____ _____    ______ ____
ROOT
ATOM      1  C   UNL     1       2.322   5.429  20.214  0.00  0.00    +0.000 C 
ATOM      2  O   UNL     1       2.229   4.726  21.215  0.00  0.00    +0.000 OA
ATOM      3  N   UNL     1       1.895   6.744  20.204  0.00  0.00    +0.000 N 
ATOM      4  H   UNL     1       1.905   7.310  19.369  0.00  0.00    +0.000 HD
ENDROOT
BRANCH   1  10
ATOM      5  C   UNL     1       1.377   2.811  18.543  0.00  0.00    +0.000 C 
ATOM      6  C   UNL     1       2.458   3.782  18.223  0.00  0.00    +0.000 A 
ATOM      7  N   UNL     1       3.176   3.624  17.102  0.00  0.00    +0.000 NA
ATOM      8  N   UNL     1       4.104   4.605  17.137  0.00  0.00    +0.000 N 
ATOM      9  C   UNL     1       3.941   5.413  18.242  0.00  0.00    +0.000 A 
ATOM     10  C   UNL     1       2.877   4.918  18.970  0.00  0.00    +0.000 A 
BRANCH   8  11
ATOM     11  C   UNL     1       5.106   4.703  16.130  0.00  0.00    +0.000 A 
ATOM     12  C   UNL     1       6.225   5.524  16.339  0.00  0.00    +0.000 A 
ATOM     13  C   UNL     1       7.202   5.648  15.345  0.00  0.00    +0.000 A 
ATOM     14  C   UNL     1       7.057   4.960  14.142  0.00  0.00    +0.000 A 
ATOM     15 CL   UNL     1       8.242   5.130  12.908  0.00  0.00    +0.000 Cl
ATOM     16  C   UNL     1       5.953   4.138  13.929  0.00  0.00    +0.000 A 
ATOM     17  C   UNL     1       4.979   4.004  14.921  0.00  0.00    +0.000 A 
ENDBRANCH   8  11
ENDBRANCH   1  10
BRANCH   3  18
ATOM     18  C   UNL     1       1.282   7.276  21.400  0.00  0.00    +0.000 C 
BRANCH  18  19
ATOM     19  C   UNL     1       1.083   8.754  21.397  0.00  0.00    +0.000 A 
ATOM     20  N   UNL     1       1.303   9.438  22.527  0.00  0.00    +0.000 NA
ATOM     21  O   UNL     1       1.050  10.750  22.171  0.00  0.00    +0.000 OA
ATOM     22  C   UNL     1       0.697  10.753  20.851  0.00  0.00    +0.000 A 
ATOM     23  N   UNL     1       0.689   9.538  20.323  0.00  0.00    +0.000 NA
BRANCH  22  24
ATOM     24  C   UNL     1       0.407  12.069  20.277  0.00  0.00    +0.000 A 
ATOM     25  C   UNL     1       0.466  13.229  21.067  0.00  0.00    +0.000 A 
ATOM     26  C   UNL     1       0.174  14.487  20.518  0.00  0.00    +0.000 A 
ATOM     27  C   UNL     1      -0.178  14.601  19.173  0.00  0.00    +0.000 A 
ATOM     28 CL   UNL     1      -0.544  16.143  18.504  0.00  0.00    +0.000 Cl
ATOM     29  C   UNL     1      -0.237  13.473  18.370  0.00  0.00    +0.000 A 
ATOM     30  C   UNL     1       0.054  12.226  18.924  0.00  0.00    +0.000 A 
ATOM     31  F   UNL     1      -0.025  11.165  18.105  0.00  0.00    +0.000 F 
ENDBRANCH  22  24
ENDBRANCH  18  19
ENDBRANCH   3  18
TORSDOF 5
ENDMDL
MODEL 9
REMARK VINA RESULT:      -7.6      8.851     11.467
REMARK  Name = 
REMARK  6 active torsions:
REMARK  status: ('A' for Active; 'I' for Inactive)
REMARK    1  A    between atoms: C_1  and  C_2
REMARK    2  A    between atoms: N_4  and  C_5
REMARK    3  A    between atoms: C_13  and  C_14
REMARK    4  A    between atoms: N_16  and  C_17
REMARK    5  A    between atoms: C_17  and  C_18
REMARK    6  A    between atoms: C_21  and  C_22
REMARK                            x       y       z     vdW  Elec       q    Type
REMARK                         _______ _______ _______ _____ _____    ______ ____
ROOT
ATOM      1  C   UNL     1       0.140  10.271  18.349  0.00  0.00    +0.000 C 
ATOM      2  O   UNL     1      -0.953  10.038  17.842  0.00  0.00    +0.000 OA
ATOM      3  N   UNL     1       0.539  11.558  18.660  0.00  0.00    +0.000 N 
ATOM      4  H   UNL     1       1.460  11.768  19.014  0.00  0.00    +0.000 HD
ENDROOT
BRANCH   1  10
ATOM      5  C   UNL     1       0.607   8.754  21.181  0.00  0.00    +0.000 C 
ATOM      6  C   UNL     1       1.288   8.528  19.878  0.00  0.00    +0.000 A 
ATOM      7  N   UNL     1       2.227   7.576  19.781  0.00  0.00    +0.000 NA
ATOM      8  N   UNL     1       2.693   7.669  18.516  0.00  0.00    +0.000 N 
ATOM      9  C   UNL     1       2.015   8.632  17.800  0.00  0.00    +0.000 A 
ATOM     10  C   UNL     1       1.089   9.209  18.644  0.00  0.00    +0.000 A 
BRANCH   8  11
ATOM     11  C   UNL     1       3.769   6.851  18.069  0.00  0.00    +0.000 A 
ATOM     12  C   UNL     1       4.275   5.846  18.908  0.00  0.00    +0.000 A 
ATOM     13  C   UNL     1       5.349   5.054  18.488  0.00  0.00    +0.000 A 
ATOM     14  C   UNL     1       5.923   5.271  17.238  0.00  0.00    +0.000 A 
ATOM     15 CL   UNL     1       7.261   4.318  16.729  0.00  0.00    +0.000 Cl
ATOM     16  C   UNL     1       5.424   6.263  16.396  0.00  0.00    +0.000 A 
ATOM     17  C   UNL     1       4.346   7.050  16.806  0.00  0.00    +0.000 A 
ENDBRANCH   8  11
ENDBRANCH   1  10
BRANCH   3  18
ATOM     18  C   UNL     1      -0.347  12.651  18.329  0.00  0.00    +0.000 C 
BRANCH  18  19
ATOM     19  C   UNL     1      -1.210  13.119  19.452  0.00  0.00    +0.000 A 
ATOM     20  N   UNL     1      -0.816  14.175  20.174  0.00  0.00    +0.000 NA
ATOM     21  O   UNL     1      -1.834  14.344  21.094  0.00  0.00    +0.000 OA
ATOM     22  C   UNL     1      -2.765  13.373  20.853  0.00  0.00    +0.000 A 
ATOM     23  N   UNL     1      -2.423  12.576  19.851  0.00  0.00    +0.000 NA
BRANCH  22  24
ATOM     24  C   UNL     1      -3.944  13.398  21.721  0.00  0.00    +0.000 A 
ATOM     25  C   UNL     1      -5.119  14.056  21.322  0.00  0.00    +0.000 A 
ATOM     26  C   UNL     1      -6.244  14.091  22.161  0.00  0.00    +0.000 A 
ATOM     27  C   UNL     1      -6.207  13.468  23.408  0.00  0.00    +0.000 A 
ATOM     28 CL   UNL     1      -7.583  13.520  24.440  0.00  0.00    +0.000 Cl
ATOM     29  C   UNL     1      -5.062  12.806  23.823  0.00  0.00    +0.000 A 
ATOM     30  C   UNL     1      -3.949  12.777  22.983  0.00  0.00    +0.000 A 
ATOM     31  F   UNL     1      -2.864  12.129  23.436  0.00  0.00    +0.000 F 
ENDBRANCH  22  24
ENDBRANCH  18  19
ENDBRANCH   3  18
TORSDOF 5
ENDMDL
