MODEL 1
REMARK VINA RESULT:      -7.8      0.000      0.000
REMARK  Name = 
REMARK  10 active torsions:
REMARK  status: ('A' for Active; 'I' for Inactive)
REMARK    1  A    between atoms: C_1  and  C_2
REMARK    2  A    between atoms: C_2  and  C_3
REMARK    3  A    between atoms: C_2  and  C_4
REMARK    4  A    between atoms: C_4  and  C_5
REMARK    5  A    between atoms: C_5  and  N_6
REMARK    6  A    between atoms: C_5  and  C_7
REMARK    7  A    between atoms: C_9  and  C_10
REMARK    8  A    between atoms: C_13  and  O_14
REMARK    9  A    between atoms: O_14  and  C_15
REMARK   10  A    between atoms: C_20  and  C_21
REMARK                            x       y       z     vdW  Elec       q    Type
REMARK                         _______ _______ _______ _____ _____    ______ ____
ROOT
ATOM      1  C   UNL     1       2.979   6.854  18.260  0.00  0.00    +0.000 A 
ATOM      2  C   UNL     1       2.783   8.068  17.591  0.00  0.00    +0.000 A 
ATOM      3  C   UNL     1       2.078   9.099  18.217  0.00  0.00    +0.000 A 
ATOM      4  C   UNL     1       1.587   8.875  19.495  0.00  0.00    +0.000 A 
ATOM      5  N   UNL     1       1.815   7.742  20.193  0.00  0.00    +0.000 NA
ATOM      6  C   UNL     1       2.487   6.755  19.555  0.00  0.00    +0.000 A 
ENDROOT
BRANCH   1   9
ATOM      7  C   UNL     1       4.962   4.639  16.420  0.00  0.00    +0.000 A 
ATOM      8  N   UNL     1       4.599   5.877  16.670  0.00  0.00    +0.000 NA
ATOM      9  C   UNL     1       3.639   5.716  17.646  0.00  0.00    +0.000 A 
ATOM     10  N   UNL     1       3.401   4.437  17.973  0.00  0.00    +0.000 NA
ATOM     11  O   UNL     1       4.279   3.720  17.162  0.00  0.00    +0.000 OA
BRANCH   7  12
ATOM     12  C   UNL     1       5.988   4.112  15.461  0.00  0.00    +0.000 C 
BRANCH  12  13
ATOM     13  N   UNL     1       7.330   4.596  15.821  0.00  0.00    +0.000 NA
ATOM     14  H   UNL     1       7.500   4.394  16.807  0.00  0.00    +0.000 HD
ATOM     15  H   UNL     1       7.372   5.607  15.721  0.00  0.00    +0.000 HD
ENDBRANCH  12  13
BRANCH  12  16
ATOM     16  C   UNL     1       5.610   4.507  14.016  0.00  0.00    +0.000 C 
BRANCH  16  18
ATOM     17  C   UNL     1       4.957   3.177  11.939  0.00  0.00    +0.000 C 
ATOM     18  C   UNL     1       6.080   3.536  12.912  0.00  0.00    +0.000 C 
ATOM     19  C   UNL     1       7.254   4.152  12.142  0.00  0.00    +0.000 C 
ENDBRANCH  16  18
ENDBRANCH  12  16
ENDBRANCH   7  12
ENDBRANCH   1   9
BRANCH   4  20
ATOM     20  O   UNL     1       0.794   9.873  20.053  0.00  0.00    +0.000 OA
BRANCH  20  21
ATOM     21  C   UNL     1      -0.152  10.457  19.234  0.00  0.00    +0.000 A 
ATOM     22  C   UNL     1      -1.182   9.695  18.655  0.00  0.00    +0.000 A 
ATOM     23  C   UNL     1      -2.149  10.296  17.852  0.00  0.00    +0.000 A 
ATOM     24  C   UNL     1      -2.075  11.655  17.585  0.00  0.00    +0.000 A 
ATOM     25  C   UNL     1      -1.024  12.409  18.109  0.00  0.00    +0.000 A 
ATOM     26  C   UNL     1      -0.041  11.820  18.931  0.00  0.00    +0.000 A 
BRANCH  26  27
ATOM     27  C   UNL     1       1.077  12.691  19.438  0.00  0.00    +0.000 C 
ATOM     28  F   UNL     1       2.331  12.349  19.035  0.00  0.00    +0.000 F 
ATOM     29  F   UNL     1       0.917  13.992  19.051  0.00  0.00    +0.000 F 
ATOM     30  F   UNL     1       1.127  12.730  20.802  0.00  0.00    +0.000 F 
ENDBRANCH  26  27
ENDBRANCH  20  21
ENDBRANCH   4  20
TORSDOF 8
ENDMDL
MODEL 2
REMARK VINA RESULT:      -7.8      3.583      8.875
REMARK  Name = 
REMARK  10 active torsions:
REMARK  status: ('A' for Active; 'I' for Inactive)
REMARK    1  A    between atoms: C_1  and  C_2
REMARK    2  A    between atoms: C_2  and  C_3
REMARK    3  A    between atoms: C_2  and  C_4
REMARK    4  A    between atoms: C_4  and  C_5
REMARK    5  A    between atoms: C_5  and  N_6
REMARK    6  A    between atoms: C_5  and  C_7
REMARK    7  A    between atoms: C_9  and  C_10
REMARK    8  A    between atoms: C_13  and  O_14
REMARK    9  A    between atoms: O_14  and  C_15
REMARK   10  A    between atoms: C_20  and  C_21
REMARK                            x       y       z     vdW  Elec       q    Type
REMARK                         _______ _______ _______ _____ _____    ______ ____
ROOT
ATOM      1  C   UNL     1       1.976   8.197  18.935  0.00  0.00    +0.000 A 
ATOM      2  C   UNL     1       2.833   8.050  17.838  0.00  0.00    +0.000 A 
ATOM      3  C   UNL     1       3.697   6.955  17.773  0.00  0.00    +0.000 A 
ATOM      4  C   UNL     1       3.676   6.042  18.818  0.00  0.00    +0.000 A 
ATOM      5  N   UNL     1       2.817   6.118  19.857  0.00  0.00    +0.000 NA
ATOM      6  C   UNL     1       2.003   7.199  19.901  0.00  0.00    +0.000 A 
ENDROOT
BRANCH   1   9
ATOM      7  C   UNL     1      -0.275  10.853  18.616  0.00  0.00    +0.000 A 
ATOM      8  N   UNL     1       0.406   9.885  18.045  0.00  0.00    +0.000 NA
ATOM      9  C   UNL     1       1.104   9.345  19.104  0.00  0.00    +0.000 A 
ATOM     10  N   UNL     1       0.883   9.962  20.275  0.00  0.00    +0.000 NA
ATOM     11  O   UNL     1      -0.033  10.962  19.954  0.00  0.00    +0.000 OA
BRANCH   7  12
ATOM     12  C   UNL     1      -1.250  11.825  18.019  0.00  0.00    +0.000 C 
BRANCH  12  13
ATOM     13  N   UNL     1      -0.941  13.198  18.448  0.00  0.00    +0.000 NA
ATOM     14  H   UNL     1      -1.775  13.607  18.870  0.00  0.00    +0.000 HD
ATOM     15  H   UNL     1      -0.715  13.770  17.638  0.00  0.00    +0.000 HD
ENDBRANCH  12  13
BRANCH  12  16
ATOM     16  C   UNL     1      -2.693  11.422  18.398  0.00  0.00    +0.000 C 
BRANCH  16  18
ATOM     17  C   UNL     1      -4.922  11.356  17.160  0.00  0.00    +0.000 C 
ATOM     18  C   UNL     1      -3.519  10.759  17.276  0.00  0.00    +0.000 C 
ATOM     19  C   UNL     1      -2.786  10.900  15.937  0.00  0.00    +0.000 C 
ENDBRANCH  16  18
ENDBRANCH  12  16
ENDBRANCH   7  12
ENDBRANCH   1   9
BRANCH   4  20
ATOM     20  O   UNL     1       4.621   5.021  18.786  0.00  0.00    +0.000 OA
BRANCH  20  21
ATOM     21  C   UNL     1       5.288   4.818  17.595  0.00  0.00    +0.000 A 
ATOM     22  C   UNL     1       4.639   4.249  16.485  0.00  0.00    +0.000 A 
ATOM     23  C   UNL     1       5.311   4.071  15.279  0.00  0.00    +0.000 A 
ATOM     24  C   UNL     1       6.649   4.421  15.177  0.00  0.00    +0.000 A 
ATOM     25  C   UNL     1       7.318   4.934  16.290  0.00  0.00    +0.000 A 
ATOM     26  C   UNL     1       6.652   5.129  17.518  0.00  0.00    +0.000 A 
BRANCH  26  27
ATOM     27  C   UNL     1       7.446   5.661  18.681  0.00  0.00    +0.000 C 
ATOM     28  F   UNL     1       6.798   5.707  19.875  0.00  0.00    +0.000 F 
ATOM     29  F   UNL     1       8.568   4.914  18.908  0.00  0.00    +0.000 F 
ATOM     30  F   UNL     1       7.902   6.928  18.460  0.00  0.00    +0.000 F 
ENDBRANCH  26  27
ENDBRANCH  20  21
ENDBRANCH   4  20
TORSDOF 8
ENDMDL
MODEL 3
REMARK VINA RESULT:      -7.8      1.743      2.348
REMARK  Name = 
REMARK  10 active torsions:
REMARK  status: ('A' for Active; 'I' for Inactive)
REMARK    1  A    between atoms: C_1  and  C_2
REMARK    2  A    between atoms: C_2  and  C_3
REMARK    3  A    between atoms: C_2  and  C_4
REMARK    4  A    between atoms: C_4  and  C_5
REMARK    5  A    between atoms: C_5  and  N_6
REMARK    6  A    between atoms: C_5  and  C_7
REMARK    7  A    between atoms: C_9  and  C_10
REMARK    8  A    between atoms: C_13  and  O_14
REMARK    9  A    between atoms: O_14  and  C_15
REMARK   10  A    between atoms: C_20  and  C_21
REMARK                            x       y       z     vdW  Elec       q    Type
REMARK                         _______ _______ _______ _____ _____    ______ ____
ROOT
ATOM      1  C   UNL     1       3.024   7.044  18.672  0.00  0.00    +0.000 A 
ATOM      2  C   UNL     1       2.652   8.071  17.797  0.00  0.00    +0.000 A 
ATOM      3  C   UNL     1       1.685   8.999  18.188  0.00  0.00    +0.000 A 
ATOM      4  C   UNL     1       1.118   8.863  19.447  0.00  0.00    +0.000 A 
ATOM      5  N   UNL     1       1.500   7.925  20.339  0.00  0.00    +0.000 NA
ATOM      6  C   UNL     1       2.428   7.030  19.926  0.00  0.00    +0.000 A 
ENDROOT
BRANCH   1   9
ATOM      7  C   UNL     1       5.329   4.906  17.140  0.00  0.00    +0.000 A 
ATOM      8  N   UNL     1       4.518   5.935  17.044  0.00  0.00    +0.000 NA
ATOM      9  C   UNL     1       3.969   6.003  18.307  0.00  0.00    +0.000 A 
ATOM     10  N   UNL     1       4.402   5.048  19.143  0.00  0.00    +0.000 NA
ATOM     11  O   UNL     1       5.306   4.319  18.372  0.00  0.00    +0.000 OA
BRANCH   7  12
ATOM     12  C   UNL     1       6.245   4.304  16.117  0.00  0.00    +0.000 C 
BRANCH  12  13
ATOM     13  N   UNL     1       7.649   4.605  16.437  0.00  0.00    +0.000 NA
ATOM     14  H   UNL     1       7.836   4.322  17.399  0.00  0.00    +0.000 HD
ATOM     15  H   UNL     1       7.805   5.609  16.394  0.00  0.00    +0.000 HD
ENDBRANCH  12  13
BRANCH  12  16
ATOM     16  C   UNL     1       5.862   4.807  14.706  0.00  0.00    +0.000 C 
BRANCH  16  18
ATOM     17  C   UNL     1       5.365   3.494  12.577  0.00  0.00    +0.000 C 
ATOM     18  C   UNL     1       6.449   4.004  13.527  0.00  0.00    +0.000 C 
ATOM     19  C   UNL     1       7.450   4.870  12.753  0.00  0.00    +0.000 C 
ENDBRANCH  16  18
ENDBRANCH  12  16
ENDBRANCH   7  12
ENDBRANCH   1   9
BRANCH   4  20
ATOM     20  O   UNL     1       0.078   9.730  19.770  0.00  0.00    +0.000 OA
BRANCH  20  21
ATOM     21  C   UNL     1       0.272  11.071  19.505  0.00  0.00    +0.000 A 
ATOM     22  C   UNL     1       1.211  11.828  20.228  0.00  0.00    +0.000 A 
ATOM     23  C   UNL     1       1.419  13.174  19.936  0.00  0.00    +0.000 A 
ATOM     24  C   UNL     1       0.665  13.790  18.949  0.00  0.00    +0.000 A 
ATOM     25  C   UNL     1      -0.310  13.062  18.265  0.00  0.00    +0.000 A 
ATOM     26  C   UNL     1      -0.529  11.696  18.540  0.00  0.00    +0.000 A 
BRANCH  26  27
ATOM     27  C   UNL     1      -1.616  10.984  17.781  0.00  0.00    +0.000 C 
ATOM     28  F   UNL     1      -1.253   9.831  17.158  0.00  0.00    +0.000 F 
ATOM     29  F   UNL     1      -2.658  10.640  18.596  0.00  0.00    +0.000 F 
ATOM     30  F   UNL     1      -2.169  11.768  16.810  0.00  0.00    +0.000 F 
ENDBRANCH  26  27
ENDBRANCH  20  21
ENDBRANCH   4  20
TORSDOF 8
ENDMDL
MODEL 4
REMARK VINA RESULT:      -7.7      2.542      3.260
REMARK  Name = 
REMARK  10 active torsions:
REMARK  status: ('A' for Active; 'I' for Inactive)
REMARK    1  A    between atoms: C_1  and  C_2
REMARK    2  A    between atoms: C_2  and  C_3
REMARK    3  A    between atoms: C_2  and  C_4
REMARK    4  A    between atoms: C_4  and  C_5
REMARK    5  A    between atoms: C_5  and  N_6
REMARK    6  A    between atoms: C_5  and  C_7
REMARK    7  A    between atoms: C_9  and  C_10
REMARK    8  A    between atoms: C_13  and  O_14
REMARK    9  A    between atoms: O_14  and  C_15
REMARK   10  A    between atoms: C_20  and  C_21
REMARK                            x       y       z     vdW  Elec       q    Type
REMARK                         _______ _______ _______ _____ _____    ______ ____
ROOT
ATOM      1  C   UNL     1       2.081   7.916  19.151  0.00  0.00    +0.000 A 
ATOM      2  C   UNL     1       2.209   8.674  17.981  0.00  0.00    +0.000 A 
ATOM      3  C   UNL     1       1.477   9.854  17.836  0.00  0.00    +0.000 A 
ATOM      4  C   UNL     1       0.635  10.234  18.871  0.00  0.00    +0.000 A 
ATOM      5  N   UNL     1       0.538   9.562  20.038  0.00  0.00    +0.000 NA
ATOM      6  C   UNL     1       1.247   8.413  20.143  0.00  0.00    +0.000 A 
ENDROOT
BRANCH   1   9
ATOM      7  C   UNL     1       4.185   5.123  19.101  0.00  0.00    +0.000 A 
ATOM      8  N   UNL     1       3.868   6.298  18.604  0.00  0.00    +0.000 NA
ATOM      9  C   UNL     1       2.755   6.644  19.341  0.00  0.00    +0.000 A 
ATOM     10  N   UNL     1       2.384   5.718  20.239  0.00  0.00    +0.000 NA
ATOM     11  O   UNL     1       3.333   4.708  20.083  0.00  0.00    +0.000 OA
BRANCH   7  12
ATOM     12  C   UNL     1       5.316   4.202  18.748  0.00  0.00    +0.000 C 
BRANCH  12  13
ATOM     13  N   UNL     1       5.171   2.914  19.442  0.00  0.00    +0.000 NA
ATOM     14  H   UNL     1       6.087   2.615  19.779  0.00  0.00    +0.000 HD
ATOM     15  H   UNL     1       4.856   2.202  18.787  0.00  0.00    +0.000 HD
ENDBRANCH  12  13
BRANCH  12  16
ATOM     16  C   UNL     1       6.666   4.878  19.078  0.00  0.00    +0.000 C 
BRANCH  16  18
ATOM     17  C   UNL     1       7.082   4.597  16.577  0.00  0.00    +0.000 C 
ATOM     18  C   UNL     1       7.517   5.302  17.862  0.00  0.00    +0.000 C 
ATOM     19  C   UNL     1       7.433   6.821  17.672  0.00  0.00    +0.000 C 
ENDBRANCH  16  18
ENDBRANCH  12  16
ENDBRANCH   7  12
ENDBRANCH   1   9
BRANCH   4  20
ATOM     20  O   UNL     1      -0.167  11.352  18.657  0.00  0.00    +0.000 OA
BRANCH  20  21
ATOM     21  C   UNL     1      -1.483  11.125  18.309  0.00  0.00    +0.000 A 
ATOM     22  C   UNL     1      -1.818  10.256  17.255  0.00  0.00    +0.000 A 
ATOM     23  C   UNL     1      -3.149  10.013  16.927  0.00  0.00    +0.000 A 
ATOM     24  C   UNL     1      -4.160  10.663  17.619  0.00  0.00    +0.000 A 
ATOM     25  C   UNL     1      -3.836  11.571  18.629  0.00  0.00    +0.000 A 
ATOM     26  C   UNL     1      -2.494  11.825  18.981  0.00  0.00    +0.000 A 
BRANCH  26  27
ATOM     27  C   UNL     1      -2.222  12.837  20.061  0.00  0.00    +0.000 C 
ATOM     28  F   UNL     1      -1.577  12.373  21.166  0.00  0.00    +0.000 F 
ATOM     29  F   UNL     1      -1.453  13.869  19.602  0.00  0.00    +0.000 F 
ATOM     30  F   UNL     1      -3.365  13.423  20.522  0.00  0.00    +0.000 F 
ENDBRANCH  26  27
ENDBRANCH  20  21
ENDBRANCH   4  20
TORSDOF 8
ENDMDL
MODEL 5
REMARK VINA RESULT:      -7.7      4.486      9.929
REMARK  Name = 
REMARK  10 active torsions:
REMARK  status: ('A' for Active; 'I' for Inactive)
REMARK    1  A    between atoms: C_1  and  C_2
REMARK    2  A    between atoms: C_2  and  C_3
REMARK    3  A    between atoms: C_2  and  C_4
REMARK    4  A    between atoms: C_4  and  C_5
REMARK    5  A    between atoms: C_5  and  N_6
REMARK    6  A    between atoms: C_5  and  C_7
REMARK    7  A    between atoms: C_9  and  C_10
REMARK    8  A    between atoms: C_13  and  O_14
REMARK    9  A    between atoms: O_14  and  C_15
REMARK   10  A    between atoms: C_20  and  C_21
REMARK                            x       y       z     vdW  Elec       q    Type
REMARK                         _______ _______ _______ _____ _____    ______ ____
ROOT
ATOM      1  C   UNL     1       1.289   8.724  20.618  0.00  0.00    +0.000 A 
ATOM      2  C   UNL     1       1.741   7.435  20.924  0.00  0.00    +0.000 A 
ATOM      3  C   UNL     1       2.294   6.636  19.921  0.00  0.00    +0.000 A 
ATOM      4  C   UNL     1       2.371   7.157  18.637  0.00  0.00    +0.000 A 
ATOM      5  N   UNL     1       2.005   8.418  18.321  0.00  0.00    +0.000 NA
ATOM      6  C   UNL     1       1.458   9.162  19.311  0.00  0.00    +0.000 A 
ENDROOT
BRANCH   1   9
ATOM      7  C   UNL     1      -0.527  11.153  22.357  0.00  0.00    +0.000 A 
ATOM      8  N   UNL     1      -0.083  10.693  21.209  0.00  0.00    +0.000 NA
ATOM      9  C   UNL     1       0.639   9.582  21.592  0.00  0.00    +0.000 A 
ATOM     10  N   UNL     1       0.661   9.373  22.917  0.00  0.00    +0.000 NA
ATOM     11  O   UNL     1      -0.114  10.414  23.428  0.00  0.00    +0.000 OA
BRANCH   7  12
ATOM     12  C   UNL     1      -1.396  12.341  22.646  0.00  0.00    +0.000 C 
BRANCH  12  13
ATOM     13  N   UNL     1      -0.617  13.407  23.296  0.00  0.00    +0.000 NA
ATOM     14  H   UNL     1       0.258  13.533  22.787  0.00  0.00    +0.000 HD
ATOM     15  H   UNL     1      -0.365  13.125  24.240  0.00  0.00    +0.000 HD
ENDBRANCH  12  13
BRANCH  12  16
ATOM     16  C   UNL     1      -2.604  11.912  23.510  0.00  0.00    +0.000 C 
BRANCH  16  18
ATOM     17  C   UNL     1      -4.515  12.824  22.087  0.00  0.00    +0.000 C 
ATOM     18  C   UNL     1      -3.831  12.847  23.454  0.00  0.00    +0.000 C 
ATOM     19  C   UNL     1      -4.836  12.451  24.542  0.00  0.00    +0.000 C 
ENDBRANCH  16  18
ENDBRANCH  12  16
ENDBRANCH   7  12
ENDBRANCH   1   9
BRANCH   4  20
ATOM     20  O   UNL     1       2.821   6.304  17.634  0.00  0.00    +0.000 OA
BRANCH  20  21
ATOM     21  C   UNL     1       2.773   4.949  17.891  0.00  0.00    +0.000 A 
ATOM     22  C   UNL     1       1.548   4.258  17.927  0.00  0.00    +0.000 A 
ATOM     23  C   UNL     1       1.510   2.886  18.160  0.00  0.00    +0.000 A 
ATOM     24  C   UNL     1       2.688   2.194  18.400  0.00  0.00    +0.000 A 
ATOM     25  C   UNL     1       3.903   2.881  18.423  0.00  0.00    +0.000 A 
ATOM     26  C   UNL     1       3.963   4.269  18.180  0.00  0.00    +0.000 A 
BRANCH  26  27
ATOM     27  C   UNL     1       5.306   4.945  18.248  0.00  0.00    +0.000 C 
ATOM     28  F   UNL     1       5.596   5.801  17.232  0.00  0.00    +0.000 F 
ATOM     29  F   UNL     1       5.442   5.682  19.390  0.00  0.00    +0.000 F 
ATOM     30  F   UNL     1       6.336   4.049  18.279  0.00  0.00    +0.000 F 
ENDBRANCH  26  27
ENDBRANCH  20  21
ENDBRANCH   4  20
TORSDOF 8
ENDMDL
MODEL 6
REMARK VINA RESULT:      -7.7      0.654      1.221
REMARK  Name = 
REMARK  10 active torsions:
REMARK  status: ('A' for Active; 'I' for Inactive)
REMARK    1  A    between atoms: C_1  and  C_2
REMARK    2  A    between atoms: C_2  and  C_3
REMARK    3  A    between atoms: C_2  and  C_4
REMARK    4  A    between atoms: C_4  and  C_5
REMARK    5  A    between atoms: C_5  and  N_6
REMARK    6  A    between atoms: C_5  and  C_7
REMARK    7  A    between atoms: C_9  and  C_10
REMARK    8  A    between atoms: C_13  and  O_14
REMARK    9  A    between atoms: O_14  and  C_15
REMARK   10  A    between atoms: C_20  and  C_21
REMARK                            x       y       z     vdW  Elec       q    Type
REMARK                         _______ _______ _______ _____ _____    ______ ____
ROOT
ATOM      1  C   UNL     1       3.037   6.680  18.387  0.00  0.00    +0.000 A 
ATOM      2  C   UNL     1       2.437   6.612  19.650  0.00  0.00    +0.000 A 
ATOM      3  C   UNL     1       1.765   7.724  20.160  0.00  0.00    +0.000 A 
ATOM      4  C   UNL     1       1.720   8.875  19.385  0.00  0.00    +0.000 A 
ATOM      5  N   UNL     1       2.231   8.953  18.137  0.00  0.00    +0.000 NA
ATOM      6  C   UNL     1       2.890   7.864  17.677  0.00  0.00    +0.000 A 
ENDROOT
BRANCH   1   9
ATOM      7  C   UNL     1       5.132   4.573  16.543  0.00  0.00    +0.000 A 
ATOM      8  N   UNL     1       4.574   5.754  16.687  0.00  0.00    +0.000 NA
ATOM      9  C   UNL     1       3.812   5.589  17.825  0.00  0.00    +0.000 A 
ATOM     10  N   UNL     1       3.876   4.357  18.351  0.00  0.00    +0.000 NA
ATOM     11  O   UNL     1       4.753   3.681  17.504  0.00  0.00    +0.000 OA
BRANCH   7  12
ATOM     12  C   UNL     1       6.095   4.084  15.502  0.00  0.00    +0.000 C 
BRANCH  12  13
ATOM     13  N   UNL     1       7.446   4.603  15.762  0.00  0.00    +0.000 NA
ATOM     14  H   UNL     1       8.050   4.359  14.977  0.00  0.00    +0.000 HD
ATOM     15  H   UNL     1       7.840   4.149  16.583  0.00  0.00    +0.000 HD
ENDBRANCH  12  13
BRANCH  12  16
ATOM     16  C   UNL     1       5.593   4.479  14.095  0.00  0.00    +0.000 C 
BRANCH  16  18
ATOM     17  C   UNL     1       4.936   3.230  11.970  0.00  0.00    +0.000 C 
ATOM     18  C   UNL     1       6.068   3.575  12.938  0.00  0.00    +0.000 C 
ATOM     19  C   UNL     1       7.208   4.260  12.175  0.00  0.00    +0.000 C 
ENDBRANCH  16  18
ENDBRANCH  12  16
ENDBRANCH   7  12
ENDBRANCH   1   9
BRANCH   4  20
ATOM     20  O   UNL     1       1.143  10.003  19.959  0.00  0.00    +0.000 OA
BRANCH  20  21
ATOM     21  C   UNL     1       0.125  10.616  19.257  0.00  0.00    +0.000 A 
ATOM     22  C   UNL     1      -1.052   9.922  18.927  0.00  0.00    +0.000 A 
ATOM     23  C   UNL     1      -2.086  10.557  18.242  0.00  0.00    +0.000 A 
ATOM     24  C   UNL     1      -1.940  11.877  17.842  0.00  0.00    +0.000 A 
ATOM     25  C   UNL     1      -0.752  12.557  18.115  0.00  0.00    +0.000 A 
ATOM     26  C   UNL     1       0.303  11.934  18.815  0.00  0.00    +0.000 A 
BRANCH  26  27
ATOM     27  C   UNL     1       1.564  12.722  19.049  0.00  0.00    +0.000 C 
ATOM     28  F   UNL     1       1.526  14.032  18.684  0.00  0.00    +0.000 F 
ATOM     29  F   UNL     1       1.918  12.726  20.368  0.00  0.00    +0.000 F 
ATOM     30  F   UNL     1       2.636  12.189  18.394  0.00  0.00    +0.000 F 
ENDBRANCH  26  27
ENDBRANCH  20  21
ENDBRANCH   4  20
TORSDOF 8
ENDMDL
MODEL 7
REMARK VINA RESULT:      -7.7      4.254      8.894
REMARK  Name = 
REMARK  10 active torsions:
REMARK  status: ('A' for Active; 'I' for Inactive)
REMARK    1  A    between atoms: C_1  and  C_2
REMARK    2  A    between atoms: C_2  and  C_3
REMARK    3  A    between atoms: C_2  and  C_4
REMARK    4  A    between atoms: C_4  and  C_5
REMARK    5  A    between atoms: C_5  and  N_6
REMARK    6  A    between atoms: C_5  and  C_7
REMARK    7  A    between atoms: C_9  and  C_10
REMARK    8  A    between atoms: C_13  and  O_14
REMARK    9  A    between atoms: O_14  and  C_15
REMARK   10  A    between atoms: C_20  and  C_21
REMARK                            x       y       z     vdW  Elec       q    Type
REMARK                         _______ _______ _______ _____ _____    ______ ____
ROOT
ATOM      1  C   UNL     1       1.111   9.607  19.094  0.00  0.00    +0.000 A 
ATOM      2  C   UNL     1       1.697   8.969  17.994  0.00  0.00    +0.000 A 
ATOM      3  C   UNL     1       2.339   7.740  18.165  0.00  0.00    +0.000 A 
ATOM      4  C   UNL     1       2.376   7.193  19.440  0.00  0.00    +0.000 A 
ATOM      5  N   UNL     1       1.765   7.749  20.508  0.00  0.00    +0.000 NA
ATOM      6  C   UNL     1       1.165   8.947  20.314  0.00  0.00    +0.000 A 
ENDROOT
BRANCH   1   9
ATOM      7  C   UNL     1       0.206  12.979  19.286  0.00  0.00    +0.000 A 
ATOM      8  N   UNL     1       1.022  12.014  19.648  0.00  0.00    +0.000 NA
ATOM      9  C   UNL     1       0.490  10.916  19.005  0.00  0.00    +0.000 A 
ATOM     10  N   UNL     1      -0.616  11.181  18.294  0.00  0.00    +0.000 NA
ATOM     11  O   UNL     1      -0.806  12.550  18.477  0.00  0.00    +0.000 OA
BRANCH   7  12
ATOM     12  C   UNL     1       0.231  14.439  19.629  0.00  0.00    +0.000 C 
BRANCH  12  13
ATOM     13  N   UNL     1      -0.573  15.211  18.669  0.00  0.00    +0.000 NA
ATOM     14  H   UNL     1       0.018  15.476  17.880  0.00  0.00    +0.000 HD
ATOM     15  H   UNL     1      -0.888  16.077  19.099  0.00  0.00    +0.000 HD
ENDBRANCH  12  13
BRANCH  12  16
ATOM     16  C   UNL     1       1.692  14.942  19.681  0.00  0.00    +0.000 C 
BRANCH  16  18
ATOM     17  C   UNL     1       2.804  16.507  18.002  0.00  0.00    +0.000 C 
ATOM     18  C   UNL     1       2.406  15.065  18.319  0.00  0.00    +0.000 C 
ATOM     19  C   UNL     1       3.651  14.169  18.301  0.00  0.00    +0.000 C 
ENDBRANCH  16  18
ENDBRANCH  12  16
ENDBRANCH   7  12
ENDBRANCH   1   9
BRANCH   4  20
ATOM     20  O   UNL     1       3.116   6.026  19.606  0.00  0.00    +0.000 OA
BRANCH  20  21
ATOM     21  C   UNL     1       2.480   4.832  19.331  0.00  0.00    +0.000 A 
ATOM     22  C   UNL     1       1.381   4.400  20.094  0.00  0.00    +0.000 A 
ATOM     23  C   UNL     1       0.728   3.207  19.793  0.00  0.00    +0.000 A 
ATOM     24  C   UNL     1       1.189   2.412  18.754  0.00  0.00    +0.000 A 
ATOM     25  C   UNL     1       2.314   2.805  18.027  0.00  0.00    +0.000 A 
ATOM     26  C   UNL     1       2.984   4.013  18.311  0.00  0.00    +0.000 A 
BRANCH  26  27
ATOM     27  C   UNL     1       4.206   4.357  17.503  0.00  0.00    +0.000 C 
ATOM     28  F   UNL     1       4.622   3.411  16.619  0.00  0.00    +0.000 F 
ATOM     29  F   UNL     1       4.015   5.487  16.758  0.00  0.00    +0.000 F 
ATOM     30  F   UNL     1       5.288   4.628  18.289  0.00  0.00    +0.000 F 
ENDBRANCH  26  27
ENDBRANCH  20  21
ENDBRANCH   4  20
TORSDOF 8
ENDMDL
MODEL 8
REMARK VINA RESULT:      -7.7      4.258      9.920
REMARK  Name = 
REMARK  10 active torsions:
REMARK  status: ('A' for Active; 'I' for Inactive)
REMARK    1  A    between atoms: C_1  and  C_2
REMARK    2  A    between atoms: C_2  and  C_3
REMARK    3  A    between atoms: C_2  and  C_4
REMARK    4  A    between atoms: C_4  and  C_5
REMARK    5  A    between atoms: C_5  and  N_6
REMARK    6  A    between atoms: C_5  and  C_7
REMARK    7  A    between atoms: C_9  and  C_10
REMARK    8  A    between atoms: C_13  and  O_14
REMARK    9  A    between atoms: O_14  and  C_15
REMARK   10  A    between atoms: C_20  and  C_21
REMARK                            x       y       z     vdW  Elec       q    Type
REMARK                         _______ _______ _______ _____ _____    ______ ____
ROOT
ATOM      1  C   UNL     1       1.089   9.086  20.419  0.00  0.00    +0.000 A 
ATOM      2  C   UNL     1       1.177   9.491  19.081  0.00  0.00    +0.000 A 
ATOM      3  C   UNL     1       1.855   8.693  18.158  0.00  0.00    +0.000 A 
ATOM      4  C   UNL     1       2.429   7.513  18.609  0.00  0.00    +0.000 A 
ATOM      5  N   UNL     1       2.307   7.061  19.876  0.00  0.00    +0.000 NA
ATOM      6  C   UNL     1       1.657   7.864  20.751  0.00  0.00    +0.000 A 
ENDROOT
BRANCH   1   9
ATOM      7  C   UNL     1      -0.701  11.419  22.310  0.00  0.00    +0.000 A 
ATOM      8  N   UNL     1      -0.293  11.008  21.131  0.00  0.00    +0.000 NA
ATOM      9  C   UNL     1       0.462   9.898  21.446  0.00  0.00    +0.000 A 
ATOM     10  N   UNL     1       0.538   9.644  22.761  0.00  0.00    +0.000 NA
ATOM     11  O   UNL     1      -0.235  10.651  23.337  0.00  0.00    +0.000 OA
BRANCH   7  12
ATOM     12  C   UNL     1      -1.579  12.581  22.673  0.00  0.00    +0.000 C 
BRANCH  12  13
ATOM     13  N   UNL     1      -0.839  13.555  23.489  0.00  0.00    +0.000 NA
ATOM     14  H   UNL     1      -0.275  13.051  24.174  0.00  0.00    +0.000 HD
ATOM     15  H   UNL     1      -1.491  14.130  24.017  0.00  0.00    +0.000 HD
ENDBRANCH  12  13
BRANCH  12  16
ATOM     16  C   UNL     1      -2.846  12.075  23.400  0.00  0.00    +0.000 C 
BRANCH  16  18
ATOM     17  C   UNL     1      -4.475  13.968  23.919  0.00  0.00    +0.000 C 
ATOM     18  C   UNL     1      -4.165  12.777  23.012  0.00  0.00    +0.000 C 
ATOM     19  C   UNL     1      -4.098  13.242  21.553  0.00  0.00    +0.000 C 
ENDBRANCH  16  18
ENDBRANCH  12  16
ENDBRANCH   7  12
ENDBRANCH   1   9
BRANCH   4  20
ATOM     20  O   UNL     1       3.194   6.791  17.697  0.00  0.00    +0.000 OA
BRANCH  20  21
ATOM     21  C   UNL     1       3.069   5.416  17.720  0.00  0.00    +0.000 A 
ATOM     22  C   UNL     1       1.814   4.802  17.878  0.00  0.00    +0.000 A 
ATOM     23  C   UNL     1       1.694   3.414  17.872  0.00  0.00    +0.000 A 
ATOM     24  C   UNL     1       2.827   2.624  17.749  0.00  0.00    +0.000 A 
ATOM     25  C   UNL     1       4.084   3.225  17.649  0.00  0.00    +0.000 A 
ATOM     26  C   UNL     1       4.225   4.628  17.645  0.00  0.00    +0.000 A 
BRANCH  26  27
ATOM     27  C   UNL     1       5.614   5.202  17.560  0.00  0.00    +0.000 C 
ATOM     28  F   UNL     1       6.009   5.968  18.613  0.00  0.00    +0.000 F 
ATOM     29  F   UNL     1       6.559   4.221  17.454  0.00  0.00    +0.000 F 
ATOM     30  F   UNL     1       5.785   5.982  16.453  0.00  0.00    +0.000 F 
ENDBRANCH  26  27
ENDBRANCH  20  21
ENDBRANCH   4  20
TORSDOF 8
ENDMDL
MODEL 9
REMARK VINA RESULT:      -7.6      3.576      8.831
REMARK  Name = 
REMARK  10 active torsions:
REMARK  status: ('A' for Active; 'I' for Inactive)
REMARK    1  A    between atoms: C_1  and  C_2
REMARK    2  A    between atoms: C_2  and  C_3
REMARK    3  A    between atoms: C_2  and  C_4
REMARK    4  A    between atoms: C_4  and  C_5
REMARK    5  A    between atoms: C_5  and  N_6
REMARK    6  A    between atoms: C_5  and  C_7
REMARK    7  A    between atoms: C_9  and  C_10
REMARK    8  A    between atoms: C_13  and  O_14
REMARK    9  A    between atoms: O_14  and  C_15
REMARK   10  A    between atoms: C_20  and  C_21
REMARK                            x       y       z     vdW  Elec       q    Type
REMARK                         _______ _______ _______ _____ _____    ______ ____
ROOT
ATOM      1  C   UNL     1       2.052   8.167  18.859  0.00  0.00    +0.000 A 
ATOM      2  C   UNL     1       2.931   8.017  17.779  0.00  0.00    +0.000 A 
ATOM      3  C   UNL     1       3.795   6.921  17.735  0.00  0.00    +0.000 A 
ATOM      4  C   UNL     1       3.753   6.011  18.782  0.00  0.00    +0.000 A 
ATOM      5  N   UNL     1       2.873   6.090  19.803  0.00  0.00    +0.000 NA
ATOM      6  C   UNL     1       2.059   7.171  19.827  0.00  0.00    +0.000 A 
ENDROOT
BRANCH   1   9
ATOM      7  C   UNL     1      -0.342  10.698  18.564  0.00  0.00    +0.000 A 
ATOM      8  N   UNL     1       0.257   9.654  18.037  0.00  0.00    +0.000 NA
ATOM      9  C   UNL     1       1.177   9.316  19.007  0.00  0.00    +0.000 A 
ATOM     10  N   UNL     1       1.165  10.124  20.077  0.00  0.00    +0.000 NA
ATOM     11  O   UNL     1       0.156  11.042  19.787  0.00  0.00    +0.000 OA
BRANCH   7  12
ATOM     12  C   UNL     1      -1.461  11.539  18.025  0.00  0.00    +0.000 C 
BRANCH  12  13
ATOM     13  N   UNL     1      -2.015  12.403  19.079  0.00  0.00    +0.000 NA
ATOM     14  H   UNL     1      -1.656  13.350  18.951  0.00  0.00    +0.000 HD
ATOM     15  H   UNL     1      -1.688  12.089  19.990  0.00  0.00    +0.000 HD
ENDBRANCH  12  13
BRANCH  12  16
ATOM     16  C   UNL     1      -2.548  10.632  17.403  0.00  0.00    +0.000 C 
BRANCH  16  18
ATOM     17  C   UNL     1      -3.406  10.298  15.024  0.00  0.00    +0.000 C 
ATOM     18  C   UNL     1      -3.335  11.243  16.225  0.00  0.00    +0.000 C 
ATOM     19  C   UNL     1      -4.753  11.608  16.679  0.00  0.00    +0.000 C 
ENDBRANCH  16  18
ENDBRANCH  12  16
ENDBRANCH   7  12
ENDBRANCH   1   9
BRANCH   4  20
ATOM     20  O   UNL     1       4.698   4.990  18.772  0.00  0.00    +0.000 OA
BRANCH  20  21
ATOM     21  C   UNL     1       5.366   4.761  17.585  0.00  0.00    +0.000 A 
ATOM     22  C   UNL     1       4.720   4.157  16.492  0.00  0.00    +0.000 A 
ATOM     23  C   UNL     1       5.393   3.954  15.290  0.00  0.00    +0.000 A 
ATOM     24  C   UNL     1       6.728   4.314  15.177  0.00  0.00    +0.000 A 
ATOM     25  C   UNL     1       7.394   4.862  16.275  0.00  0.00    +0.000 A 
ATOM     26  C   UNL     1       6.727   5.083  17.498  0.00  0.00    +0.000 A 
BRANCH  26  27
ATOM     27  C   UNL     1       7.517   5.653  18.646  0.00  0.00    +0.000 C 
ATOM     28  F   UNL     1       8.621   4.951  19.018  0.00  0.00    +0.000 F 
ATOM     29  F   UNL     1       7.968   6.913  18.370  0.00  0.00    +0.000 F 
ATOM     30  F   UNL     1       6.766   5.783  19.778  0.00  0.00    +0.000 F 
ENDBRANCH  26  27
ENDBRANCH  20  21
ENDBRANCH   4  20
TORSDOF 8
ENDMDL
