MODEL 1
REMARK VINA RESULT:      -8.6      0.000      0.000
REMARK  Name = 
REMARK  4 active torsions:
REMARK  status: ('A' for Active; 'I' for Inactive)
REMARK    1  A    between atoms: C_1  and  C_2
REMARK    2  A    between atoms: N_10  and  C_11
REMARK    3  A    between atoms: C_16  and  C_18
REMARK    4  A    between atoms: C_20  and  N_21
REMARK                            x       y       z     vdW  Elec       q    Type
REMARK                         _______ _______ _______ _____ _____    ______ ____
ROOT
ATOM      1  C   UNL     1       1.427   2.782  21.337  0.00  0.00    +0.000 C 
ATOM      2  C   UNL     1       1.830   4.009  20.574  0.00  0.00    +0.000 A 
ATOM      3  C   UNL     1       1.456   5.286  21.027  0.00  0.00    +0.000 A 
ATOM      4  C   UNL     1       1.797   6.434  20.306  0.00  0.00    +0.000 A 
ATOM      5  C   UNL     1       2.460   6.298  19.101  0.00  0.00    +0.000 A 
ATOM      6  C   UNL     1       2.898   5.029  18.691  0.00  0.00    +0.000 A 
ATOM      7  C   UNL     1       2.581   3.882  19.400  0.00  0.00    +0.000 A 
ATOM      8  C   UNL     1       3.609   5.155  17.383  0.00  0.00    +0.000 C 
ATOM      9  C   UNL     1       4.822   4.297  17.070  0.00  0.00    +0.000 C 
ATOM     10  N   UNL     1       5.344   4.692  15.749  0.00  0.00    +0.000 NA
ATOM     11  C   UNL     1       6.480   3.850  15.376  0.00  0.00    +0.000 C 
ATOM     12  C   UNL     1       5.688   6.126  15.682  0.00  0.00    +0.000 C 
ATOM     13  C   UNL     1       4.516   7.060  16.081  0.00  0.00    +0.000 C 
ATOM     14  C   UNL     1       4.024   6.636  17.456  0.00  0.00    +0.000 C 
ATOM     15  N   UNL     1       2.876   7.279  18.150  0.00  0.00    +0.000 N 
ATOM     16  C   UNL     1       2.524   8.619  18.053  0.00  0.00    +0.000 C 
ATOM     17  O   UNL     1       3.201   9.439  17.428  0.00  0.00    +0.000 OA
ENDROOT
BRANCH  16  18
ATOM     18  C   UNL     1       1.276   9.118  18.733  0.00  0.00    +0.000 A 
ATOM     19  C   UNL     1       0.141   9.331  17.956  0.00  0.00    +0.000 A 
ATOM     20  C   UNL     1      -0.897  10.109  18.488  0.00  0.00    +0.000 A 
ATOM     21  C   UNL     1      -0.781  10.578  19.801  0.00  0.00    +0.000 A 
ATOM     22  C   UNL     1       0.335  10.212  20.536  0.00  0.00    +0.000 A 
ATOM     23  N   UNL     1       1.356   9.482  20.039  0.00  0.00    +0.000 NA
BRANCH  20  24
ATOM     24  N   UNL     1      -2.015  10.481  17.679  0.00  0.00    +0.000 N 
ATOM     25  C   UNL     1      -2.325   9.991  16.422  0.00  0.00    +0.000 A 
ATOM     26  C   UNL     1      -3.516  10.541  15.998  0.00  0.00    +0.000 A 
ATOM     27  C   UNL     1      -3.950  11.421  17.006  0.00  0.00    +0.000 A 
ATOM     28  C   UNL     1      -3.015  11.374  18.017  0.00  0.00    +0.000 A 
ENDBRANCH  20  24
ENDBRANCH  16  18
TORSDOF 2
ENDMDL
MODEL 2
REMARK VINA RESULT:      -8.0      2.413      7.333
REMARK  Name = 
REMARK  4 active torsions:
REMARK  status: ('A' for Active; 'I' for Inactive)
REMARK    1  A    between atoms: C_1  and  C_2
REMARK    2  A    between atoms: N_10  and  C_11
REMARK    3  A    between atoms: C_16  and  C_18
REMARK    4  A    between atoms: C_20  and  N_21
REMARK                            x       y       z     vdW  Elec       q    Type
REMARK                         _______ _______ _______ _____ _____    ______ ____
ROOT
ATOM      1  C   UNL     1       2.449   2.287  21.677  0.00  0.00    +0.000 C 
ATOM      2  C   UNL     1       2.631   3.446  20.744  0.00  0.00    +0.000 A 
ATOM      3  C   UNL     1       3.296   3.277  19.518  0.00  0.00    +0.000 A 
ATOM      4  C   UNL     1       3.502   4.357  18.655  0.00  0.00    +0.000 A 
ATOM      5  C   UNL     1       3.094   5.618  19.049  0.00  0.00    +0.000 A 
ATOM      6  C   UNL     1       2.363   5.770  20.237  0.00  0.00    +0.000 A 
ATOM      7  C   UNL     1       2.139   4.708  21.097  0.00  0.00    +0.000 A 
ATOM      8  C   UNL     1       2.017   7.212  20.419  0.00  0.00    +0.000 C 
ATOM      9  C   UNL     1       0.684   7.622  21.017  0.00  0.00    +0.000 C 
ATOM     10  N   UNL     1       0.602   9.095  21.006  0.00  0.00    +0.000 NA
ATOM     11  C   UNL     1      -0.643   9.543  21.629  0.00  0.00    +0.000 C 
ATOM     12  C   UNL     1       0.763   9.660  19.651  0.00  0.00    +0.000 C 
ATOM     13  C   UNL     1       2.065   9.203  18.944  0.00  0.00    +0.000 C 
ATOM     14  C   UNL     1       2.098   7.683  18.956  0.00  0.00    +0.000 C 
ATOM     15  N   UNL     1       3.224   6.884  18.401  0.00  0.00    +0.000 N 
ATOM     16  C   UNL     1       4.003   7.240  17.308  0.00  0.00    +0.000 C 
ATOM     17  O   UNL     1       3.771   8.243  16.627  0.00  0.00    +0.000 OA
ENDROOT
BRANCH  16  18
ATOM     18  C   UNL     1       5.177   6.384  16.911  0.00  0.00    +0.000 A 
ATOM     19  C   UNL     1       5.270   5.963  15.587  0.00  0.00    +0.000 A 
ATOM     20  C   UNL     1       6.137   4.905  15.281  0.00  0.00    +0.000 A 
ATOM     21  C   UNL     1       6.924   4.364  16.303  0.00  0.00    +0.000 A 
ATOM     22  C   UNL     1       6.848   4.931  17.565  0.00  0.00    +0.000 A 
ATOM     23  N   UNL     1       6.006   5.935  17.888  0.00  0.00    +0.000 NA
BRANCH  20  24
ATOM     24  N   UNL     1       6.158   4.338  13.970  0.00  0.00    +0.000 N 
ATOM     25  C   UNL     1       7.213   4.366  13.074  0.00  0.00    +0.000 A 
ATOM     26  C   UNL     1       6.873   3.653  11.944  0.00  0.00    +0.000 A 
ATOM     27  C   UNL     1       5.559   3.186  12.127  0.00  0.00    +0.000 A 
ATOM     28  C   UNL     1       5.140   3.623  13.365  0.00  0.00    +0.000 A 
ENDBRANCH  20  24
ENDBRANCH  16  18
TORSDOF 2
ENDMDL
MODEL 3
REMARK VINA RESULT:      -7.6      2.863      8.923
REMARK  Name = 
REMARK  4 active torsions:
REMARK  status: ('A' for Active; 'I' for Inactive)
REMARK    1  A    between atoms: C_1  and  C_2
REMARK    2  A    between atoms: N_10  and  C_11
REMARK    3  A    between atoms: C_16  and  C_18
REMARK    4  A    between atoms: C_20  and  N_21
REMARK                            x       y       z     vdW  Elec       q    Type
REMARK                         _______ _______ _______ _____ _____    ______ ____
ROOT
ATOM      1  C   UNL     1      -5.068  11.433  16.784  0.00  0.00    +0.000 C 
ATOM      2  C   UNL     1      -3.879  11.542  17.691  0.00  0.00    +0.000 A 
ATOM      3  C   UNL     1      -2.592  11.229  17.220  0.00  0.00    +0.000 A 
ATOM      4  C   UNL     1      -1.480  11.294  18.066  0.00  0.00    +0.000 A 
ATOM      5  C   UNL     1      -1.667  11.614  19.397  0.00  0.00    +0.000 A 
ATOM      6  C   UNL     1      -2.940  12.000  19.845  0.00  0.00    +0.000 A 
ATOM      7  C   UNL     1      -4.050  11.954  19.017  0.00  0.00    +0.000 A 
ATOM      8  C   UNL     1      -2.871  12.324  21.302  0.00  0.00    +0.000 C 
ATOM      9  C   UNL     1      -3.695  13.456  21.888  0.00  0.00    +0.000 C 
ATOM     10  N   UNL     1      -3.366  13.578  23.320  0.00  0.00    +0.000 NA
ATOM     11  C   UNL     1      -4.181  14.620  23.945  0.00  0.00    +0.000 C 
ATOM     12  C   UNL     1      -1.926  13.805  23.553  0.00  0.00    +0.000 C 
ATOM     13  C   UNL     1      -1.019  12.731  22.898  0.00  0.00    +0.000 C 
ATOM     14  C   UNL     1      -1.372  12.654  21.421  0.00  0.00    +0.000 C 
ATOM     15  N   UNL     1      -0.735  11.700  20.475  0.00  0.00    +0.000 N 
ATOM     16  C   UNL     1       0.580  11.256  20.542  0.00  0.00    +0.000 C 
ATOM     17  O   UNL     1       1.385  11.690  21.370  0.00  0.00    +0.000 OA
ENDROOT
BRANCH  16  18
ATOM     18  C   UNL     1       1.069  10.210  19.574  0.00  0.00    +0.000 A 
ATOM     19  C   UNL     1       1.175   8.896  20.020  0.00  0.00    +0.000 A 
ATOM     20  C   UNL     1       1.940   7.994  19.268  0.00  0.00    +0.000 A 
ATOM     21  C   UNL     1       2.506   8.432  18.066  0.00  0.00    +0.000 A 
ATOM     22  C   UNL     1       2.244   9.726  17.646  0.00  0.00    +0.000 A 
ATOM     23  N   UNL     1       1.528  10.618  18.363  0.00  0.00    +0.000 NA
BRANCH  20  24
ATOM     24  N   UNL     1       2.203   6.678  19.758  0.00  0.00    +0.000 N 
ATOM     25  C   UNL     1       3.234   5.841  19.367  0.00  0.00    +0.000 A 
ATOM     26  C   UNL     1       3.195   4.685  20.118  0.00  0.00    +0.000 A 
ATOM     27  C   UNL     1       2.093   4.790  20.986  0.00  0.00    +0.000 A 
ATOM     28  C   UNL     1       1.498   6.009  20.743  0.00  0.00    +0.000 A 
ENDBRANCH  20  24
ENDBRANCH  16  18
TORSDOF 2
ENDMDL
MODEL 4
REMARK VINA RESULT:      -7.3      2.524      8.600
REMARK  Name = 
REMARK  4 active torsions:
REMARK  status: ('A' for Active; 'I' for Inactive)
REMARK    1  A    between atoms: C_1  and  C_2
REMARK    2  A    between atoms: N_10  and  C_11
REMARK    3  A    between atoms: C_16  and  C_18
REMARK    4  A    between atoms: C_20  and  N_21
REMARK                            x       y       z     vdW  Elec       q    Type
REMARK                         _______ _______ _______ _____ _____    ______ ____
ROOT
ATOM      1  C   UNL     1      -3.983  11.017  16.077  0.00  0.00    +0.000 C 
ATOM      2  C   UNL     1      -2.956  10.948  17.167  0.00  0.00    +0.000 A 
ATOM      3  C   UNL     1      -1.706  10.350  16.933  0.00  0.00    +0.000 A 
ATOM      4  C   UNL     1      -0.753  10.251  17.951  0.00  0.00    +0.000 A 
ATOM      5  C   UNL     1      -1.076  10.698  19.218  0.00  0.00    +0.000 A 
ATOM      6  C   UNL     1      -2.293  11.363  19.429  0.00  0.00    +0.000 A 
ATOM      7  C   UNL     1      -3.243  11.482  18.428  0.00  0.00    +0.000 A 
ATOM      8  C   UNL     1      -2.388  11.771  20.863  0.00  0.00    +0.000 C 
ATOM      9  C   UNL     1      -3.036  13.085  21.258  0.00  0.00    +0.000 C 
ATOM     10  N   UNL     1      -2.919  13.242  22.720  0.00  0.00    +0.000 NA
ATOM     11  C   UNL     1      -3.584  14.469  23.157  0.00  0.00    +0.000 C 
ATOM     12  C   UNL     1      -1.518  13.191  23.184  0.00  0.00    +0.000 C 
ATOM     13  C   UNL     1      -0.767  11.912  22.734  0.00  0.00    +0.000 C 
ATOM     14  C   UNL     1      -0.891  11.800  21.222  0.00  0.00    +0.000 C 
ATOM     15  N   UNL     1      -0.328  10.671  20.434  0.00  0.00    +0.000 N 
ATOM     16  C   UNL     1       0.836   9.978  20.739  0.00  0.00    +0.000 C 
ATOM     17  O   UNL     1       1.575  10.299  21.675  0.00  0.00    +0.000 OA
ENDROOT
BRANCH  16  18
ATOM     18  C   UNL     1       1.241   8.788  19.909  0.00  0.00    +0.000 A 
ATOM     19  C   UNL     1       1.040   7.516  20.437  0.00  0.00    +0.000 A 
ATOM     20  C   UNL     1       1.712   6.435  19.850  0.00  0.00    +0.000 A 
ATOM     21  C   UNL     1       2.500   6.667  18.717  0.00  0.00    +0.000 A 
ATOM     22  C   UNL     1       2.541   7.950  18.195  0.00  0.00    +0.000 A 
ATOM     23  N   UNL     1       1.920   9.009  18.754  0.00  0.00    +0.000 NA
BRANCH  20  24
ATOM     24  N   UNL     1       1.659   5.136  20.444  0.00  0.00    +0.000 N 
ATOM     25  C   UNL     1       0.797   4.107  20.106  0.00  0.00    +0.000 A 
ATOM     26  C   UNL     1       1.100   2.990  20.855  0.00  0.00    +0.000 A 
ATOM     27  C   UNL     1       2.166   3.337  21.705  0.00  0.00    +0.000 A 
ATOM     28  C   UNL     1       2.484   4.653  21.444  0.00  0.00    +0.000 A 
ENDBRANCH  20  24
ENDBRANCH  16  18
TORSDOF 2
ENDMDL
MODEL 5
REMARK VINA RESULT:      -6.7      5.105     10.237
REMARK  Name = 
REMARK  4 active torsions:
REMARK  status: ('A' for Active; 'I' for Inactive)
REMARK    1  A    between atoms: C_1  and  C_2
REMARK    2  A    between atoms: N_10  and  C_11
REMARK    3  A    between atoms: C_16  and  C_18
REMARK    4  A    between atoms: C_20  and  N_21
REMARK                            x       y       z     vdW  Elec       q    Type
REMARK                         _______ _______ _______ _____ _____    ______ ____
ROOT
ATOM      1  C   UNL     1      -1.045  18.272  17.766  0.00  0.00    +0.000 C 
ATOM      2  C   UNL     1      -0.936  17.171  18.778  0.00  0.00    +0.000 A 
ATOM      3  C   UNL     1      -0.145  16.039  18.518  0.00  0.00    +0.000 A 
ATOM      4  C   UNL     1      -0.062  14.991  19.441  0.00  0.00    +0.000 A 
ATOM      5  C   UNL     1      -0.819  15.052  20.595  0.00  0.00    +0.000 A 
ATOM      6  C   UNL     1      -1.545  16.217  20.887  0.00  0.00    +0.000 A 
ATOM      7  C   UNL     1      -1.627  17.270  19.991  0.00  0.00    +0.000 A 
ATOM      8  C   UNL     1      -2.245  16.044  22.196  0.00  0.00    +0.000 C 
ATOM      9  C   UNL     1      -2.398  17.209  23.157  0.00  0.00    +0.000 C 
ATOM     10  N   UNL     1      -3.062  16.720  24.380  0.00  0.00    +0.000 NA
ATOM     11  C   UNL     1      -3.286  17.821  25.315  0.00  0.00    +0.000 C 
ATOM     12  C   UNL     1      -2.327  15.609  25.017  0.00  0.00    +0.000 C 
ATOM     13  C   UNL     1      -2.055  14.421  24.059  0.00  0.00    +0.000 C 
ATOM     14  C   UNL     1      -1.349  14.962  22.826  0.00  0.00    +0.000 C 
ATOM     15  N   UNL     1      -0.964  14.117  21.664  0.00  0.00    +0.000 N 
ATOM     16  C   UNL     1      -0.575  12.785  21.731  0.00  0.00    +0.000 C 
ATOM     17  O   UNL     1      -0.430  12.189  22.802  0.00  0.00    +0.000 OA
ENDROOT
BRANCH  16  18
ATOM     18  C   UNL     1      -0.306  12.017  20.463  0.00  0.00    +0.000 A 
ATOM     19  C   UNL     1      -1.305  11.971  19.495  0.00  0.00    +0.000 A 
ATOM     20  C   UNL     1      -1.217  10.998  18.490  0.00  0.00    +0.000 A 
ATOM     21  C   UNL     1      -0.095  10.163  18.459  0.00  0.00    +0.000 A 
ATOM     22  C   UNL     1       0.905  10.366  19.396  0.00  0.00    +0.000 A 
ATOM     23  N   UNL     1       0.833  11.281  20.386  0.00  0.00    +0.000 NA
BRANCH  20  24
ATOM     24  N   UNL     1      -2.288  10.811  17.563  0.00  0.00    +0.000 N 
ATOM     25  C   UNL     1      -3.542  11.394  17.621  0.00  0.00    +0.000 A 
ATOM     26  C   UNL     1      -4.271  11.023  16.511  0.00  0.00    +0.000 A 
ATOM     27  C   UNL     1      -3.459  10.164  15.749  0.00  0.00    +0.000 A 
ATOM     28  C   UNL     1      -2.258  10.043  16.413  0.00  0.00    +0.000 A 
ENDBRANCH  20  24
ENDBRANCH  16  18
TORSDOF 2
ENDMDL
MODEL 6
REMARK VINA RESULT:      -6.6      3.973      6.797
REMARK  Name = 
REMARK  4 active torsions:
REMARK  status: ('A' for Active; 'I' for Inactive)
REMARK    1  A    between atoms: C_1  and  C_2
REMARK    2  A    between atoms: N_10  and  C_11
REMARK    3  A    between atoms: C_16  and  C_18
REMARK    4  A    between atoms: C_20  and  N_21
REMARK                            x       y       z     vdW  Elec       q    Type
REMARK                         _______ _______ _______ _____ _____    ______ ____
ROOT
ATOM      1  C   UNL     1      -2.691  11.496  16.041  0.00  0.00    +0.000 C 
ATOM      2  C   UNL     1      -2.205  11.219  17.433  0.00  0.00    +0.000 A 
ATOM      3  C   UNL     1      -2.889  11.741  18.544  0.00  0.00    +0.000 A 
ATOM      4  C   UNL     1      -2.427  11.517  19.844  0.00  0.00    +0.000 A 
ATOM      5  C   UNL     1      -1.246  10.823  20.027  0.00  0.00    +0.000 A 
ATOM      6  C   UNL     1      -0.608  10.239  18.922  0.00  0.00    +0.000 A 
ATOM      7  C   UNL     1      -1.060  10.438  17.628  0.00  0.00    +0.000 A 
ATOM      8  C   UNL     1       0.619   9.523  19.385  0.00  0.00    +0.000 C 
ATOM      9  C   UNL     1       1.048   8.217  18.742  0.00  0.00    +0.000 C 
ATOM     10  N   UNL     1       2.242   7.719  19.450  0.00  0.00    +0.000 NA
ATOM     11  C   UNL     1       2.730   6.490  18.827  0.00  0.00    +0.000 C 
ATOM     12  C   UNL     1       2.007   7.536  20.897  0.00  0.00    +0.000 C 
ATOM     13  C   UNL     1       1.476   8.812  21.600  0.00  0.00    +0.000 C 
ATOM     14  C   UNL     1       0.234   9.278  20.856  0.00  0.00    +0.000 C 
ATOM     15  N   UNL     1      -0.529  10.502  21.219  0.00  0.00    +0.000 N 
ATOM     16  C   UNL     1      -0.688  11.000  22.506  0.00  0.00    +0.000 C 
ATOM     17  O   UNL     1      -0.267  10.407  23.503  0.00  0.00    +0.000 OA
ENDROOT
BRANCH  16  18
ATOM     18  C   UNL     1      -1.404  12.308  22.722  0.00  0.00    +0.000 A 
ATOM     19  C   UNL     1      -2.744  12.272  23.094  0.00  0.00    +0.000 A 
ATOM     20  C   UNL     1      -3.506  13.441  22.961  0.00  0.00    +0.000 A 
ATOM     21  C   UNL     1      -2.872  14.612  22.529  0.00  0.00    +0.000 A 
ATOM     22  C   UNL     1      -1.507  14.575  22.298  0.00  0.00    +0.000 A 
ATOM     23  N   UNL     1      -0.757  13.457  22.399  0.00  0.00    +0.000 NA
BRANCH  20  24
ATOM     24  N   UNL     1      -4.917  13.420  23.186  0.00  0.00    +0.000 N 
ATOM     25  C   UNL     1      -5.886  14.039  22.416  0.00  0.00    +0.000 A 
ATOM     26  C   UNL     1      -7.134  13.728  22.914  0.00  0.00    +0.000 A 
ATOM     27  C   UNL     1      -6.940  12.912  24.042  0.00  0.00    +0.000 A 
ATOM     28  C   UNL     1      -5.580  12.744  24.194  0.00  0.00    +0.000 A 
ENDBRANCH  20  24
ENDBRANCH  16  18
TORSDOF 2
ENDMDL
MODEL 7
REMARK VINA RESULT:      -6.6      4.176      7.241
REMARK  Name = 
REMARK  4 active torsions:
REMARK  status: ('A' for Active; 'I' for Inactive)
REMARK    1  A    between atoms: C_1  and  C_2
REMARK    2  A    between atoms: N_10  and  C_11
REMARK    3  A    between atoms: C_16  and  C_18
REMARK    4  A    between atoms: C_20  and  N_21
REMARK                            x       y       z     vdW  Elec       q    Type
REMARK                         _______ _______ _______ _____ _____    ______ ____
ROOT
ATOM      1  C   UNL     1      -3.547  11.132  15.570  0.00  0.00    +0.000 C 
ATOM      2  C   UNL     1      -2.960  11.123  16.950  0.00  0.00    +0.000 A 
ATOM      3  C   UNL     1      -3.636  11.739  18.017  0.00  0.00    +0.000 A 
ATOM      4  C   UNL     1      -3.084  11.766  19.301  0.00  0.00    +0.000 A 
ATOM      5  C   UNL     1      -1.827  11.227  19.502  0.00  0.00    +0.000 A 
ATOM      6  C   UNL     1      -1.190  10.546  18.454  0.00  0.00    +0.000 A 
ATOM      7  C   UNL     1      -1.729  10.498  17.179  0.00  0.00    +0.000 A 
ATOM      8  C   UNL     1       0.131  10.035  18.932  0.00  0.00    +0.000 C 
ATOM      9  C   UNL     1       0.663   8.694  18.460  0.00  0.00    +0.000 C 
ATOM     10  N   UNL     1       1.940   8.431  19.150  0.00  0.00    +0.000 NA
ATOM     11  C   UNL     1       2.524   7.174  18.683  0.00  0.00    +0.000 C 
ATOM     12  C   UNL     1       1.804   8.451  20.620  0.00  0.00    +0.000 C 
ATOM     13  C   UNL     1       1.176   9.761  21.162  0.00  0.00    +0.000 C 
ATOM     14  C   UNL     1      -0.146   9.982  20.445  0.00  0.00    +0.000 C 
ATOM     15  N   UNL     1      -1.016  11.167  20.676  0.00  0.00    +0.000 N 
ATOM     16  C   UNL     1      -1.159  11.839  21.883  0.00  0.00    +0.000 C 
ATOM     17  O   UNL     1      -0.624  11.451  22.925  0.00  0.00    +0.000 OA
ENDROOT
BRANCH  16  18
ATOM     18  C   UNL     1      -1.999  13.087  21.952  0.00  0.00    +0.000 A 
ATOM     19  C   UNL     1      -3.179  13.048  22.689  0.00  0.00    +0.000 A 
ATOM     20  C   UNL     1      -4.129  14.059  22.485  0.00  0.00    +0.000 A 
ATOM     21  C   UNL     1      -3.821  15.102  21.605  0.00  0.00    +0.000 A 
ATOM     22  C   UNL     1      -2.570  15.116  21.009  0.00  0.00    +0.000 A 
ATOM     23  N   UNL     1      -1.649  14.143  21.174  0.00  0.00    +0.000 NA
BRANCH  20  24
ATOM     24  N   UNL     1      -5.415  13.984  23.102  0.00  0.00    +0.000 N 
ATOM     25  C   UNL     1      -6.373  14.983  23.141  0.00  0.00    +0.000 A 
ATOM     26  C   UNL     1      -7.506  14.506  23.765  0.00  0.00    +0.000 A 
ATOM     27  C   UNL     1      -7.242  13.180  24.151  0.00  0.00    +0.000 A 
ATOM     28  C   UNL     1      -5.958  12.885  23.744  0.00  0.00    +0.000 A 
ENDBRANCH  20  24
ENDBRANCH  16  18
TORSDOF 2
ENDMDL
MODEL 8
REMARK VINA RESULT:      -6.5      5.913      7.836
REMARK  Name = 
REMARK  4 active torsions:
REMARK  status: ('A' for Active; 'I' for Inactive)
REMARK    1  A    between atoms: C_1  and  C_2
REMARK    2  A    between atoms: N_10  and  C_11
REMARK    3  A    between atoms: C_16  and  C_18
REMARK    4  A    between atoms: C_20  and  N_21
REMARK                            x       y       z     vdW  Elec       q    Type
REMARK                         _______ _______ _______ _____ _____    ______ ____
ROOT
ATOM      1  C   UNL     1       0.861   8.913  22.241  0.00  0.00    +0.000 C 
ATOM      2  C   UNL     1       0.341  10.294  21.978  0.00  0.00    +0.000 A 
ATOM      3  C   UNL     1      -0.745  10.800  22.714  0.00  0.00    +0.000 A 
ATOM      4  C   UNL     1      -1.260  12.073  22.455  0.00  0.00    +0.000 A 
ATOM      5  C   UNL     1      -0.725  12.815  21.418  0.00  0.00    +0.000 A 
ATOM      6  C   UNL     1       0.406  12.340  20.738  0.00  0.00    +0.000 A 
ATOM      7  C   UNL     1       0.938  11.086  20.991  0.00  0.00    +0.000 A 
ATOM      8  C   UNL     1       0.804  13.333  19.694  0.00  0.00    +0.000 C 
ATOM      9  C   UNL     1       2.267  13.588  19.380  0.00  0.00    +0.000 C 
ATOM     10  N   UNL     1       2.346  14.658  18.369  0.00  0.00    +0.000 NA
ATOM     11  C   UNL     1       3.738  14.900  17.988  0.00  0.00    +0.000 C 
ATOM     12  C   UNL     1       1.681  15.902  18.806  0.00  0.00    +0.000 C 
ATOM     13  C   UNL     1       0.205  15.693  19.232  0.00  0.00    +0.000 C 
ATOM     14  C   UNL     1       0.170  14.602  20.291  0.00  0.00    +0.000 C 
ATOM     15  N   UNL     1      -1.086  14.099  20.909  0.00  0.00    +0.000 N 
ATOM     16  C   UNL     1      -2.223  14.859  21.154  0.00  0.00    +0.000 C 
ATOM     17  O   UNL     1      -2.265  16.075  20.951  0.00  0.00    +0.000 OA
ENDROOT
BRANCH  16  18
ATOM     18  C   UNL     1      -3.464  14.199  21.696  0.00  0.00    +0.000 A 
ATOM     19  C   UNL     1      -4.065  13.198  20.938  0.00  0.00    +0.000 A 
ATOM     20  C   UNL     1      -5.380  12.825  21.245  0.00  0.00    +0.000 A 
ATOM     21  C   UNL     1      -6.010  13.421  22.343  0.00  0.00    +0.000 A 
ATOM     22  C   UNL     1      -5.286  14.320  23.110  0.00  0.00    +0.000 A 
ATOM     23  N   UNL     1      -4.027  14.710  22.822  0.00  0.00    +0.000 NA
BRANCH  20  24
ATOM     24  N   UNL     1      -6.092  11.913  20.406  0.00  0.00    +0.000 N 
ATOM     25  C   UNL     1      -5.876  11.690  19.057  0.00  0.00    +0.000 A 
ATOM     26  C   UNL     1      -6.715  10.688  18.618  0.00  0.00    +0.000 A 
ATOM     27  C   UNL     1      -7.497  10.290  19.718  0.00  0.00    +0.000 A 
ATOM     28  C   UNL     1      -7.106  11.056  20.795  0.00  0.00    +0.000 A 
ENDBRANCH  20  24
ENDBRANCH  16  18
TORSDOF 2
ENDMDL
MODEL 9
REMARK VINA RESULT:      -6.5      6.934      9.347
REMARK  Name = 
REMARK  4 active torsions:
REMARK  status: ('A' for Active; 'I' for Inactive)
REMARK    1  A    between atoms: C_1  and  C_2
REMARK    2  A    between atoms: N_10  and  C_11
REMARK    3  A    between atoms: C_16  and  C_18
REMARK    4  A    between atoms: C_20  and  N_21
REMARK                            x       y       z     vdW  Elec       q    Type
REMARK                         _______ _______ _______ _____ _____    ______ ____
ROOT
ATOM      1  C   UNL     1       1.942  13.477  19.982  0.00  0.00    +0.000 C 
ATOM      2  C   UNL     1       0.449  13.340  19.996  0.00  0.00    +0.000 A 
ATOM      3  C   UNL     1      -0.323  14.040  20.939  0.00  0.00    +0.000 A 
ATOM      4  C   UNL     1      -1.713  13.894  20.983  0.00  0.00    +0.000 A 
ATOM      5  C   UNL     1      -2.322  13.000  20.122  0.00  0.00    +0.000 A 
ATOM      6  C   UNL     1      -1.558  12.362  19.133  0.00  0.00    +0.000 A 
ATOM      7  C   UNL     1      -0.182  12.506  19.066  0.00  0.00    +0.000 A 
ATOM      8  C   UNL     1      -2.448  11.479  18.319  0.00  0.00    +0.000 C 
ATOM      9  C   UNL     1      -2.229  11.317  16.826  0.00  0.00    +0.000 C 
ATOM     10  N   UNL     1      -3.295  10.450  16.290  0.00  0.00    +0.000 NA
ATOM     11  C   UNL     1      -3.093  10.215  14.861  0.00  0.00    +0.000 C 
ATOM     12  C   UNL     1      -4.647  10.978  16.566  0.00  0.00    +0.000 C 
ATOM     13  C   UNL     1      -4.904  11.255  18.070  0.00  0.00    +0.000 C 
ATOM     14  C   UNL     1      -3.800  12.170  18.576  0.00  0.00    +0.000 C 
ATOM     15  N   UNL     1      -3.692  12.620  19.990  0.00  0.00    +0.000 N 
ATOM     16  C   UNL     1      -4.761  12.862  20.842  0.00  0.00    +0.000 C 
ATOM     17  O   UNL     1      -5.935  12.802  20.467  0.00  0.00    +0.000 OA
ENDROOT
BRANCH  16  18
ATOM     18  C   UNL     1      -4.507  13.219  22.283  0.00  0.00    +0.000 A 
ATOM     19  C   UNL     1      -4.672  14.544  22.674  0.00  0.00    +0.000 A 
ATOM     20  C   UNL     1      -4.116  14.956  23.893  0.00  0.00    +0.000 A 
ATOM     21  C   UNL     1      -3.482  14.004  24.699  0.00  0.00    +0.000 A 
ATOM     22  C   UNL     1      -3.474  12.684  24.278  0.00  0.00    +0.000 A 
ATOM     23  N   UNL     1      -3.984  12.268  23.100  0.00  0.00    +0.000 NA
BRANCH  20  24
ATOM     24  N   UNL     1      -4.127  16.335  24.268  0.00  0.00    +0.000 N 
ATOM     25  C   UNL     1      -5.235  17.087  24.622  0.00  0.00    +0.000 A 
ATOM     26  C   UNL     1      -4.831  18.354  24.985  0.00  0.00    +0.000 A 
ATOM     27  C   UNL     1      -3.434  18.405  24.831  0.00  0.00    +0.000 A 
ATOM     28  C   UNL     1      -3.028  17.166  24.385  0.00  0.00    +0.000 A 
ENDBRANCH  20  24
ENDBRANCH  16  18
TORSDOF 2
ENDMDL
