MODEL 1
REMARK VINA RESULT:      -8.1      0.000      0.000
REMARK  Name = 
REMARK  5 active torsions:
REMARK  status: ('A' for Active; 'I' for Inactive)
REMARK    1  A    between atoms: C_1  and  C_2
REMARK    2  A    between atoms: C_4  and  C_5
REMARK    3  A    between atoms: N_7  and  C_8
REMARK    4  A    between atoms: C_13  and  N_14
REMARK    5  A    between atoms: N_20  and  C_21
REMARK                            x       y       z     vdW  Elec       q    Type
REMARK                         _______ _______ _______ _____ _____    ______ ____
ROOT
ATOM      1  C   UNL     1       2.117   8.248  18.421  0.00  0.00    +0.000 C 
ATOM      2  O   UNL     1       2.280   8.711  17.294  0.00  0.00    +0.000 OA
ATOM      3  N   UNL     1       2.634   7.033  18.850  0.00  0.00    +0.000 N 
ATOM      4  H   UNL     1       2.735   6.924  19.854  0.00  0.00    +0.000 HD
ENDROOT
BRANCH   1   8
ATOM      5  C   UNL     1       0.078   9.335  22.775  0.00  0.00    +0.000 C 
ATOM      6  C   UNL     1       0.650   9.479  21.412  0.00  0.00    +0.000 A 
ATOM      7  N   UNL     1       1.411   8.593  20.811  0.00  0.00    +0.000 NA
ATOM      8  C   UNL     1       1.409   8.994  19.489  0.00  0.00    +0.000 A 
ATOM      9  N   UNL     1       0.709  10.124  19.275  0.00  0.00    +0.000 NA
ATOM     10  N   UNL     1       0.319  10.493  20.519  0.00  0.00    +0.000 N 
BRANCH  10  11
ATOM     11  C   UNL     1      -0.324  11.745  20.738  0.00  0.00    +0.000 A 
ATOM     12  C   UNL     1      -1.630  11.938  20.273  0.00  0.00    +0.000 A 
ATOM     13  C   UNL     1      -2.287  13.157  20.494  0.00  0.00    +0.000 A 
ATOM     14  C   UNL     1      -1.622  14.188  21.143  0.00  0.00    +0.000 A 
ATOM     15  F   UNL     1      -2.244  15.357  21.350  0.00  0.00    +0.000 F 
ATOM     16  C   UNL     1      -0.311  14.027  21.572  0.00  0.00    +0.000 A 
ATOM     17  C   UNL     1       0.342  12.807  21.369  0.00  0.00    +0.000 A 
ENDBRANCH  10  11
ENDBRANCH   1   8
BRANCH   3  18
ATOM     18  C   UNL     1       3.518   6.264  18.057  0.00  0.00    +0.000 A 
ATOM     19  C   UNL     1       4.401   6.919  17.185  0.00  0.00    +0.000 A 
ATOM     20  C   UNL     1       5.207   6.186  16.317  0.00  0.00    +0.000 A 
ATOM     21  C   UNL     1       5.162   4.797  16.347  0.00  0.00    +0.000 A 
ATOM     22  C   UNL     1       4.279   4.144  17.213  0.00  0.00    +0.000 A 
ATOM     23  C   UNL     1       3.416   4.853  18.068  0.00  0.00    +0.000 A 
BRANCH  23  24
ATOM     24  N   UNL     1       2.482   4.203  18.869  0.00  0.00    +0.000 N 
ATOM     25  C   UNL     1       1.588   3.193  18.310  0.00  0.00    +0.000 C 
ATOM     26  C   UNL     1       0.672   2.944  19.496  0.00  0.00    +0.000 C 
ATOM     27  C   UNL     1       1.641   2.924  20.676  0.00  0.00    +0.000 C 
ATOM     28  C   UNL     1       2.835   3.788  20.233  0.00  0.00    +0.000 C 
ENDBRANCH  23  24
ENDBRANCH   3  18
TORSDOF 4
ENDMDL
MODEL 2
REMARK VINA RESULT:      -8.1      1.804      3.610
REMARK  Name = 
REMARK  5 active torsions:
REMARK  status: ('A' for Active; 'I' for Inactive)
REMARK    1  A    between atoms: C_1  and  C_2
REMARK    2  A    between atoms: C_4  and  C_5
REMARK    3  A    between atoms: N_7  and  C_8
REMARK    4  A    between atoms: C_13  and  N_14
REMARK    5  A    between atoms: N_20  and  C_21
REMARK                            x       y       z     vdW  Elec       q    Type
REMARK                         _______ _______ _______ _____ _____    ______ ____
ROOT
ATOM      1  C   UNL     1       2.445   6.758  19.079  0.00  0.00    +0.000 C 
ATOM      2  O   UNL     1       2.884   6.333  20.147  0.00  0.00    +0.000 OA
ATOM      3  N   UNL     1       2.252   5.978  17.947  0.00  0.00    +0.000 N 
ATOM      4  H   UNL     1       1.585   6.336  17.271  0.00  0.00    +0.000 HD
ENDROOT
BRANCH   1   8
ATOM      5  C   UNL     1       2.392  11.521  17.816  0.00  0.00    +0.000 C 
ATOM      6  C   UNL     1       1.943  10.174  18.247  0.00  0.00    +0.000 A 
ATOM      7  N   UNL     1       2.617   9.059  18.077  0.00  0.00    +0.000 NA
ATOM      8  C   UNL     1       1.986   8.158  18.914  0.00  0.00    +0.000 A 
ATOM      9  N   UNL     1       0.921   8.677  19.551  0.00  0.00    +0.000 NA
ATOM     10  N   UNL     1       0.827   9.928  19.041  0.00  0.00    +0.000 N 
BRANCH  10  11
ATOM     11  C   UNL     1      -0.286  10.761  19.354  0.00  0.00    +0.000 A 
ATOM     12  C   UNL     1      -1.352  10.851  18.452  0.00  0.00    +0.000 A 
ATOM     13  C   UNL     1      -2.464  11.652  18.749  0.00  0.00    +0.000 A 
ATOM     14  C   UNL     1      -2.487  12.387  19.926  0.00  0.00    +0.000 A 
ATOM     15  F   UNL     1      -3.545  13.159  20.210  0.00  0.00    +0.000 F 
ATOM     16  C   UNL     1      -1.417  12.343  20.810  0.00  0.00    +0.000 A 
ATOM     17  C   UNL     1      -0.313  11.532  20.526  0.00  0.00    +0.000 A 
ENDBRANCH  10  11
ENDBRANCH   1   8
BRANCH   3  18
ATOM     18  C   UNL     1       2.424   4.575  17.956  0.00  0.00    +0.000 A 
ATOM     19  C   UNL     1       1.366   3.758  18.386  0.00  0.00    +0.000 A 
ATOM     20  C   UNL     1       1.542   2.381  18.505  0.00  0.00    +0.000 A 
ATOM     21  C   UNL     1       2.762   1.813  18.156  0.00  0.00    +0.000 A 
ATOM     22  C   UNL     1       3.818   2.627  17.732  0.00  0.00    +0.000 A 
ATOM     23  C   UNL     1       3.691   4.025  17.647  0.00  0.00    +0.000 A 
BRANCH  23  24
ATOM     24  N   UNL     1       4.766   4.838  17.303  0.00  0.00    +0.000 N 
ATOM     25  C   UNL     1       5.769   5.215  18.294  0.00  0.00    +0.000 C 
ATOM     26  C   UNL     1       6.581   6.223  17.501  0.00  0.00    +0.000 C 
ATOM     27  C   UNL     1       6.687   5.568  16.125  0.00  0.00    +0.000 C 
ATOM     28  C   UNL     1       5.450   4.659  16.015  0.00  0.00    +0.000 C 
ENDBRANCH  23  24
ENDBRANCH   3  18
TORSDOF 4
ENDMDL
MODEL 3
REMARK VINA RESULT:      -8.0      1.889      3.584
REMARK  Name = 
REMARK  5 active torsions:
REMARK  status: ('A' for Active; 'I' for Inactive)
REMARK    1  A    between atoms: C_1  and  C_2
REMARK    2  A    between atoms: C_4  and  C_5
REMARK    3  A    between atoms: N_7  and  C_8
REMARK    4  A    between atoms: C_13  and  N_14
REMARK    5  A    between atoms: N_20  and  C_21
REMARK                            x       y       z     vdW  Elec       q    Type
REMARK                         _______ _______ _______ _____ _____    ______ ____
ROOT
ATOM      1  C   UNL     1       2.169   6.490  19.705  0.00  0.00    +0.000 C 
ATOM      2  O   UNL     1       2.341   5.840  20.735  0.00  0.00    +0.000 OA
ATOM      3  N   UNL     1       2.329   5.981  18.423  0.00  0.00    +0.000 N 
ATOM      4  H   UNL     1       1.839   6.477  17.685  0.00  0.00    +0.000 HD
ENDROOT
BRANCH   1   8
ATOM      5  C   UNL     1       1.595  11.239  18.518  0.00  0.00    +0.000 C 
ATOM      6  C   UNL     1       1.363   9.897  19.110  0.00  0.00    +0.000 A 
ATOM      7  N   UNL     1       1.912   8.779  18.693  0.00  0.00    +0.000 NA
ATOM      8  C   UNL     1       1.679   7.889  19.725  0.00  0.00    +0.000 A 
ATOM      9  N   UNL     1       0.966   8.418  20.735  0.00  0.00    +0.000 NA
ATOM     10  N   UNL     1       0.669   9.664  20.293  0.00  0.00    +0.000 N 
BRANCH  10  11
ATOM     11  C   UNL     1      -0.221  10.503  21.023  0.00  0.00    +0.000 A 
ATOM     12  C   UNL     1      -0.343  10.337  22.408  0.00  0.00    +0.000 A 
ATOM     13  C   UNL     1      -1.201  11.164  23.147  0.00  0.00    +0.000 A 
ATOM     14  C   UNL     1      -1.961  12.125  22.494  0.00  0.00    +0.000 A 
ATOM     15  F   UNL     1      -2.787  12.912  23.195  0.00  0.00    +0.000 F 
ATOM     16  C   UNL     1      -1.885  12.272  21.115  0.00  0.00    +0.000 A 
ATOM     17  C   UNL     1      -1.017  11.461  20.376  0.00  0.00    +0.000 A 
ENDBRANCH  10  11
ENDBRANCH   1   8
BRANCH   3  18
ATOM     18  C   UNL     1       2.583   4.612  18.178  0.00  0.00    +0.000 A 
ATOM     19  C   UNL     1       1.542   3.683  18.333  0.00  0.00    +0.000 A 
ATOM     20  C   UNL     1       1.789   2.319  18.201  0.00  0.00    +0.000 A 
ATOM     21  C   UNL     1       3.067   1.881  17.875  0.00  0.00    +0.000 A 
ATOM     22  C   UNL     1       4.106   2.806  17.724  0.00  0.00    +0.000 A 
ATOM     23  C   UNL     1       3.904   4.187  17.898  0.00  0.00    +0.000 A 
BRANCH  23  24
ATOM     24  N   UNL     1       4.955   5.096  17.829  0.00  0.00    +0.000 N 
ATOM     25  C   UNL     1       6.114   4.971  18.707  0.00  0.00    +0.000 C 
ATOM     26  C   UNL     1       6.848   6.261  18.386  0.00  0.00    +0.000 C 
ATOM     27  C   UNL     1       6.710   6.362  16.869  0.00  0.00    +0.000 C 
ATOM     28  C   UNL     1       5.427   5.586  16.527  0.00  0.00    +0.000 C 
ENDBRANCH  23  24
ENDBRANCH   3  18
TORSDOF 4
ENDMDL
MODEL 4
REMARK VINA RESULT:      -7.7      1.497      2.097
REMARK  Name = 
REMARK  5 active torsions:
REMARK  status: ('A' for Active; 'I' for Inactive)
REMARK    1  A    between atoms: C_1  and  C_2
REMARK    2  A    between atoms: C_4  and  C_5
REMARK    3  A    between atoms: N_7  and  C_8
REMARK    4  A    between atoms: C_13  and  N_14
REMARK    5  A    between atoms: N_20  and  C_21
REMARK                            x       y       z     vdW  Elec       q    Type
REMARK                         _______ _______ _______ _____ _____    ______ ____
ROOT
ATOM      1  C   UNL     1       2.074   7.728  17.996  0.00  0.00    +0.000 C 
ATOM      2  O   UNL     1       1.334   7.083  17.256  0.00  0.00    +0.000 OA
ATOM      3  N   UNL     1       3.395   7.395  18.265  0.00  0.00    +0.000 N 
ATOM      4  H   UNL     1       3.987   8.154  18.586  0.00  0.00    +0.000 HD
ENDROOT
BRANCH   1   8
ATOM      5  C   UNL     1       1.810  12.537  19.044  0.00  0.00    +0.000 C 
ATOM      6  C   UNL     1       1.475  11.093  18.961  0.00  0.00    +0.000 A 
ATOM      7  N   UNL     1       1.997  10.240  18.109  0.00  0.00    +0.000 NA
ATOM      8  C   UNL     1       1.652   9.004  18.622  0.00  0.00    +0.000 A 
ATOM      9  N   UNL     1       0.896   9.079  19.732  0.00  0.00    +0.000 NA
ATOM     10  N   UNL     1       0.690  10.409  19.884  0.00  0.00    +0.000 N 
BRANCH  10  11
ATOM     11  C   UNL     1      -0.207  10.898  20.876  0.00  0.00    +0.000 A 
ATOM     12  C   UNL     1      -0.191  10.334  22.157  0.00  0.00    +0.000 A 
ATOM     13  C   UNL     1      -1.055  10.813  23.152  0.00  0.00    +0.000 A 
ATOM     14  C   UNL     1      -1.956  11.825  22.852  0.00  0.00    +0.000 A 
ATOM     15  F   UNL     1      -2.788  12.281  23.798  0.00  0.00    +0.000 F 
ATOM     16  C   UNL     1      -2.015  12.365  21.573  0.00  0.00    +0.000 A 
ATOM     17  C   UNL     1      -1.143  11.902  20.583  0.00  0.00    +0.000 A 
ENDBRANCH  10  11
ENDBRANCH   1   8
BRANCH   3  18
ATOM     18  C   UNL     1       4.059   6.337  17.602  0.00  0.00    +0.000 A 
ATOM     19  C   UNL     1       4.882   6.627  16.503  0.00  0.00    +0.000 A 
ATOM     20  C   UNL     1       5.464   5.597  15.767  0.00  0.00    +0.000 A 
ATOM     21  C   UNL     1       5.258   4.277  16.152  0.00  0.00    +0.000 A 
ATOM     22  C   UNL     1       4.434   3.987  17.245  0.00  0.00    +0.000 A 
ATOM     23  C   UNL     1       3.791   4.999  17.981  0.00  0.00    +0.000 A 
BRANCH  23  24
ATOM     24  N   UNL     1       2.909   4.705  19.015  0.00  0.00    +0.000 N 
ATOM     25  C   UNL     1       1.678   3.963  18.763  0.00  0.00    +0.000 C 
ATOM     26  C   UNL     1       1.003   4.072  20.119  0.00  0.00    +0.000 C 
ATOM     27  C   UNL     1       2.158   3.851  21.092  0.00  0.00    +0.000 C 
ATOM     28  C   UNL     1       3.419   4.298  20.331  0.00  0.00    +0.000 C 
ENDBRANCH  23  24
ENDBRANCH   3  18
TORSDOF 4
ENDMDL
MODEL 5
REMARK VINA RESULT:      -7.6      2.095      3.454
REMARK  Name = 
REMARK  5 active torsions:
REMARK  status: ('A' for Active; 'I' for Inactive)
REMARK    1  A    between atoms: C_1  and  C_2
REMARK    2  A    between atoms: C_4  and  C_5
REMARK    3  A    between atoms: N_7  and  C_8
REMARK    4  A    between atoms: C_13  and  N_14
REMARK    5  A    between atoms: N_20  and  C_21
REMARK                            x       y       z     vdW  Elec       q    Type
REMARK                         _______ _______ _______ _____ _____    ______ ____
ROOT
ATOM      1  C   UNL     1       2.126   6.284  20.221  0.00  0.00    +0.000 C 
ATOM      2  O   UNL     1       2.477   5.504  21.104  0.00  0.00    +0.000 OA
ATOM      3  N   UNL     1       2.142   5.990  18.865  0.00  0.00    +0.000 N 
ATOM      4  H   UNL     1       1.526   6.548  18.282  0.00  0.00    +0.000 HD
ENDROOT
BRANCH   1   8
ATOM      5  C   UNL     1       0.052  10.007  22.699  0.00  0.00    +0.000 C 
ATOM      6  C   UNL     1       0.775   9.241  21.652  0.00  0.00    +0.000 A 
ATOM      7  N   UNL     1       1.310   8.053  21.814  0.00  0.00    +0.000 NA
ATOM      8  C   UNL     1       1.554   7.619  20.525  0.00  0.00    +0.000 A 
ATOM      9  N   UNL     1       1.227   8.524  19.586  0.00  0.00    +0.000 NA
ATOM     10  N   UNL     1       0.834   9.601  20.309  0.00  0.00    +0.000 N 
BRANCH  10  11
ATOM     11  C   UNL     1       0.551  10.842  19.671  0.00  0.00    +0.000 A 
ATOM     12  C   UNL     1      -0.734  11.083  19.173  0.00  0.00    +0.000 A 
ATOM     13  C   UNL     1      -1.038  12.305  18.557  0.00  0.00    +0.000 A 
ATOM     14  C   UNL     1      -0.046  13.265  18.407  0.00  0.00    +0.000 A 
ATOM     15  F   UNL     1      -0.330  14.431  17.813  0.00  0.00    +0.000 F 
ATOM     16  C   UNL     1       1.246  13.024  18.856  0.00  0.00    +0.000 A 
ATOM     17  C   UNL     1       1.549  11.812  19.487  0.00  0.00    +0.000 A 
ENDBRANCH  10  11
ENDBRANCH   1   8
BRANCH   3  18
ATOM     18  C   UNL     1       2.449   4.700  18.374  0.00  0.00    +0.000 A 
ATOM     19  C   UNL     1       1.482   3.686  18.462  0.00  0.00    +0.000 A 
ATOM     20  C   UNL     1       1.792   2.381  18.084  0.00  0.00    +0.000 A 
ATOM     21  C   UNL     1       3.055   2.095  17.579  0.00  0.00    +0.000 A 
ATOM     22  C   UNL     1       4.020   3.105  17.494  0.00  0.00    +0.000 A 
ATOM     23  C   UNL     1       3.758   4.422  17.912  0.00  0.00    +0.000 A 
BRANCH  23  24
ATOM     24  N   UNL     1       4.744   5.403  17.903  0.00  0.00    +0.000 N 
ATOM     25  C   UNL     1       6.105   5.104  18.335  0.00  0.00    +0.000 C 
ATOM     26  C   UNL     1       6.714   6.494  18.324  0.00  0.00    +0.000 C 
ATOM     27  C   UNL     1       6.150   7.103  17.042  0.00  0.00    +0.000 C 
ATOM     28  C   UNL     1       4.824   6.363  16.794  0.00  0.00    +0.000 C 
ENDBRANCH  23  24
ENDBRANCH   3  18
TORSDOF 4
ENDMDL
MODEL 6
REMARK VINA RESULT:      -7.6      3.559      8.940
REMARK  Name = 
REMARK  5 active torsions:
REMARK  status: ('A' for Active; 'I' for Inactive)
REMARK    1  A    between atoms: C_1  and  C_2
REMARK    2  A    between atoms: C_4  and  C_5
REMARK    3  A    between atoms: N_7  and  C_8
REMARK    4  A    between atoms: C_13  and  N_14
REMARK    5  A    between atoms: N_20  and  C_21
REMARK                            x       y       z     vdW  Elec       q    Type
REMARK                         _______ _______ _______ _____ _____    ______ ____
ROOT
ATOM      1  C   UNL     1       1.122   9.232  19.228  0.00  0.00    +0.000 C 
ATOM      2  O   UNL     1       0.121   9.632  18.636  0.00  0.00    +0.000 OA
ATOM      3  N   UNL     1       1.496   9.645  20.498  0.00  0.00    +0.000 N 
ATOM      4  H   UNL     1       2.110   9.016  21.007  0.00  0.00    +0.000 HD
ENDROOT
BRANCH   1   8
ATOM      5  C   UNL     1       4.625   7.029  16.550  0.00  0.00    +0.000 C 
ATOM      6  C   UNL     1       3.601   7.282  17.595  0.00  0.00    +0.000 A 
ATOM      7  N   UNL     1       3.138   8.464  17.934  0.00  0.00    +0.000 NA
ATOM      8  C   UNL     1       2.004   8.178  18.669  0.00  0.00    +0.000 A 
ATOM      9  N   UNL     1       1.788   6.860  18.828  0.00  0.00    +0.000 NA
ATOM     10  N   UNL     1       2.867   6.291  18.239  0.00  0.00    +0.000 N 
BRANCH  10  11
ATOM     11  C   UNL     1       3.092   4.887  18.332  0.00  0.00    +0.000 A 
ATOM     12  C   UNL     1       4.077   4.405  19.202  0.00  0.00    +0.000 A 
ATOM     13  C   UNL     1       4.303   3.027  19.321  0.00  0.00    +0.000 A 
ATOM     14  C   UNL     1       3.571   2.140  18.543  0.00  0.00    +0.000 A 
ATOM     15  F   UNL     1       3.788   0.822  18.649  0.00  0.00    +0.000 F 
ATOM     16  C   UNL     1       2.621   2.605  17.643  0.00  0.00    +0.000 A 
ATOM     17  C   UNL     1       2.381   3.979  17.534  0.00  0.00    +0.000 A 
ENDBRANCH  10  11
ENDBRANCH   1   8
BRANCH   3  18
ATOM     18  C   UNL     1       0.680  10.483  21.294  0.00  0.00    +0.000 A 
ATOM     19  C   UNL     1      -0.209   9.901  22.211  0.00  0.00    +0.000 A 
ATOM     20  C   UNL     1      -1.099  10.695  22.931  0.00  0.00    +0.000 A 
ATOM     21  C   UNL     1      -1.075  12.075  22.766  0.00  0.00    +0.000 A 
ATOM     22  C   UNL     1      -0.191  12.655  21.849  0.00  0.00    +0.000 A 
ATOM     23  C   UNL     1       0.687  11.880  21.070  0.00  0.00    +0.000 A 
BRANCH  23  24
ATOM     24  N   UNL     1       1.505  12.452  20.102  0.00  0.00    +0.000 N 
ATOM     25  C   UNL     1       0.958  12.901  18.826  0.00  0.00    +0.000 C 
ATOM     26  C   UNL     1       2.234  13.250  18.080  0.00  0.00    +0.000 C 
ATOM     27  C   UNL     1       3.070  13.952  19.148  0.00  0.00    +0.000 C 
ATOM     28  C   UNL     1       2.570  13.387  20.489  0.00  0.00    +0.000 C 
ENDBRANCH  23  24
ENDBRANCH   3  18
TORSDOF 4
ENDMDL
MODEL 7
REMARK VINA RESULT:      -7.6      0.325      1.246
REMARK  Name = 
REMARK  5 active torsions:
REMARK  status: ('A' for Active; 'I' for Inactive)
REMARK    1  A    between atoms: C_1  and  C_2
REMARK    2  A    between atoms: C_4  and  C_5
REMARK    3  A    between atoms: N_7  and  C_8
REMARK    4  A    between atoms: C_13  and  N_14
REMARK    5  A    between atoms: N_20  and  C_21
REMARK                            x       y       z     vdW  Elec       q    Type
REMARK                         _______ _______ _______ _____ _____    ______ ____
ROOT
ATOM      1  C   UNL     1       2.105   8.243  18.430  0.00  0.00    +0.000 C 
ATOM      2  O   UNL     1       2.237   8.683  17.289  0.00  0.00    +0.000 OA
ATOM      3  N   UNL     1       2.674   7.062  18.884  0.00  0.00    +0.000 N 
ATOM      4  H   UNL     1       2.789   6.983  19.890  0.00  0.00    +0.000 HD
ENDROOT
BRANCH   1   8
ATOM      5  C   UNL     1      -0.029   9.318  22.741  0.00  0.00    +0.000 C 
ATOM      6  C   UNL     1       0.578   9.467  21.394  0.00  0.00    +0.000 A 
ATOM      7  N   UNL     1       1.343   8.577  20.804  0.00  0.00    +0.000 NA
ATOM      8  C   UNL     1       1.378   8.989  19.486  0.00  0.00    +0.000 A 
ATOM      9  N   UNL     1       0.697  10.128  19.264  0.00  0.00    +0.000 NA
ATOM     10  N   UNL     1       0.281  10.492  20.501  0.00  0.00    +0.000 N 
BRANCH  10  11
ATOM     11  C   UNL     1      -0.354  11.749  20.715  0.00  0.00    +0.000 A 
ATOM     12  C   UNL     1       0.361  12.786  21.325  0.00  0.00    +0.000 A 
ATOM     13  C   UNL     1      -0.241  14.036  21.529  0.00  0.00    +0.000 A 
ATOM     14  C   UNL     1      -1.564  14.230  21.159  0.00  0.00    +0.000 A 
ATOM     15  F   UNL     1      -2.145  15.421  21.359  0.00  0.00    +0.000 F 
ATOM     16  C   UNL     1      -2.301  13.198  20.594  0.00  0.00    +0.000 A 
ATOM     17  C   UNL     1      -1.699  11.954  20.372  0.00  0.00    +0.000 A 
ENDBRANCH  10  11
ENDBRANCH   1   8
BRANCH   3  18
ATOM     18  C   UNL     1       3.579   6.308  18.102  0.00  0.00    +0.000 A 
ATOM     19  C   UNL     1       4.363   6.963  17.138  0.00  0.00    +0.000 A 
ATOM     20  C   UNL     1       5.184   6.233  16.282  0.00  0.00    +0.000 A 
ATOM     21  C   UNL     1       5.256   4.851  16.414  0.00  0.00    +0.000 A 
ATOM     22  C   UNL     1       4.473   4.197  17.371  0.00  0.00    +0.000 A 
ATOM     23  C   UNL     1       3.596   4.897  18.219  0.00  0.00    +0.000 A 
BRANCH  23  24
ATOM     24  N   UNL     1       2.759   4.238  19.113  0.00  0.00    +0.000 N 
ATOM     25  C   UNL     1       2.743   4.594  20.528  0.00  0.00    +0.000 C 
ATOM     26  C   UNL     1       1.849   3.499  21.083  0.00  0.00    +0.000 C 
ATOM     27  C   UNL     1       0.745   3.396  20.033  0.00  0.00    +0.000 C 
ATOM     28  C   UNL     1       1.388   3.883  18.722  0.00  0.00    +0.000 C 
ENDBRANCH  23  24
ENDBRANCH   3  18
TORSDOF 4
ENDMDL
MODEL 8
REMARK VINA RESULT:      -7.6      3.591      9.050
REMARK  Name = 
REMARK  5 active torsions:
REMARK  status: ('A' for Active; 'I' for Inactive)
REMARK    1  A    between atoms: C_1  and  C_2
REMARK    2  A    between atoms: C_4  and  C_5
REMARK    3  A    between atoms: N_7  and  C_8
REMARK    4  A    between atoms: C_13  and  N_14
REMARK    5  A    between atoms: N_20  and  C_21
REMARK                            x       y       z     vdW  Elec       q    Type
REMARK                         _______ _______ _______ _____ _____    ______ ____
ROOT
ATOM      1  C   UNL     1       0.872   9.543  21.752  0.00  0.00    +0.000 C 
ATOM      2  O   UNL     1       1.245   9.557  22.924  0.00  0.00    +0.000 OA
ATOM      3  N   UNL     1      -0.022  10.452  21.204  0.00  0.00    +0.000 N 
ATOM      4  H   UNL     1       0.016  10.558  20.195  0.00  0.00    +0.000 HD
ENDROOT
BRANCH   1   8
ATOM      5  C   UNL     1       2.316   7.607  17.455  0.00  0.00    +0.000 C 
ATOM      6  C   UNL     1       2.144   7.828  18.913  0.00  0.00    +0.000 A 
ATOM      7  N   UNL     1       1.747   8.951  19.468  0.00  0.00    +0.000 NA
ATOM      8  C   UNL     1       1.418   8.585  20.759  0.00  0.00    +0.000 A 
ATOM      9  N   UNL     1       1.647   7.285  21.021  0.00  0.00    +0.000 NA
ATOM     10  N   UNL     1       2.214   6.829  19.878  0.00  0.00    +0.000 N 
BRANCH  10  11
ATOM     11  C   UNL     1       2.751   5.512  19.808  0.00  0.00    +0.000 A 
ATOM     12  C   UNL     1       1.952   4.422  20.174  0.00  0.00    +0.000 A 
ATOM     13  C   UNL     1       2.457   3.116  20.096  0.00  0.00    +0.000 A 
ATOM     14  C   UNL     1       3.768   2.909  19.689  0.00  0.00    +0.000 A 
ATOM     15  F   UNL     1       4.257   1.664  19.620  0.00  0.00    +0.000 F 
ATOM     16  C   UNL     1       4.588   3.983  19.366  0.00  0.00    +0.000 A 
ATOM     17  C   UNL     1       4.082   5.286  19.426  0.00  0.00    +0.000 A 
ENDBRANCH  10  11
ENDBRANCH   1   8
BRANCH   3  18
ATOM     18  C   UNL     1      -0.497  11.574  21.922  0.00  0.00    +0.000 A 
ATOM     19  C   UNL     1      -1.541  11.404  22.845  0.00  0.00    +0.000 A 
ATOM     20  C   UNL     1      -2.099  12.507  23.488  0.00  0.00    +0.000 A 
ATOM     21  C   UNL     1      -1.589  13.776  23.241  0.00  0.00    +0.000 A 
ATOM     22  C   UNL     1      -0.550  13.946  22.319  0.00  0.00    +0.000 A 
ATOM     23  C   UNL     1       0.004  12.862  21.615  0.00  0.00    +0.000 A 
BRANCH  23  24
ATOM     24  N   UNL     1       0.979  13.043  20.640  0.00  0.00    +0.000 N 
ATOM     25  C   UNL     1       0.613  13.356  19.262  0.00  0.00    +0.000 C 
ATOM     26  C   UNL     1       1.969  13.263  18.584  0.00  0.00    +0.000 C 
ATOM     27  C   UNL     1       2.897  13.948  19.585  0.00  0.00    +0.000 C 
ATOM     28  C   UNL     1       2.216  13.771  20.954  0.00  0.00    +0.000 C 
ENDBRANCH  23  24
ENDBRANCH   3  18
TORSDOF 4
ENDMDL
MODEL 9
REMARK VINA RESULT:      -7.6      1.905      2.259
REMARK  Name = 
REMARK  5 active torsions:
REMARK  status: ('A' for Active; 'I' for Inactive)
REMARK    1  A    between atoms: C_1  and  C_2
REMARK    2  A    between atoms: C_4  and  C_5
REMARK    3  A    between atoms: N_7  and  C_8
REMARK    4  A    between atoms: C_13  and  N_14
REMARK    5  A    between atoms: N_20  and  C_21
REMARK                            x       y       z     vdW  Elec       q    Type
REMARK                         _______ _______ _______ _____ _____    ______ ____
ROOT
ATOM      1  C   UNL     1       2.672   6.294  17.921  0.00  0.00    +0.000 C 
ATOM      2  O   UNL     1       1.965   5.415  17.432  0.00  0.00    +0.000 OA
ATOM      3  N   UNL     1       4.047   6.379  17.749  0.00  0.00    +0.000 N 
ATOM      4  H   UNL     1       4.455   7.297  17.892  0.00  0.00    +0.000 HD
ENDROOT
BRANCH   1   8
ATOM      5  C   UNL     1       0.906   8.954  21.676  0.00  0.00    +0.000 C 
ATOM      6  C   UNL     1       1.466   8.586  20.351  0.00  0.00    +0.000 A 
ATOM      7  N   UNL     1       2.073   7.456  20.071  0.00  0.00    +0.000 NA
ATOM      8  C   UNL     1       2.105   7.429  18.690  0.00  0.00    +0.000 A 
ATOM      9  N   UNL     1       1.578   8.529  18.122  0.00  0.00    +0.000 NA
ATOM     10  N   UNL     1       1.273   9.315  19.182  0.00  0.00    +0.000 N 
BRANCH  10  11
ATOM     11  C   UNL     1       0.828  10.655  18.990  0.00  0.00    +0.000 A 
ATOM     12  C   UNL     1      -0.544  10.929  18.981  0.00  0.00    +0.000 A 
ATOM     13  C   UNL     1      -1.002  12.244  18.810  0.00  0.00    +0.000 A 
ATOM     14  C   UNL     1      -0.088  13.270  18.612  0.00  0.00    +0.000 A 
ATOM     15  F   UNL     1      -0.521  14.526  18.442  0.00  0.00    +0.000 F 
ATOM     16  C   UNL     1       1.275  13.007  18.575  0.00  0.00    +0.000 A 
ATOM     17  C   UNL     1       1.737  11.699  18.762  0.00  0.00    +0.000 A 
ENDBRANCH  10  11
ENDBRANCH   1   8
BRANCH   3  18
ATOM     18  C   UNL     1       4.755   5.521  16.876  0.00  0.00    +0.000 A 
ATOM     19  C   UNL     1       5.355   6.058  15.726  0.00  0.00    +0.000 A 
ATOM     20  C   UNL     1       5.968   5.222  14.796  0.00  0.00    +0.000 A 
ATOM     21  C   UNL     1       6.019   3.853  15.032  0.00  0.00    +0.000 A 
ATOM     22  C   UNL     1       5.418   3.317  16.176  0.00  0.00    +0.000 A 
ATOM     23  C   UNL     1       4.748   4.126  17.112  0.00  0.00    +0.000 A 
BRANCH  23  24
ATOM     24  N   UNL     1       4.081   3.582  18.205  0.00  0.00    +0.000 N 
ATOM     25  C   UNL     1       3.223   2.412  18.054  0.00  0.00    +0.000 C 
ATOM     26  C   UNL     1       2.603   2.339  19.439  0.00  0.00    +0.000 C 
ATOM     27  C   UNL     1       3.786   2.638  20.357  0.00  0.00    +0.000 C 
ATOM     28  C   UNL     1       4.752   3.484  19.509  0.00  0.00    +0.000 C 
ENDBRANCH  23  24
ENDBRANCH   3  18
TORSDOF 4
ENDMDL
