MODEL 1
REMARK VINA RESULT:      -9.5      0.000      0.000
REMARK  Name = 
REMARK  6 active torsions:
REMARK  status: ('A' for Active; 'I' for Inactive)
REMARK    1  A    between atoms: C_1  and  C_2
REMARK    2  A    between atoms: C_7  and  C_8
REMARK    3  A    between atoms: N_10  and  C_11
REMARK    4  A    between atoms: C_13  and  S_14
REMARK    5  A    between atoms: S_14  and  N_17
REMARK    6  A    between atoms: C_24  and  O_25
REMARK                            x       y       z     vdW  Elec       q    Type
REMARK                         _______ _______ _______ _____ _____    ______ ____
ROOT
ATOM      1  C   UNL     1       6.132   5.864  16.600  0.00  0.00    +0.000 A 
ATOM      2  C   UNL     1       5.035   5.298  17.246  0.00  0.00    +0.000 A 
ATOM      3  C   UNL     1       4.586   4.025  16.903  0.00  0.00    +0.000 A 
ATOM      4  C   UNL     1       5.206   3.309  15.876  0.00  0.00    +0.000 A 
ATOM      5  C   UNL     1       6.279   3.882  15.188  0.00  0.00    +0.000 A 
ATOM      6  C   UNL     1       6.736   5.155  15.557  0.00  0.00    +0.000 A 
ENDROOT
BRANCH   1   9
ATOM      7  C   UNL     1       7.588   7.352  17.954  0.00  0.00    +0.000 C 
ATOM      8  O   UNL     1       8.123   6.472  18.622  0.00  0.00    +0.000 OA
ATOM      9  N   UNL     1       6.647   7.132  16.969  0.00  0.00    +0.000 N 
ATOM     10  H   UNL     1       6.407   7.891  16.340  0.00  0.00    +0.000 HD
BRANCH   7  17
ATOM     11  C   UNL     1      12.100  12.784  19.853  0.00  0.00    +0.000 C 
ATOM     12  C   UNL     1      10.885  12.151  19.248  0.00  0.00    +0.000 A 
ATOM     13  C   UNL     1      10.142  12.812  18.259  0.00  0.00    +0.000 A 
ATOM     14  C   UNL     1       9.046  12.197  17.635  0.00  0.00    +0.000 A 
ATOM     15  C   UNL     1       8.715  10.874  17.981  0.00  0.00    +0.000 A 
ATOM     16  C   UNL     1       7.781   9.912  17.483  0.00  0.00    +0.000 A 
ATOM     17  C   UNL     1       8.031   8.716  18.129  0.00  0.00    +0.000 A 
ATOM     18  N   UNL     1       8.928   8.998  19.138  0.00  0.00    +0.000 N 
ATOM     19  C   UNL     1       9.442  10.256  18.995  0.00  0.00    +0.000 A 
ATOM     20  C   UNL     1      10.505  10.867  19.663  0.00  0.00    +0.000 A 
ATOM     21  H   UNL     1       9.257   8.301  19.792  0.00  0.00    +0.000 HD
ENDBRANCH   7  17
ENDBRANCH   1   9
BRANCH   3  22
ATOM     22  S   UNL     1       3.171   3.322  17.720  0.00  0.00    +0.000 S 
ATOM     23  O   UNL     1       2.021   3.851  17.012  0.00  0.00    +0.000 OA
ATOM     24  O   UNL     1       3.394   1.902  17.843  0.00  0.00    +0.000 OA
BRANCH  22  25
ATOM     25  N   UNL     1       3.166   3.997  19.288  0.00  0.00    +0.000 NA
ATOM     26  C   UNL     1       3.037   3.056  20.432  0.00  0.00    +0.000 C 
ATOM     27  C   UNL     1       1.592   3.189  20.864  0.00  0.00    +0.000 C 
ATOM     28  C   UNL     1       1.308   4.666  20.679  0.00  0.00    +0.000 C 
ATOM     29  C   UNL     1       2.189   5.096  19.510  0.00  0.00    +0.000 C 
ENDBRANCH  22  25
ENDBRANCH   3  22
BRANCH   6  30
ATOM     30  O   UNL     1       7.803   5.722  14.909  0.00  0.00    +0.000 OA
ATOM     31  H   UNL     1       7.489   6.509  14.429  0.00  0.00    +0.000 HD
ENDBRANCH   6  30
TORSDOF 5
ENDMDL
MODEL 2
REMARK VINA RESULT:      -9.2      4.309      7.651
REMARK  Name = 
REMARK  6 active torsions:
REMARK  status: ('A' for Active; 'I' for Inactive)
REMARK    1  A    between atoms: C_1  and  C_2
REMARK    2  A    between atoms: C_7  and  C_8
REMARK    3  A    between atoms: N_10  and  C_11
REMARK    4  A    between atoms: C_13  and  S_14
REMARK    5  A    between atoms: S_14  and  N_17
REMARK    6  A    between atoms: C_24  and  O_25
REMARK                            x       y       z     vdW  Elec       q    Type
REMARK                         _______ _______ _______ _____ _____    ______ ____
ROOT
ATOM      1  C   UNL     1       3.179   5.719  18.860  0.00  0.00    +0.000 A 
ATOM      2  C   UNL     1       4.024   6.075  17.811  0.00  0.00    +0.000 A 
ATOM      3  C   UNL     1       4.556   5.105  16.965  0.00  0.00    +0.000 A 
ATOM      4  C   UNL     1       4.281   3.752  17.178  0.00  0.00    +0.000 A 
ATOM      5  C   UNL     1       3.470   3.376  18.253  0.00  0.00    +0.000 A 
ATOM      6  C   UNL     1       2.923   4.362  19.085  0.00  0.00    +0.000 A 
ENDROOT
BRANCH   1   9
ATOM      7  C   UNL     1       1.999   7.866  19.269  0.00  0.00    +0.000 C 
ATOM      8  O   UNL     1       1.908   8.214  18.094  0.00  0.00    +0.000 OA
ATOM      9  N   UNL     1       2.577   6.689  19.700  0.00  0.00    +0.000 N 
ATOM     10  H   UNL     1       2.433   6.394  20.660  0.00  0.00    +0.000 HD
BRANCH   7  17
ATOM     11  C   UNL     1      -2.463  12.972  22.005  0.00  0.00    +0.000 C 
ATOM     12  C   UNL     1      -1.476  11.846  22.035  0.00  0.00    +0.000 A 
ATOM     13  C   UNL     1      -1.340  11.035  23.171  0.00  0.00    +0.000 A 
ATOM     14  C   UNL     1      -0.471   9.933  23.183  0.00  0.00    +0.000 A 
ATOM     15  C   UNL     1       0.245   9.614  22.015  0.00  0.00    +0.000 A 
ATOM     16  C   UNL     1       1.093   8.531  21.624  0.00  0.00    +0.000 A 
ATOM     17  C   UNL     1       1.378   8.688  20.281  0.00  0.00    +0.000 A 
ATOM     18  N   UNL     1       0.909   9.936  19.928  0.00  0.00    +0.000 N 
ATOM     19  C   UNL     1       0.123  10.459  20.916  0.00  0.00    +0.000 A 
ATOM     20  C   UNL     1      -0.699  11.588  20.898  0.00  0.00    +0.000 A 
ATOM     21  H   UNL     1       1.020  10.322  18.999  0.00  0.00    +0.000 HD
ENDBRANCH   7  17
ENDBRANCH   1   9
BRANCH   3  22
ATOM     22  S   UNL     1       5.651   5.570  15.644  0.00  0.00    +0.000 S 
ATOM     23  O   UNL     1       5.697   4.419  14.762  0.00  0.00    +0.000 OA
ATOM     24  O   UNL     1       5.241   6.869  15.167  0.00  0.00    +0.000 OA
BRANCH  22  25
ATOM     25  N   UNL     1       7.192   5.730  16.361  0.00  0.00    +0.000 NA
ATOM     26  C   UNL     1       7.624   4.653  17.289  0.00  0.00    +0.000 C 
ATOM     27  C   UNL     1       7.424   5.246  18.669  0.00  0.00    +0.000 C 
ATOM     28  C   UNL     1       7.819   6.697  18.483  0.00  0.00    +0.000 C 
ATOM     29  C   UNL     1       7.453   7.028  17.040  0.00  0.00    +0.000 C 
ENDBRANCH  22  25
ENDBRANCH   3  22
BRANCH   6  30
ATOM     30  O   UNL     1       2.107   4.012  20.129  0.00  0.00    +0.000 OA
ATOM     31  H   UNL     1       1.538   4.773  20.343  0.00  0.00    +0.000 HD
ENDBRANCH   6  30
TORSDOF 5
ENDMDL
MODEL 3
REMARK VINA RESULT:      -8.9      1.084      1.727
REMARK  Name = 
REMARK  6 active torsions:
REMARK  status: ('A' for Active; 'I' for Inactive)
REMARK    1  A    between atoms: C_1  and  C_2
REMARK    2  A    between atoms: C_7  and  C_8
REMARK    3  A    between atoms: N_10  and  C_11
REMARK    4  A    between atoms: C_13  and  S_14
REMARK    5  A    between atoms: S_14  and  N_17
REMARK    6  A    between atoms: C_24  and  O_25
REMARK                            x       y       z     vdW  Elec       q    Type
REMARK                         _______ _______ _______ _____ _____    ______ ____
ROOT
ATOM      1  C   UNL     1       6.069   6.392  16.816  0.00  0.00    +0.000 A 
ATOM      2  C   UNL     1       4.858   6.061  17.419  0.00  0.00    +0.000 A 
ATOM      3  C   UNL     1       4.221   4.857  17.124  0.00  0.00    +0.000 A 
ATOM      4  C   UNL     1       4.769   3.979  16.187  0.00  0.00    +0.000 A 
ATOM      5  C   UNL     1       5.961   4.318  15.540  0.00  0.00    +0.000 A 
ATOM      6  C   UNL     1       6.604   5.521  15.861  0.00  0.00    +0.000 A 
ENDROOT
BRANCH   1   9
ATOM      7  C   UNL     1       7.753   7.688  18.102  0.00  0.00    +0.000 C 
ATOM      8  O   UNL     1       8.172   6.756  18.784  0.00  0.00    +0.000 OA
ATOM      9  N   UNL     1       6.768   7.582  17.141  0.00  0.00    +0.000 N 
ATOM     10  H   UNL     1       6.625   8.352  16.497  0.00  0.00    +0.000 HD
BRANCH   7  17
ATOM     11  C   UNL     1       8.349  14.971  17.839  0.00  0.00    +0.000 C 
ATOM     12  C   UNL     1       8.765  13.566  18.145  0.00  0.00    +0.000 A 
ATOM     13  C   UNL     1       9.738  13.296  19.118  0.00  0.00    +0.000 A 
ATOM     14  C   UNL     1      10.082  11.980  19.463  0.00  0.00    +0.000 A 
ATOM     15  C   UNL     1       9.403  10.912  18.848  0.00  0.00    +0.000 A 
ATOM     16  C   UNL     1       9.391   9.494  19.033  0.00  0.00    +0.000 A 
ATOM     17  C   UNL     1       8.390   8.977  18.232  0.00  0.00    +0.000 A 
ATOM     18  N   UNL     1       7.965  10.012  17.426  0.00  0.00    +0.000 N 
ATOM     19  C   UNL     1       8.471  11.206  17.857  0.00  0.00    +0.000 A 
ATOM     20  C   UNL     1       8.149  12.507  17.464  0.00  0.00    +0.000 A 
ATOM     21  H   UNL     1       7.255   9.899  16.714  0.00  0.00    +0.000 HD
ENDBRANCH   7  17
ENDBRANCH   1   9
BRANCH   3  22
ATOM     22  S   UNL     1       2.665   4.457  17.884  0.00  0.00    +0.000 S 
ATOM     23  O   UNL     1       1.977   5.724  18.036  0.00  0.00    +0.000 OA
ATOM     24  O   UNL     1       2.080   3.365  17.143  0.00  0.00    +0.000 OA
BRANCH  22  25
ATOM     25  N   UNL     1       3.050   3.890  19.448  0.00  0.00    +0.000 NA
ATOM     26  C   UNL     1       2.900   2.432  19.698  0.00  0.00    +0.000 C 
ATOM     27  C   UNL     1       1.604   2.317  20.473  0.00  0.00    +0.000 C 
ATOM     28  C   UNL     1       1.623   3.543  21.365  0.00  0.00    +0.000 C 
ATOM     29  C   UNL     1       2.383   4.601  20.571  0.00  0.00    +0.000 C 
ENDBRANCH  22  25
ENDBRANCH   3  22
BRANCH   6  30
ATOM     30  O   UNL     1       7.786   5.858  15.254  0.00  0.00    +0.000 OA
ATOM     31  H   UNL     1       8.290   5.040  15.090  0.00  0.00    +0.000 HD
ENDBRANCH   6  30
TORSDOF 5
ENDMDL
MODEL 4
REMARK VINA RESULT:      -8.6      1.014      1.182
REMARK  Name = 
REMARK  6 active torsions:
REMARK  status: ('A' for Active; 'I' for Inactive)
REMARK    1  A    between atoms: C_1  and  C_2
REMARK    2  A    between atoms: C_7  and  C_8
REMARK    3  A    between atoms: N_10  and  C_11
REMARK    4  A    between atoms: C_13  and  S_14
REMARK    5  A    between atoms: S_14  and  N_17
REMARK    6  A    between atoms: C_24  and  O_25
REMARK                            x       y       z     vdW  Elec       q    Type
REMARK                         _______ _______ _______ _____ _____    ______ ____
ROOT
ATOM      1  C   UNL     1       5.758   5.884  17.307  0.00  0.00    +0.000 A 
ATOM      2  C   UNL     1       5.286   5.075  18.337  0.00  0.00    +0.000 A 
ATOM      3  C   UNL     1       4.750   3.818  18.067  0.00  0.00    +0.000 A 
ATOM      4  C   UNL     1       4.642   3.363  16.750  0.00  0.00    +0.000 A 
ATOM      5  C   UNL     1       5.071   4.183  15.702  0.00  0.00    +0.000 A 
ATOM      6  C   UNL     1       5.628   5.436  15.988  0.00  0.00    +0.000 A 
ENDROOT
BRANCH   1   9
ATOM      7  C   UNL     1       7.600   7.328  18.139  0.00  0.00    +0.000 C 
ATOM      8  O   UNL     1       8.353   6.423  18.491  0.00  0.00    +0.000 OA
ATOM      9  N   UNL     1       6.362   7.141  17.557  0.00  0.00    +0.000 N 
ATOM     10  H   UNL     1       5.900   7.933  17.123  0.00  0.00    +0.000 HD
BRANCH   7  17
ATOM     11  C   UNL     1      12.172  12.783  19.815  0.00  0.00    +0.000 C 
ATOM     12  C   UNL     1      10.958  12.136  19.223  0.00  0.00    +0.000 A 
ATOM     13  C   UNL     1      10.247  12.751  18.182  0.00  0.00    +0.000 A 
ATOM     14  C   UNL     1       9.153  12.120  17.572  0.00  0.00    +0.000 A 
ATOM     15  C   UNL     1       8.790  10.825  17.987  0.00  0.00    +0.000 A 
ATOM     16  C   UNL     1       7.849   9.852  17.526  0.00  0.00    +0.000 A 
ATOM     17  C   UNL     1       8.064   8.691  18.244  0.00  0.00    +0.000 A 
ATOM     18  N   UNL     1       8.946   9.016  19.254  0.00  0.00    +0.000 N 
ATOM     19  C   UNL     1       9.486  10.255  19.049  0.00  0.00    +0.000 A 
ATOM     20  C   UNL     1      10.547  10.885  19.703  0.00  0.00    +0.000 A 
ATOM     21  H   UNL     1       9.250   8.352  19.954  0.00  0.00    +0.000 HD
ENDBRANCH   7  17
ENDBRANCH   1   9
BRANCH   3  22
ATOM     22  S   UNL     1       4.130   2.804  19.389  0.00  0.00    +0.000 S 
ATOM     23  O   UNL     1       3.340   1.773  18.742  0.00  0.00    +0.000 OA
ATOM     24  O   UNL     1       5.240   2.474  20.250  0.00  0.00    +0.000 OA
BRANCH  22  25
ATOM     25  N   UNL     1       3.056   3.800  20.266  0.00  0.00    +0.000 NA
ATOM     26  C   UNL     1       2.513   3.259  21.539  0.00  0.00    +0.000 C 
ATOM     27  C   UNL     1       1.104   2.825  21.191  0.00  0.00    +0.000 C 
ATOM     28  C   UNL     1       0.643   3.893  20.219  0.00  0.00    +0.000 C 
ATOM     29  C   UNL     1       1.907   4.342  19.492  0.00  0.00    +0.000 C 
ENDBRANCH  22  25
ENDBRANCH   3  22
BRANCH   6  30
ATOM     30  O   UNL     1       6.076   6.242  14.973  0.00  0.00    +0.000 OA
ATOM     31  H   UNL     1       6.105   7.159  15.299  0.00  0.00    +0.000 HD
ENDBRANCH   6  30
TORSDOF 5
ENDMDL
MODEL 5
REMARK VINA RESULT:      -8.5      4.960      8.050
REMARK  Name = 
REMARK  6 active torsions:
REMARK  status: ('A' for Active; 'I' for Inactive)
REMARK    1  A    between atoms: C_1  and  C_2
REMARK    2  A    between atoms: C_7  and  C_8
REMARK    3  A    between atoms: N_10  and  C_11
REMARK    4  A    between atoms: C_13  and  S_14
REMARK    5  A    between atoms: S_14  and  N_17
REMARK    6  A    between atoms: C_24  and  O_25
REMARK                            x       y       z     vdW  Elec       q    Type
REMARK                         _______ _______ _______ _____ _____    ______ ____
ROOT
ATOM      1  C   UNL     1       2.950   6.641  18.860  0.00  0.00    +0.000 A 
ATOM      2  C   UNL     1       3.775   6.552  17.742  0.00  0.00    +0.000 A 
ATOM      3  C   UNL     1       4.551   5.417  17.517  0.00  0.00    +0.000 A 
ATOM      4  C   UNL     1       4.544   4.363  18.434  0.00  0.00    +0.000 A 
ATOM      5  C   UNL     1       3.755   4.457  19.584  0.00  0.00    +0.000 A 
ATOM      6  C   UNL     1       2.962   5.594  19.788  0.00  0.00    +0.000 A 
ENDROOT
BRANCH   1   9
ATOM      7  C   UNL     1       1.942   8.817  18.212  0.00  0.00    +0.000 C 
ATOM      8  O   UNL     1       2.488   8.915  17.116  0.00  0.00    +0.000 OA
ATOM      9  N   UNL     1       2.106   7.758  19.082  0.00  0.00    +0.000 N 
ATOM     10  H   UNL     1       1.472   7.665  19.869  0.00  0.00    +0.000 HD
BRANCH   7  17
ATOM     11  C   UNL     1      -4.604  12.032  18.749  0.00  0.00    +0.000 C 
ATOM     12  C   UNL     1      -3.143  11.830  19.011  0.00  0.00    +0.000 A 
ATOM     13  C   UNL     1      -2.530  12.378  20.147  0.00  0.00    +0.000 A 
ATOM     14  C   UNL     1      -1.179  12.133  20.439  0.00  0.00    +0.000 A 
ATOM     15  C   UNL     1      -0.440  11.284  19.595  0.00  0.00    +0.000 A 
ATOM     16  C   UNL     1       0.873  10.720  19.643  0.00  0.00    +0.000 A 
ATOM     17  C   UNL     1       0.980   9.823  18.597  0.00  0.00    +0.000 A 
ATOM     18  N   UNL     1      -0.140  10.004  17.814  0.00  0.00    +0.000 N 
ATOM     19  C   UNL     1      -1.060  10.787  18.453  0.00  0.00    +0.000 A 
ATOM     20  C   UNL     1      -2.389  11.057  18.118  0.00  0.00    +0.000 A 
ATOM     21  H   UNL     1      -0.300   9.494  16.955  0.00  0.00    +0.000 HD
ENDBRANCH   7  17
ENDBRANCH   1   9
BRANCH   3  22
ATOM     22  S   UNL     1       5.617   5.325  16.097  0.00  0.00    +0.000 S 
ATOM     23  O   UNL     1       5.561   3.940  15.667  0.00  0.00    +0.000 OA
ATOM     24  O   UNL     1       5.262   6.405  15.208  0.00  0.00    +0.000 OA
BRANCH  22  25
ATOM     25  N   UNL     1       7.192   5.618  16.686  0.00  0.00    +0.000 NA
ATOM     26  C   UNL     1       7.704   4.702  17.739  0.00  0.00    +0.000 C 
ATOM     27  C   UNL     1       7.569   5.495  19.022  0.00  0.00    +0.000 C 
ATOM     28  C   UNL     1       7.915   6.908  18.595  0.00  0.00    +0.000 C 
ATOM     29  C   UNL     1       7.458   7.008  17.144  0.00  0.00    +0.000 C 
ENDBRANCH  22  25
ENDBRANCH   3  22
BRANCH   6  30
ATOM     30  O   UNL     1       2.164   5.692  20.899  0.00  0.00    +0.000 OA
ATOM     31  H   UNL     1       2.036   4.798  21.264  0.00  0.00    +0.000 HD
ENDBRANCH   6  30
TORSDOF 5
ENDMDL
MODEL 6
REMARK VINA RESULT:      -8.5      4.664      7.802
REMARK  Name = 
REMARK  6 active torsions:
REMARK  status: ('A' for Active; 'I' for Inactive)
REMARK    1  A    between atoms: C_1  and  C_2
REMARK    2  A    between atoms: C_7  and  C_8
REMARK    3  A    between atoms: N_10  and  C_11
REMARK    4  A    between atoms: C_13  and  S_14
REMARK    5  A    between atoms: S_14  and  N_17
REMARK    6  A    between atoms: C_24  and  O_25
REMARK                            x       y       z     vdW  Elec       q    Type
REMARK                         _______ _______ _______ _____ _____    ______ ____
ROOT
ATOM      1  C   UNL     1       3.732   5.668  19.310  0.00  0.00    +0.000 A 
ATOM      2  C   UNL     1       4.944   5.945  18.681  0.00  0.00    +0.000 A 
ATOM      3  C   UNL     1       5.588   4.975  17.917  0.00  0.00    +0.000 A 
ATOM      4  C   UNL     1       5.048   3.692  17.801  0.00  0.00    +0.000 A 
ATOM      5  C   UNL     1       3.855   3.385  18.463  0.00  0.00    +0.000 A 
ATOM      6  C   UNL     1       3.204   4.376  19.211  0.00  0.00    +0.000 A 
ENDROOT
BRANCH   1   9
ATOM      7  C   UNL     1       2.218   7.628  19.493  0.00  0.00    +0.000 C 
ATOM      8  O   UNL     1       1.985   7.751  18.293  0.00  0.00    +0.000 OA
ATOM      9  N   UNL     1       3.025   6.653  20.043  0.00  0.00    +0.000 N 
ATOM     10  H   UNL     1       3.004   6.507  21.047  0.00  0.00    +0.000 HD
BRANCH   7  17
ATOM     11  C   UNL     1      -2.535  12.729  21.698  0.00  0.00    +0.000 C 
ATOM     12  C   UNL     1      -1.505  11.652  21.843  0.00  0.00    +0.000 A 
ATOM     13  C   UNL     1      -1.374  10.934  23.041  0.00  0.00    +0.000 A 
ATOM     14  C   UNL     1      -0.462   9.875  23.163  0.00  0.00    +0.000 A 
ATOM     15  C   UNL     1       0.305   9.500  22.044  0.00  0.00    +0.000 A 
ATOM     16  C   UNL     1       1.208   8.427  21.763  0.00  0.00    +0.000 A 
ATOM     17  C   UNL     1       1.531   8.496  20.420  0.00  0.00    +0.000 A 
ATOM     18  N   UNL     1       1.024   9.693  19.959  0.00  0.00    +0.000 N 
ATOM     19  C   UNL     1       0.185  10.254  20.881  0.00  0.00    +0.000 A 
ATOM     20  C   UNL     1      -0.681  11.342  20.753  0.00  0.00    +0.000 A 
ATOM     21  H   UNL     1       1.150  10.013  19.008  0.00  0.00    +0.000 HD
ENDBRANCH   7  17
ENDBRANCH   1   9
BRANCH   3  22
ATOM     22  S   UNL     1       7.146   5.335  17.138  0.00  0.00    +0.000 S 
ATOM     23  O   UNL     1       7.605   6.565  17.754  0.00  0.00    +0.000 OA
ATOM     24  O   UNL     1       7.942   4.132  17.169  0.00  0.00    +0.000 OA
BRANCH  22  25
ATOM     25  N   UNL     1       6.773   5.683  15.509  0.00  0.00    +0.000 NA
ATOM     26  C   UNL     1       5.339   5.664  15.121  0.00  0.00    +0.000 C 
ATOM     27  C   UNL     1       5.163   4.342  14.402  0.00  0.00    +0.000 C 
ATOM     28  C   UNL     1       6.462   4.187  13.639  0.00  0.00    +0.000 C 
ATOM     29  C   UNL     1       7.514   4.884  14.496  0.00  0.00    +0.000 C 
ENDBRANCH  22  25
ENDBRANCH   3  22
BRANCH   6  30
ATOM     30  O   UNL     1       2.021   4.099  19.846  0.00  0.00    +0.000 OA
ATOM     31  H   UNL     1       2.223   3.781  20.744  0.00  0.00    +0.000 HD
ENDBRANCH   6  30
TORSDOF 5
ENDMDL
MODEL 7
REMARK VINA RESULT:      -8.3      1.183      1.906
REMARK  Name = 
REMARK  6 active torsions:
REMARK  status: ('A' for Active; 'I' for Inactive)
REMARK    1  A    between atoms: C_1  and  C_2
REMARK    2  A    between atoms: C_7  and  C_8
REMARK    3  A    between atoms: N_10  and  C_11
REMARK    4  A    between atoms: C_13  and  S_14
REMARK    5  A    between atoms: S_14  and  N_17
REMARK    6  A    between atoms: C_24  and  O_25
REMARK                            x       y       z     vdW  Elec       q    Type
REMARK                         _______ _______ _______ _____ _____    ______ ____
ROOT
ATOM      1  C   UNL     1       6.547   5.980  16.755  0.00  0.00    +0.000 A 
ATOM      2  C   UNL     1       5.679   5.326  17.626  0.00  0.00    +0.000 A 
ATOM      3  C   UNL     1       5.223   4.040  17.345  0.00  0.00    +0.000 A 
ATOM      4  C   UNL     1       5.599   3.399  16.162  0.00  0.00    +0.000 A 
ATOM      5  C   UNL     1       6.434   4.061  15.257  0.00  0.00    +0.000 A 
ATOM      6  C   UNL     1       6.904   5.345  15.560  0.00  0.00    +0.000 A 
ENDROOT
BRANCH   1   9
ATOM      7  C   UNL     1       7.886   7.567  18.118  0.00  0.00    +0.000 C 
ATOM      8  O   UNL     1       8.282   6.754  18.950  0.00  0.00    +0.000 OA
ATOM      9  N   UNL     1       7.073   7.264  17.045  0.00  0.00    +0.000 N 
ATOM     10  H   UNL     1       6.958   7.950  16.307  0.00  0.00    +0.000 HD
BRANCH   7  17
ATOM     11  C   UNL     1       7.643  14.856  17.586  0.00  0.00    +0.000 C 
ATOM     12  C   UNL     1       8.218  13.519  17.939  0.00  0.00    +0.000 A 
ATOM     13  C   UNL     1       9.221  13.398  18.913  0.00  0.00    +0.000 A 
ATOM     14  C   UNL     1       9.714  12.144  19.303  0.00  0.00    +0.000 A 
ATOM     15  C   UNL     1       9.160  10.983  18.733  0.00  0.00    +0.000 A 
ATOM     16  C   UNL     1       9.311   9.581  18.969  0.00  0.00    +0.000 A 
ATOM     17  C   UNL     1       8.372   8.924  18.196  0.00  0.00    +0.000 A 
ATOM     18  N   UNL     1       7.828   9.873  17.356  0.00  0.00    +0.000 N 
ATOM     19  C   UNL     1       8.196  11.132  17.740  0.00  0.00    +0.000 A 
ATOM     20  C   UNL     1       7.725  12.372  17.303  0.00  0.00    +0.000 A 
ATOM     21  H   UNL     1       7.133   9.654  16.655  0.00  0.00    +0.000 HD
ENDBRANCH   7  17
ENDBRANCH   1   9
BRANCH   3  22
ATOM     22  S   UNL     1       4.097   3.224  18.454  0.00  0.00    +0.000 S 
ATOM     23  O   UNL     1       3.498   2.159  17.674  0.00  0.00    +0.000 OA
ATOM     24  O   UNL     1       4.807   2.953  19.681  0.00  0.00    +0.000 OA
BRANCH  22  25
ATOM     25  N   UNL     1       2.875   4.368  18.789  0.00  0.00    +0.000 NA
ATOM     26  C   UNL     1       3.057   5.224  19.991  0.00  0.00    +0.000 C 
ATOM     27  C   UNL     1       2.136   4.615  21.027  0.00  0.00    +0.000 C 
ATOM     28  C   UNL     1       0.933   4.186  20.212  0.00  0.00    +0.000 C 
ATOM     29  C   UNL     1       1.489   3.831  18.837  0.00  0.00    +0.000 C 
ENDBRANCH  22  25
ENDBRANCH   3  22
BRANCH   6  30
ATOM     30  O   UNL     1       7.743   5.998  14.695  0.00  0.00    +0.000 OA
ATOM     31  H   UNL     1       8.351   6.553  15.216  0.00  0.00    +0.000 HD
ENDBRANCH   6  30
TORSDOF 5
ENDMDL
MODEL 8
REMARK VINA RESULT:      -8.3      1.262      1.745
REMARK  Name = 
REMARK  6 active torsions:
REMARK  status: ('A' for Active; 'I' for Inactive)
REMARK    1  A    between atoms: C_1  and  C_2
REMARK    2  A    between atoms: C_7  and  C_8
REMARK    3  A    between atoms: N_10  and  C_11
REMARK    4  A    between atoms: C_13  and  S_14
REMARK    5  A    between atoms: S_14  and  N_17
REMARK    6  A    between atoms: C_24  and  O_25
REMARK                            x       y       z     vdW  Elec       q    Type
REMARK                         _______ _______ _______ _____ _____    ______ ____
ROOT
ATOM      1  C   UNL     1       6.832   5.567  17.153  0.00  0.00    +0.000 A 
ATOM      2  C   UNL     1       5.950   4.905  18.005  0.00  0.00    +0.000 A 
ATOM      3  C   UNL     1       5.240   3.790  17.568  0.00  0.00    +0.000 A 
ATOM      4  C   UNL     1       5.370   3.339  16.252  0.00  0.00    +0.000 A 
ATOM      5  C   UNL     1       6.217   4.019  15.372  0.00  0.00    +0.000 A 
ATOM      6  C   UNL     1       6.944   5.127  15.829  0.00  0.00    +0.000 A 
ENDROOT
BRANCH   1   9
ATOM      7  C   UNL     1       7.254   7.995  17.466  0.00  0.00    +0.000 C 
ATOM      8  O   UNL     1       6.197   8.395  16.986  0.00  0.00    +0.000 OA
ATOM      9  N   UNL     1       7.612   6.667  17.588  0.00  0.00    +0.000 N 
ATOM     10  H   UNL     1       8.407   6.424  18.169  0.00  0.00    +0.000 HD
BRANCH   7  17
ATOM     11  C   UNL     1      10.016  14.606  18.927  0.00  0.00    +0.000 C 
ATOM     12  C   UNL     1       9.875  13.119  19.031  0.00  0.00    +0.000 A 
ATOM     13  C   UNL     1      10.347  12.424  20.154  0.00  0.00    +0.000 A 
ATOM     14  C   UNL     1      10.155  11.042  20.294  0.00  0.00    +0.000 A 
ATOM     15  C   UNL     1       9.435  10.347  19.303  0.00  0.00    +0.000 A 
ATOM     16  C   UNL     1       8.947   9.010  19.173  0.00  0.00    +0.000 A 
ATOM     17  C   UNL     1       8.162   8.962  18.036  0.00  0.00    +0.000 A 
ATOM     18  N   UNL     1       8.351  10.161  17.383  0.00  0.00    +0.000 N 
ATOM     19  C   UNL     1       9.013  11.052  18.180  0.00  0.00    +0.000 A 
ATOM     20  C   UNL     1       9.236  12.419  17.998  0.00  0.00    +0.000 A 
ATOM     21  H   UNL     1       7.916  10.379  16.496  0.00  0.00    +0.000 HD
ENDBRANCH   7  17
ENDBRANCH   1   9
BRANCH   3  22
ATOM     22  S   UNL     1       4.101   2.968  18.658  0.00  0.00    +0.000 S 
ATOM     23  O   UNL     1       3.514   1.904  17.866  0.00  0.00    +0.000 OA
ATOM     24  O   UNL     1       4.794   2.693  19.894  0.00  0.00    +0.000 OA
BRANCH  22  25
ATOM     25  N   UNL     1       2.872   4.108  18.981  0.00  0.00    +0.000 NA
ATOM     26  C   UNL     1       2.979   4.882  20.245  0.00  0.00    +0.000 C 
ATOM     27  C   UNL     1       1.980   4.223  21.174  0.00  0.00    +0.000 C 
ATOM     28  C   UNL     1       0.832   3.867  20.251  0.00  0.00    +0.000 C 
ATOM     29  C   UNL     1       1.479   3.591  18.898  0.00  0.00    +0.000 C 
ENDBRANCH  22  25
ENDBRANCH   3  22
BRANCH   6  30
ATOM     30  O   UNL     1       7.797   5.791  14.986  0.00  0.00    +0.000 OA
ATOM     31  H   UNL     1       7.533   5.599  14.069  0.00  0.00    +0.000 HD
ENDBRANCH   6  30
TORSDOF 5
ENDMDL
MODEL 9
REMARK VINA RESULT:      -8.2      4.748      7.472
REMARK  Name = 
REMARK  6 active torsions:
REMARK  status: ('A' for Active; 'I' for Inactive)
REMARK    1  A    between atoms: C_1  and  C_2
REMARK    2  A    between atoms: C_7  and  C_8
REMARK    3  A    between atoms: N_10  and  C_11
REMARK    4  A    between atoms: C_13  and  S_14
REMARK    5  A    between atoms: S_14  and  N_17
REMARK    6  A    between atoms: C_24  and  O_25
REMARK                            x       y       z     vdW  Elec       q    Type
REMARK                         _______ _______ _______ _____ _____    ______ ____
ROOT
ATOM      1  C   UNL     1       3.048   6.283  19.041  0.00  0.00    +0.000 A 
ATOM      2  C   UNL     1       3.847   6.290  17.901  0.00  0.00    +0.000 A 
ATOM      3  C   UNL     1       4.652   5.197  17.587  0.00  0.00    +0.000 A 
ATOM      4  C   UNL     1       4.700   4.089  18.436  0.00  0.00    +0.000 A 
ATOM      5  C   UNL     1       3.938   4.086  19.608  0.00  0.00    +0.000 A 
ATOM      6  C   UNL     1       3.116   5.182  19.901  0.00  0.00    +0.000 A 
ENDROOT
BRANCH   1   9
ATOM      7  C   UNL     1       1.960   8.463  18.557  0.00  0.00    +0.000 C 
ATOM      8  O   UNL     1       2.479   8.649  17.459  0.00  0.00    +0.000 OA
ATOM      9  N   UNL     1       2.176   7.356  19.353  0.00  0.00    +0.000 N 
ATOM     10  H   UNL     1       1.562   7.193  20.144  0.00  0.00    +0.000 HD
BRANCH   7  17
ATOM     11  C   UNL     1      -1.156  13.236  23.137  0.00  0.00    +0.000 C 
ATOM     12  C   UNL     1      -0.964  12.476  21.861  0.00  0.00    +0.000 A 
ATOM     13  C   UNL     1      -1.486  12.954  20.649  0.00  0.00    +0.000 A 
ATOM     14  C   UNL     1      -1.250  12.287  19.438  0.00  0.00    +0.000 A 
ATOM     15  C   UNL     1      -0.435  11.139  19.436  0.00  0.00    +0.000 A 
ATOM     16  C   UNL     1       0.114  10.302  18.415  0.00  0.00    +0.000 A 
ATOM     17  C   UNL     1       0.978   9.412  19.025  0.00  0.00    +0.000 A 
ATOM     18  N   UNL     1       0.787   9.555  20.384  0.00  0.00    +0.000 N 
ATOM     19  C   UNL     1       0.036  10.663  20.657  0.00  0.00    +0.000 A 
ATOM     20  C   UNL     1      -0.228  11.284  21.880  0.00  0.00    +0.000 A 
ATOM     21  H   UNL     1       1.274   8.993  21.069  0.00  0.00    +0.000 HD
ENDBRANCH   7  17
ENDBRANCH   1   9
BRANCH   3  22
ATOM     22  S   UNL     1       5.684   5.228  16.140  0.00  0.00    +0.000 S 
ATOM     23  O   UNL     1       5.707   3.860  15.659  0.00  0.00    +0.000 OA
ATOM     24  O   UNL     1       5.236   6.315  15.302  0.00  0.00    +0.000 OA
BRANCH  22  25
ATOM     25  N   UNL     1       7.252   5.603  16.703  0.00  0.00    +0.000 NA
ATOM     26  C   UNL     1       7.805   4.751  17.787  0.00  0.00    +0.000 C 
ATOM     27  C   UNL     1       7.651   5.590  19.038  0.00  0.00    +0.000 C 
ATOM     28  C   UNL     1       7.940   6.996  18.551  0.00  0.00    +0.000 C 
ATOM     29  C   UNL     1       7.469   7.020  17.101  0.00  0.00    +0.000 C 
ENDBRANCH  22  25
ENDBRANCH   3  22
BRANCH   6  30
ATOM     30  O   UNL     1       2.343   5.184  21.034  0.00  0.00    +0.000 OA
ATOM     31  H   UNL     1       2.647   5.908  21.611  0.00  0.00    +0.000 HD
ENDBRANCH   6  30
TORSDOF 5
ENDMDL
