MODEL 1
REMARK VINA RESULT:      -8.2      0.000      0.000
REMARK  Name = 
REMARK  5 active torsions:
REMARK  status: ('A' for Active; 'I' for Inactive)
REMARK    1  A    between atoms: C_2  and  C_18
REMARK    2  A    between atoms: N_3  and  C_4
REMARK    3  A    between atoms: C_4  and  C_5
REMARK    4  A    between atoms: C_5  and  N_6
REMARK    5  A    between atoms: C_7  and  C_9
REMARK                            x       y       z     vdW  Elec       q    Type
REMARK                         _______ _______ _______ _____ _____    ______ ____
ROOT
ATOM      1  C   UNL     1       6.114   7.090  18.079  0.00  0.00    +0.000 C 
ENDROOT
BRANCH   1   2
ATOM      2  N   UNL     1       5.173   5.992  18.028  0.00  0.00    +0.000 N 
ATOM      3  C   UNL     1       5.359   4.837  18.745  0.00  0.00    +0.000 C 
ATOM      4  O   UNL     1       6.337   4.654  19.462  0.00  0.00    +0.000 OA
ATOM      5  H   UNL     1       4.245   6.189  17.678  0.00  0.00    +0.000 HD
BRANCH   3   6
ATOM      6  C   UNL     1       4.293   3.885  18.652  0.00  0.00    +0.000 A 
ATOM      7  N   UNL     1       4.402   2.787  17.840  0.00  0.00    +0.000 N 
ATOM      8  N   UNL     1       3.376   1.920  17.908  0.00  0.00    +0.000 NA
ATOM      9  C   UNL     1       2.492   2.513  18.726  0.00  0.00    +0.000 A 
ATOM     10  C   UNL     1       1.215   2.083  19.124  0.00  0.00    +0.000 A 
ATOM     11  C   UNL     1       0.546   2.988  19.977  0.00  0.00    +0.000 A 
ATOM     12  C   UNL     1       1.103   4.232  20.399  0.00  0.00    +0.000 A 
ATOM     13  C   UNL     1       2.382   4.687  20.021  0.00  0.00    +0.000 A 
ATOM     14  C   UNL     1       3.034   3.768  19.194  0.00  0.00    +0.000 A 
ATOM     15  H   UNL     1       5.188   2.562  17.236  0.00  0.00    +0.000 HD
ENDBRANCH   3   6
ENDBRANCH   1   2
BRANCH   1  16
ATOM     16  C   UNL     1       7.394   6.821  17.275  0.00  0.00    +0.000 C 
BRANCH  16  19
ATOM     17  O   UNL     1       7.803   4.209  16.326  0.00  0.00    +0.000 OA
ATOM     18  C   UNL     1       7.366   5.054  15.552  0.00  0.00    +0.000 C 
ATOM     19  N   UNL     1       7.130   6.354  15.930  0.00  0.00    +0.000 N 
ATOM     20  H   UNL     1       6.826   7.037  15.243  0.00  0.00    +0.000 HD
BRANCH  18  21
ATOM     21  C   UNL     1       7.049   4.676  14.151  0.00  0.00    +0.000 A 
ATOM     22  C   UNL     1       5.901   3.904  13.927  0.00  0.00    +0.000 A 
ATOM     23  C   UNL     1       5.554   3.547  12.628  0.00  0.00    +0.000 A 
ATOM     24  F   UNL     1       4.452   2.817  12.420  0.00  0.00    +0.000 F 
ATOM     25  C   UNL     1       6.330   3.939  11.544  0.00  0.00    +0.000 A 
ATOM     26  C   UNL     1       7.475   4.702  11.759  0.00  0.00    +0.000 A 
ATOM     27  C   UNL     1       7.828   5.068  13.058  0.00  0.00    +0.000 A 
ATOM     28  F   UNL     1       8.935   5.806  13.223  0.00  0.00    +0.000 F 
ENDBRANCH  18  21
ENDBRANCH  16  19
ENDBRANCH   1  16
TORSDOF 5
ENDMDL
MODEL 2
REMARK VINA RESULT:      -8.2      1.804      2.293
REMARK  Name = 
REMARK  5 active torsions:
REMARK  status: ('A' for Active; 'I' for Inactive)
REMARK    1  A    between atoms: C_2  and  C_18
REMARK    2  A    between atoms: N_3  and  C_4
REMARK    3  A    between atoms: C_4  and  C_5
REMARK    4  A    between atoms: C_5  and  N_6
REMARK    5  A    between atoms: C_7  and  C_9
REMARK                            x       y       z     vdW  Elec       q    Type
REMARK                         _______ _______ _______ _____ _____    ______ ____
ROOT
ATOM      1  C   UNL     1       6.964   5.656  19.150  0.00  0.00    +0.000 C 
ENDROOT
BRANCH   1   2
ATOM      2  N   UNL     1       5.635   5.083  19.196  0.00  0.00    +0.000 N 
ATOM      3  C   UNL     1       4.575   5.644  18.530  0.00  0.00    +0.000 C 
ATOM      4  O   UNL     1       4.678   6.670  17.866  0.00  0.00    +0.000 OA
ATOM      5  H   UNL     1       5.553   4.120  19.495  0.00  0.00    +0.000 HD
BRANCH   3   6
ATOM      6  C   UNL     1       3.349   4.906  18.607  0.00  0.00    +0.000 A 
ATOM      7  N   UNL     1       2.534   4.784  17.513  0.00  0.00    +0.000 N 
ATOM      8  N   UNL     1       1.461   3.992  17.683  0.00  0.00    +0.000 NA
ATOM      9  C   UNL     1       1.503   3.648  18.981  0.00  0.00    +0.000 A 
ATOM     10  C   UNL     1       0.606   2.865  19.727  0.00  0.00    +0.000 A 
ATOM     11  C   UNL     1       0.954   2.738  21.090  0.00  0.00    +0.000 A 
ATOM     12  C   UNL     1       2.105   3.349  21.670  0.00  0.00    +0.000 A 
ATOM     13  C   UNL     1       3.026   4.133  20.945  0.00  0.00    +0.000 A 
ATOM     14  C   UNL     1       2.673   4.230  19.597  0.00  0.00    +0.000 A 
ATOM     15  H   UNL     1       2.689   5.201  16.599  0.00  0.00    +0.000 HD
ENDBRANCH   3   6
ENDBRANCH   1   2
BRANCH   1  16
ATOM     16  C   UNL     1       7.956   4.804  18.348  0.00  0.00    +0.000 C 
BRANCH  16  19
ATOM     17  O   UNL     1       7.569   6.446  16.102  0.00  0.00    +0.000 OA
ATOM     18  C   UNL     1       7.272   5.259  16.020  0.00  0.00    +0.000 C 
ATOM     19  N   UNL     1       7.432   4.381  17.065  0.00  0.00    +0.000 N 
ATOM     20  H   UNL     1       7.118   3.420  16.976  0.00  0.00    +0.000 HD
BRANCH  18  21
ATOM     21  C   UNL     1       6.739   4.719  14.743  0.00  0.00    +0.000 A 
ATOM     22  C   UNL     1       7.499   4.916  13.582  0.00  0.00    +0.000 A 
ATOM     23  C   UNL     1       7.047   4.407  12.370  0.00  0.00    +0.000 A 
ATOM     24  F   UNL     1       7.782   4.592  11.265  0.00  0.00    +0.000 F 
ATOM     25  C   UNL     1       5.850   3.707  12.285  0.00  0.00    +0.000 A 
ATOM     26  C   UNL     1       5.086   3.512  13.433  0.00  0.00    +0.000 A 
ATOM     27  C   UNL     1       5.534   4.016  14.655  0.00  0.00    +0.000 A 
ATOM     28  F   UNL     1       4.772   3.803  15.737  0.00  0.00    +0.000 F 
ENDBRANCH  18  21
ENDBRANCH  16  19
ENDBRANCH   1  16
TORSDOF 5
ENDMDL
MODEL 3
REMARK VINA RESULT:      -8.1      4.961      9.023
REMARK  Name = 
REMARK  5 active torsions:
REMARK  status: ('A' for Active; 'I' for Inactive)
REMARK    1  A    between atoms: C_2  and  C_18
REMARK    2  A    between atoms: N_3  and  C_4
REMARK    3  A    between atoms: C_4  and  C_5
REMARK    4  A    between atoms: C_5  and  N_6
REMARK    5  A    between atoms: C_7  and  C_9
REMARK                            x       y       z     vdW  Elec       q    Type
REMARK                         _______ _______ _______ _____ _____    ______ ____
ROOT
ATOM      1  C   UNL     1       7.782   6.956  18.157  0.00  0.00    +0.000 C 
ENDROOT
BRANCH   1   2
ATOM      2  N   UNL     1       8.562   8.014  18.763  0.00  0.00    +0.000 N 
ATOM      3  C   UNL     1       8.460   9.321  18.358  0.00  0.00    +0.000 C 
ATOM      4  O   UNL     1       7.713   9.676  17.452  0.00  0.00    +0.000 OA
ATOM      5  H   UNL     1       8.978   7.827  19.666  0.00  0.00    +0.000 HD
BRANCH   3   6
ATOM      6  C   UNL     1       9.236  10.255  19.118  0.00  0.00    +0.000 A 
ATOM      7  N   UNL     1       9.043  10.394  20.467  0.00  0.00    +0.000 N 
ATOM      8  N   UNL     1       9.892  11.234  21.084  0.00  0.00    +0.000 NA
ATOM      9  C   UNL     1      10.624  11.759  20.088  0.00  0.00    +0.000 A 
ATOM     10  C   UNL     1      11.637  12.731  20.141  0.00  0.00    +0.000 A 
ATOM     11  C   UNL     1      12.170  13.072  18.878  0.00  0.00    +0.000 A 
ATOM     12  C   UNL     1      11.724  12.494  17.653  0.00  0.00    +0.000 A 
ATOM     13  C   UNL     1      10.714  11.514  17.569  0.00  0.00    +0.000 A 
ATOM     14  C   UNL     1      10.215  11.178  18.831  0.00  0.00    +0.000 A 
ATOM     15  H   UNL     1       8.354   9.900  21.029  0.00  0.00    +0.000 HD
ENDBRANCH   3   6
ENDBRANCH   1   2
BRANCH   1  16
ATOM     16  C   UNL     1       7.798   5.656  18.973  0.00  0.00    +0.000 C 
BRANCH  16  19
ATOM     17  O   UNL     1       5.744   4.226  17.698  0.00  0.00    +0.000 OA
ATOM     18  C   UNL     1       5.558   4.628  18.842  0.00  0.00    +0.000 C 
ATOM     19  N   UNL     1       6.508   5.330  19.545  0.00  0.00    +0.000 N 
ATOM     20  H   UNL     1       6.293   5.697  20.466  0.00  0.00    +0.000 HD
BRANCH  18  21
ATOM     21  C   UNL     1       4.274   4.334  19.527  0.00  0.00    +0.000 A 
ATOM     22  C   UNL     1       3.428   5.412  19.821  0.00  0.00    +0.000 A 
ATOM     23  C   UNL     1       2.205   5.179  20.441  0.00  0.00    +0.000 A 
ATOM     24  F   UNL     1       1.398   6.213  20.711  0.00  0.00    +0.000 F 
ATOM     25  C   UNL     1       1.805   3.892  20.779  0.00  0.00    +0.000 A 
ATOM     26  C   UNL     1       2.642   2.816  20.495  0.00  0.00    +0.000 A 
ATOM     27  C   UNL     1       3.869   3.041  19.870  0.00  0.00    +0.000 A 
ATOM     28  F   UNL     1       4.643   1.978  19.609  0.00  0.00    +0.000 F 
ENDBRANCH  18  21
ENDBRANCH  16  19
ENDBRANCH   1  16
TORSDOF 5
ENDMDL
MODEL 4
REMARK VINA RESULT:      -8.1      1.648      2.025
REMARK  Name = 
REMARK  5 active torsions:
REMARK  status: ('A' for Active; 'I' for Inactive)
REMARK    1  A    between atoms: C_2  and  C_18
REMARK    2  A    between atoms: N_3  and  C_4
REMARK    3  A    between atoms: C_4  and  C_5
REMARK    4  A    between atoms: C_5  and  N_6
REMARK    5  A    between atoms: C_7  and  C_9
REMARK                            x       y       z     vdW  Elec       q    Type
REMARK                         _______ _______ _______ _____ _____    ______ ____
ROOT
ATOM      1  C   UNL     1       7.157   5.727  18.634  0.00  0.00    +0.000 C 
ENDROOT
BRANCH   1   2
ATOM      2  N   UNL     1       5.860   5.356  19.158  0.00  0.00    +0.000 N 
ATOM      3  C   UNL     1       4.690   5.791  18.586  0.00  0.00    +0.000 C 
ATOM      4  O   UNL     1       4.667   6.529  17.607  0.00  0.00    +0.000 OA
ATOM      5  H   UNL     1       5.818   4.557  19.777  0.00  0.00    +0.000 HD
BRANCH   3   6
ATOM      6  C   UNL     1       3.494   5.263  19.173  0.00  0.00    +0.000 A 
ATOM      7  N   UNL     1       2.894   5.895  20.230  0.00  0.00    +0.000 N 
ATOM      8  N   UNL     1       1.729   5.356  20.632  0.00  0.00    +0.000 NA
ATOM      9  C   UNL     1       1.593   4.254  19.877  0.00  0.00    +0.000 A 
ATOM     10  C   UNL     1       0.582   3.278  19.896  0.00  0.00    +0.000 A 
ATOM     11  C   UNL     1       0.783   2.228  18.972  0.00  0.00    +0.000 A 
ATOM     12  C   UNL     1       1.908   2.151  18.099  0.00  0.00    +0.000 A 
ATOM     13  C   UNL     1       2.934   3.117  18.054  0.00  0.00    +0.000 A 
ATOM     14  C   UNL     1       2.706   4.156  18.961  0.00  0.00    +0.000 A 
ATOM     15  H   UNL     1       3.228   6.734  20.696  0.00  0.00    +0.000 HD
ENDBRANCH   3   6
ENDBRANCH   1   2
BRANCH   1  16
ATOM     16  C   UNL     1       7.930   4.536  18.051  0.00  0.00    +0.000 C 
BRANCH  16  19
ATOM     17  O   UNL     1       7.563   6.414  15.994  0.00  0.00    +0.000 OA
ATOM     18  C   UNL     1       7.398   5.225  15.741  0.00  0.00    +0.000 C 
ATOM     19  N   UNL     1       7.562   4.237  16.682  0.00  0.00    +0.000 N 
ATOM     20  H   UNL     1       7.357   3.271  16.448  0.00  0.00    +0.000 HD
BRANCH  18  21
ATOM     21  C   UNL     1       7.033   4.809  14.363  0.00  0.00    +0.000 A 
ATOM     22  C   UNL     1       5.834   4.104  14.189  0.00  0.00    +0.000 A 
ATOM     23  C   UNL     1       5.443   3.716  12.913  0.00  0.00    +0.000 A 
ATOM     24  F   UNL     1       4.292   3.049  12.752  0.00  0.00    +0.000 F 
ATOM     25  C   UNL     1       6.223   4.010  11.801  0.00  0.00    +0.000 A 
ATOM     26  C   UNL     1       7.418   4.706  11.966  0.00  0.00    +0.000 A 
ATOM     27  C   UNL     1       7.816   5.103  13.243  0.00  0.00    +0.000 A 
ATOM     28  F   UNL     1       8.970   5.774  13.359  0.00  0.00    +0.000 F 
ENDBRANCH  18  21
ENDBRANCH  16  19
ENDBRANCH   1  16
TORSDOF 5
ENDMDL
MODEL 5
REMARK VINA RESULT:      -8.1      1.338      1.379
REMARK  Name = 
REMARK  5 active torsions:
REMARK  status: ('A' for Active; 'I' for Inactive)
REMARK    1  A    between atoms: C_2  and  C_18
REMARK    2  A    between atoms: N_3  and  C_4
REMARK    3  A    between atoms: C_4  and  C_5
REMARK    4  A    between atoms: C_5  and  N_6
REMARK    5  A    between atoms: C_7  and  C_9
REMARK                            x       y       z     vdW  Elec       q    Type
REMARK                         _______ _______ _______ _____ _____    ______ ____
ROOT
ATOM      1  C   UNL     1       7.813   5.486  18.443  0.00  0.00    +0.000 C 
ENDROOT
BRANCH   1   2
ATOM      2  N   UNL     1       6.789   4.494  18.692  0.00  0.00    +0.000 N 
ATOM      3  C   UNL     1       5.536   4.832  19.136  0.00  0.00    +0.000 C 
ATOM      4  O   UNL     1       5.205   5.991  19.362  0.00  0.00    +0.000 OA
ATOM      5  H   UNL     1       6.916   3.580  18.277  0.00  0.00    +0.000 HD
BRANCH   3   6
ATOM      6  C   UNL     1       4.616   3.740  19.249  0.00  0.00    +0.000 A 
ATOM      7  N   UNL     1       5.018   2.533  19.758  0.00  0.00    +0.000 N 
ATOM      8  N   UNL     1       4.044   1.618  19.900  0.00  0.00    +0.000 NA
ATOM      9  C   UNL     1       2.957   2.201  19.368  0.00  0.00    +0.000 A 
ATOM     10  C   UNL     1       1.659   1.690  19.204  0.00  0.00    +0.000 A 
ATOM     11  C   UNL     1       0.769   2.583  18.567  0.00  0.00    +0.000 A 
ATOM     12  C   UNL     1       1.143   3.885  18.121  0.00  0.00    +0.000 A 
ATOM     13  C   UNL     1       2.435   4.427  18.277  0.00  0.00    +0.000 A 
ATOM     14  C   UNL     1       3.294   3.535  18.926  0.00  0.00    +0.000 A 
ATOM     15  H   UNL     1       5.958   2.294  20.063  0.00  0.00    +0.000 HD
ENDBRANCH   3   6
ENDBRANCH   1   2
BRANCH   1  16
ATOM     16  C   UNL     1       7.455   6.440  17.295  0.00  0.00    +0.000 C 
BRANCH  16  19
ATOM     17  O   UNL     1       5.255   5.567  15.782  0.00  0.00    +0.000 OA
ATOM     18  C   UNL     1       6.383   5.407  15.327  0.00  0.00    +0.000 C 
ATOM     19  N   UNL     1       7.516   5.807  15.993  0.00  0.00    +0.000 N 
ATOM     20  H   UNL     1       8.432   5.602  15.609  0.00  0.00    +0.000 HD
BRANCH  18  21
ATOM     21  C   UNL     1       6.555   4.780  13.991  0.00  0.00    +0.000 A 
ATOM     22  C   UNL     1       5.596   3.845  13.579  0.00  0.00    +0.000 A 
ATOM     23  C   UNL     1       5.707   3.251  12.326  0.00  0.00    +0.000 A 
ATOM     24  F   UNL     1       4.783   2.365  11.935  0.00  0.00    +0.000 F 
ATOM     25  C   UNL     1       6.758   3.565  11.473  0.00  0.00    +0.000 A 
ATOM     26  C   UNL     1       7.718   4.490  11.877  0.00  0.00    +0.000 A 
ATOM     27  C   UNL     1       7.612   5.093  13.131  0.00  0.00    +0.000 A 
ATOM     28  F   UNL     1       8.553   5.980  13.481  0.00  0.00    +0.000 F 
ENDBRANCH  18  21
ENDBRANCH  16  19
ENDBRANCH   1  16
TORSDOF 5
ENDMDL
MODEL 6
REMARK VINA RESULT:      -8.0      0.896      1.680
REMARK  Name = 
REMARK  5 active torsions:
REMARK  status: ('A' for Active; 'I' for Inactive)
REMARK    1  A    between atoms: C_2  and  C_18
REMARK    2  A    between atoms: N_3  and  C_4
REMARK    3  A    between atoms: C_4  and  C_5
REMARK    4  A    between atoms: C_5  and  N_6
REMARK    5  A    between atoms: C_7  and  C_9
REMARK                            x       y       z     vdW  Elec       q    Type
REMARK                         _______ _______ _______ _____ _____    ______ ____
ROOT
ATOM      1  C   UNL     1       6.353   7.252  18.209  0.00  0.00    +0.000 C 
ENDROOT
BRANCH   1   2
ATOM      2  N   UNL     1       5.444   6.127  18.226  0.00  0.00    +0.000 N 
ATOM      3  C   UNL     1       5.602   5.073  19.089  0.00  0.00    +0.000 C 
ATOM      4  O   UNL     1       6.528   5.008  19.891  0.00  0.00    +0.000 OA
ATOM      5  H   UNL     1       4.540   6.252  17.789  0.00  0.00    +0.000 HD
BRANCH   3   6
ATOM      6  C   UNL     1       4.567   4.083  19.038  0.00  0.00    +0.000 A 
ATOM      7  N   UNL     1       4.748   2.915  18.344  0.00  0.00    +0.000 N 
ATOM      8  N   UNL     1       3.743   2.028  18.446  0.00  0.00    +0.000 NA
ATOM      9  C   UNL     1       2.802   2.670  19.157  0.00  0.00    +0.000 A 
ATOM     10  C   UNL     1       1.517   2.240  19.532  0.00  0.00    +0.000 A 
ATOM     11  C   UNL     1       0.781   3.202  20.257  0.00  0.00    +0.000 A 
ATOM     12  C   UNL     1       1.282   4.498  20.582  0.00  0.00    +0.000 A 
ATOM     13  C   UNL     1       2.567   4.954  20.225  0.00  0.00    +0.000 A 
ATOM     14  C   UNL     1       3.285   3.980  19.525  0.00  0.00    +0.000 A 
ATOM     15  H   UNL     1       5.570   2.658  17.806  0.00  0.00    +0.000 HD
ENDBRANCH   3   6
ENDBRANCH   1   2
BRANCH   1  16
ATOM     16  C   UNL     1       7.580   7.018  17.318  0.00  0.00    +0.000 C 
BRANCH  16  19
ATOM     17  O   UNL     1       7.850   4.321  16.579  0.00  0.00    +0.000 OA
ATOM     18  C   UNL     1       7.414   5.117  15.753  0.00  0.00    +0.000 C 
ATOM     19  N   UNL     1       7.244   6.452  16.028  0.00  0.00    +0.000 N 
ATOM     20  H   UNL     1       6.938   7.088  15.297  0.00  0.00    +0.000 HD
BRANCH  18  21
ATOM     21  C   UNL     1       7.025   4.636  14.403  0.00  0.00    +0.000 A 
ATOM     22  C   UNL     1       7.588   5.279  13.292  0.00  0.00    +0.000 A 
ATOM     23  C   UNL     1       7.268   4.846  12.010  0.00  0.00    +0.000 A 
ATOM     24  F   UNL     1       7.816   5.459  10.953  0.00  0.00    +0.000 F 
ATOM     25  C   UNL     1       6.393   3.786  11.808  0.00  0.00    +0.000 A 
ATOM     26  C   UNL     1       5.825   3.145  12.906  0.00  0.00    +0.000 A 
ATOM     27  C   UNL     1       6.143   3.571  14.195  0.00  0.00    +0.000 A 
ATOM     28  F   UNL     1       5.579   2.925  15.226  0.00  0.00    +0.000 F 
ENDBRANCH  18  21
ENDBRANCH  16  19
ENDBRANCH   1  16
TORSDOF 5
ENDMDL
MODEL 7
REMARK VINA RESULT:      -7.9      4.932      6.895
REMARK  Name = 
REMARK  5 active torsions:
REMARK  status: ('A' for Active; 'I' for Inactive)
REMARK    1  A    between atoms: C_2  and  C_18
REMARK    2  A    between atoms: N_3  and  C_4
REMARK    3  A    between atoms: C_4  and  C_5
REMARK    4  A    between atoms: C_5  and  N_6
REMARK    5  A    between atoms: C_7  and  C_9
REMARK                            x       y       z     vdW  Elec       q    Type
REMARK                         _______ _______ _______ _____ _____    ______ ____
ROOT
ATOM      1  C   UNL     1       7.609   7.749  17.357  0.00  0.00    +0.000 C 
ENDROOT
BRANCH   1   2
ATOM      2  N   UNL     1       6.626   6.824  17.878  0.00  0.00    +0.000 N 
ATOM      3  C   UNL     1       6.592   5.505  17.501  0.00  0.00    +0.000 C 
ATOM      4  O   UNL     1       7.379   5.029  16.690  0.00  0.00    +0.000 OA
ATOM      5  H   UNL     1       6.141   7.088  18.726  0.00  0.00    +0.000 HD
BRANCH   3   6
ATOM      6  C   UNL     1       5.614   4.705  18.175  0.00  0.00    +0.000 A 
ATOM      7  N   UNL     1       5.990   3.623  18.928  0.00  0.00    +0.000 N 
ATOM      8  N   UNL     1       4.992   3.007  19.585  0.00  0.00    +0.000 NA
ATOM      9  C   UNL     1       3.882   3.642  19.175  0.00  0.00    +0.000 A 
ATOM     10  C   UNL     1       2.538   3.393  19.502  0.00  0.00    +0.000 A 
ATOM     11  C   UNL     1       1.622   4.248  18.851  0.00  0.00    +0.000 A 
ATOM     12  C   UNL     1       2.012   5.272  17.938  0.00  0.00    +0.000 A 
ATOM     13  C   UNL     1       3.351   5.549  17.595  0.00  0.00    +0.000 A 
ATOM     14  C   UNL     1       4.241   4.705  18.265  0.00  0.00    +0.000 A 
ATOM     15  H   UNL     1       6.939   3.282  19.055  0.00  0.00    +0.000 HD
ENDBRANCH   3   6
ENDBRANCH   1   2
BRANCH   1  16
ATOM     16  C   UNL     1       8.378   8.491  18.458  0.00  0.00    +0.000 C 
BRANCH  16  19
ATOM     17  O   UNL     1       9.487  10.443  20.147  0.00  0.00    +0.000 OA
ATOM     18  C   UNL     1       9.322  10.716  18.962  0.00  0.00    +0.000 C 
ATOM     19  N   UNL     1       8.792   9.822  18.063  0.00  0.00    +0.000 N 
ATOM     20  H   UNL     1       8.615  10.107  17.105  0.00  0.00    +0.000 HD
BRANCH  18  21
ATOM     21  C   UNL     1       9.726  12.049  18.450  0.00  0.00    +0.000 A 
ATOM     22  C   UNL     1       8.803  13.099  18.557  0.00  0.00    +0.000 A 
ATOM     23  C   UNL     1       9.149  14.369  18.110  0.00  0.00    +0.000 A 
ATOM     24  F   UNL     1       8.265  15.369  18.222  0.00  0.00    +0.000 F 
ATOM     25  C   UNL     1      10.398  14.619  17.553  0.00  0.00    +0.000 A 
ATOM     26  C   UNL     1      11.319  13.581  17.439  0.00  0.00    +0.000 A 
ATOM     27  C   UNL     1      10.981  12.304  17.888  0.00  0.00    +0.000 A 
ATOM     28  F   UNL     1      11.897  11.333  17.764  0.00  0.00    +0.000 F 
ENDBRANCH  18  21
ENDBRANCH  16  19
ENDBRANCH   1  16
TORSDOF 5
ENDMDL
MODEL 8
REMARK VINA RESULT:      -7.8      6.356      8.324
REMARK  Name = 
REMARK  5 active torsions:
REMARK  status: ('A' for Active; 'I' for Inactive)
REMARK    1  A    between atoms: C_2  and  C_18
REMARK    2  A    between atoms: N_3  and  C_4
REMARK    3  A    between atoms: C_4  and  C_5
REMARK    4  A    between atoms: C_5  and  N_6
REMARK    5  A    between atoms: C_7  and  C_9
REMARK                            x       y       z     vdW  Elec       q    Type
REMARK                         _______ _______ _______ _____ _____    ______ ____
ROOT
ATOM      1  C   UNL     1       2.505   8.839  17.649  0.00  0.00    +0.000 C 
ENDROOT
BRANCH   1   2
ATOM      2  N   UNL     1       2.734   7.481  18.095  0.00  0.00    +0.000 N 
ATOM      3  C   UNL     1       3.820   6.751  17.684  0.00  0.00    +0.000 C 
ATOM      4  O   UNL     1       4.657   7.193  16.904  0.00  0.00    +0.000 OA
ATOM      5  H   UNL     1       2.239   7.173  18.922  0.00  0.00    +0.000 HD
BRANCH   3   6
ATOM      6  C   UNL     1       3.946   5.457  18.286  0.00  0.00    +0.000 A 
ATOM      7  N   UNL     1       5.138   5.045  18.820  0.00  0.00    +0.000 N 
ATOM      8  N   UNL     1       5.107   3.851  19.437  0.00  0.00    +0.000 NA
ATOM      9  C   UNL     1       3.863   3.395  19.219  0.00  0.00    +0.000 A 
ATOM     10  C   UNL     1       3.280   2.173  19.596  0.00  0.00    +0.000 A 
ATOM     11  C   UNL     1       1.945   2.017  19.163  0.00  0.00    +0.000 A 
ATOM     12  C   UNL     1       1.243   3.001  18.405  0.00  0.00    +0.000 A 
ATOM     13  C   UNL     1       1.799   4.237  18.017  0.00  0.00    +0.000 A 
ATOM     14  C   UNL     1       3.113   4.379  18.472  0.00  0.00    +0.000 A 
ATOM     15  H   UNL     1       6.009   5.570  18.821  0.00  0.00    +0.000 HD
ENDBRANCH   3   6
ENDBRANCH   1   2
BRANCH   1  16
ATOM     16  C   UNL     1       1.564   9.623  18.575  0.00  0.00    +0.000 C 
BRANCH  16  19
ATOM     17  O   UNL     1      -0.906   9.990  19.862  0.00  0.00    +0.000 OA
ATOM     18  C   UNL     1      -0.847  10.146  18.646  0.00  0.00    +0.000 C 
ATOM     19  N   UNL     1       0.319   9.994  17.935  0.00  0.00    +0.000 N 
ATOM     20  H   UNL     1       0.312  10.073  16.923  0.00  0.00    +0.000 HD
BRANCH  18  21
ATOM     21  C   UNL     1      -2.065  10.541  17.895  0.00  0.00    +0.000 A 
ATOM     22  C   UNL     1      -2.257   9.987  16.622  0.00  0.00    +0.000 A 
ATOM     23  C   UNL     1      -3.396  10.313  15.894  0.00  0.00    +0.000 A 
ATOM     24  F   UNL     1      -3.578   9.774  14.682  0.00  0.00    +0.000 F 
ATOM     25  C   UNL     1      -4.351  11.185  16.405  0.00  0.00    +0.000 A 
ATOM     26  C   UNL     1      -4.165  11.743  17.667  0.00  0.00    +0.000 A 
ATOM     27  C   UNL     1      -3.026  11.419  18.405  0.00  0.00    +0.000 A 
ATOM     28  F   UNL     1      -2.887  11.974  19.617  0.00  0.00    +0.000 F 
ENDBRANCH  18  21
ENDBRANCH  16  19
ENDBRANCH   1  16
TORSDOF 5
ENDMDL
MODEL 9
REMARK VINA RESULT:      -7.7      3.615      7.104
REMARK  Name = 
REMARK  5 active torsions:
REMARK  status: ('A' for Active; 'I' for Inactive)
REMARK    1  A    between atoms: C_2  and  C_18
REMARK    2  A    between atoms: N_3  and  C_4
REMARK    3  A    between atoms: C_4  and  C_5
REMARK    4  A    between atoms: C_5  and  N_6
REMARK    5  A    between atoms: C_7  and  C_9
REMARK                            x       y       z     vdW  Elec       q    Type
REMARK                         _______ _______ _______ _____ _____    ______ ____
ROOT
ATOM      1  C   UNL     1       2.115   2.058  19.818  0.00  0.00    +0.000 C 
ENDROOT
BRANCH   1   2
ATOM      2  N   UNL     1       2.957   2.816  18.918  0.00  0.00    +0.000 N 
ATOM      3  C   UNL     1       4.310   2.940  19.113  0.00  0.00    +0.000 C 
ATOM      4  O   UNL     1       4.890   2.431  20.066  0.00  0.00    +0.000 OA
ATOM      5  H   UNL     1       2.589   3.023  17.999  0.00  0.00    +0.000 HD
BRANCH   3   6
ATOM      6  C   UNL     1       5.010   3.650  18.085  0.00  0.00    +0.000 A 
ATOM      7  N   UNL     1       4.875   3.292  16.769  0.00  0.00    +0.000 N 
ATOM      8  N   UNL     1       5.509   4.090  15.891  0.00  0.00    +0.000 NA
ATOM      9  C   UNL     1       6.181   4.963  16.658  0.00  0.00    +0.000 A 
ATOM     10  C   UNL     1       7.050   6.001  16.279  0.00  0.00    +0.000 A 
ATOM     11  C   UNL     1       7.611   6.703  17.368  0.00  0.00    +0.000 A 
ATOM     12  C   UNL     1       7.334   6.394  18.733  0.00  0.00    +0.000 A 
ATOM     13  C   UNL     1       6.463   5.364  19.143  0.00  0.00    +0.000 A 
ATOM     14  C   UNL     1       5.905   4.695  18.051  0.00  0.00    +0.000 A 
ATOM     15  H   UNL     1       4.322   2.518  16.411  0.00  0.00    +0.000 HD
ENDBRANCH   3   6
ENDBRANCH   1   2
BRANCH   1  16
ATOM     16  C   UNL     1       1.008   2.904  20.460  0.00  0.00    +0.000 C 
BRANCH  16  19
ATOM     17  O   UNL     1       2.666   4.945  21.448  0.00  0.00    +0.000 OA
ATOM     18  C   UNL     1       1.864   5.217  20.560  0.00  0.00    +0.000 C 
ATOM     19  N   UNL     1       1.018   4.282  20.014  0.00  0.00    +0.000 N 
ATOM     20  H   UNL     1       0.328   4.562  19.324  0.00  0.00    +0.000 HD
BRANCH  18  21
ATOM     21  C   UNL     1       1.804   6.599  20.021  0.00  0.00    +0.000 A 
ATOM     22  C   UNL     1       1.258   7.598  20.840  0.00  0.00    +0.000 A 
ATOM     23  C   UNL     1       1.203   8.910  20.382  0.00  0.00    +0.000 A 
ATOM     24  F   UNL     1       0.688   9.860  21.172  0.00  0.00    +0.000 F 
ATOM     25  C   UNL     1       1.677   9.251  19.121  0.00  0.00    +0.000 A 
ATOM     26  C   UNL     1       2.216   8.264  18.300  0.00  0.00    +0.000 A 
ATOM     27  C   UNL     1       2.278   6.946  18.752  0.00  0.00    +0.000 A 
ATOM     28  F   UNL     1       2.808   6.027  17.934  0.00  0.00    +0.000 F 
ENDBRANCH  18  21
ENDBRANCH  16  19
ENDBRANCH   1  16
TORSDOF 5
ENDMDL
