MODEL 1
REMARK VINA RESULT:      -8.6      0.000      0.000
REMARK  Name = 
REMARK  5 active torsions:
REMARK  status: ('A' for Active; 'I' for Inactive)
REMARK    1  A    between atoms: C_8  and  S_9
REMARK    2  A    between atoms: S_9  and  N_12
REMARK    3  A    between atoms: N_12  and  C_13
REMARK    4  A    between atoms: C_13  and  C_14
REMARK    5  A    between atoms: C_14  and  C_15
REMARK                            x       y       z     vdW  Elec       q    Type
REMARK                         _______ _______ _______ _____ _____    ______ ____
ROOT
ATOM      1  S   UNL     1       2.733   4.307  18.957  0.00  0.00    +0.000 S 
ATOM      2  O   UNL     1       2.805   3.847  20.333  0.00  0.00    +0.000 OA
ATOM      3  O   UNL     1       1.834   3.689  18.011  0.00  0.00    +0.000 OA
ENDROOT
BRANCH   1  11
ATOM      4  O   UNL     1      -0.382  11.597  18.965  0.00  0.00    +0.000 OA
ATOM      5  C   UNL     1       0.133  10.661  19.592  0.00  0.00    +0.000 C 
ATOM      6  C   UNL     1      -0.381  10.352  20.979  0.00  0.00    +0.000 C 
ATOM      7  C   UNL     1      -0.249   8.949  21.530  0.00  0.00    +0.000 C 
ATOM      8  C   UNL     1       1.203   8.533  21.620  0.00  0.00    +0.000 C 
ATOM      9  C   UNL     1       1.641   7.976  20.300  0.00  0.00    +0.000 A 
ATOM     10  C   UNL     1       1.997   6.616  20.234  0.00  0.00    +0.000 A 
ATOM     11  C   UNL     1       2.433   6.052  19.032  0.00  0.00    +0.000 A 
ATOM     12  C   UNL     1       2.572   6.841  17.897  0.00  0.00    +0.000 A 
ATOM     13  C   UNL     1       2.240   8.195  17.965  0.00  0.00    +0.000 A 
ATOM     14  C   UNL     1       1.704   8.752  19.139  0.00  0.00    +0.000 A 
ATOM     15  N   UNL     1       1.190  10.052  18.997  0.00  0.00    +0.000 N 
ATOM     16  H   UNL     1       1.359  10.489  18.097  0.00  0.00    +0.000 HD
ENDBRANCH   1  11
BRANCH   1  17
ATOM     17  N   UNL     1       4.306   4.193  18.374  0.00  0.00    +0.000 NA
ATOM     18  H   UNL     1       4.914   3.825  19.105  0.00  0.00    +0.000 HD
BRANCH  17  19
ATOM     19  C   UNL     1       4.553   3.699  17.014  0.00  0.00    +0.000 C 
BRANCH  19  20
ATOM     20  C   UNL     1       5.624   4.454  16.253  0.00  0.00    +0.000 C 
ATOM     21  C   UNL     1       5.282   4.834  14.817  0.00  0.00    +0.000 C 
ATOM     22  C   UNL     1       6.298   3.771  15.059  0.00  0.00    +0.000 C 
BRANCH  20  23
ATOM     23  C   UNL     1       6.612   5.292  17.073  0.00  0.00    +0.000 A 
ATOM     24  C   UNL     1       6.822   6.645  16.795  0.00  0.00    +0.000 A 
ATOM     25  C   UNL     1       7.586   7.427  17.661  0.00  0.00    +0.000 A 
ATOM     26  C   UNL     1       8.144   6.842  18.787  0.00  0.00    +0.000 A 
ATOM     27  C   UNL     1       7.923   5.496  18.990  0.00  0.00    +0.000 A 
ATOM     28  N   UNL     1       7.172   4.727  18.173  0.00  0.00    +0.000 NA
ENDBRANCH  20  23
ENDBRANCH  19  20
ENDBRANCH  17  19
ENDBRANCH   1  17
TORSDOF 5
ENDMDL
MODEL 2
REMARK VINA RESULT:      -8.5      0.787      1.082
REMARK  Name = 
REMARK  5 active torsions:
REMARK  status: ('A' for Active; 'I' for Inactive)
REMARK    1  A    between atoms: C_8  and  S_9
REMARK    2  A    between atoms: S_9  and  N_12
REMARK    3  A    between atoms: N_12  and  C_13
REMARK    4  A    between atoms: C_13  and  C_14
REMARK    5  A    between atoms: C_14  and  C_15
REMARK                            x       y       z     vdW  Elec       q    Type
REMARK                         _______ _______ _______ _____ _____    ______ ____
ROOT
ATOM      1  S   UNL     1       3.002   4.239  18.784  0.00  0.00    +0.000 S 
ATOM      2  O   UNL     1       4.189   3.992  19.583  0.00  0.00    +0.000 OA
ATOM      3  O   UNL     1       1.793   3.479  18.989  0.00  0.00    +0.000 OA
ENDROOT
BRANCH   1  11
ATOM      4  O   UNL     1      -0.262  11.462  18.957  0.00  0.00    +0.000 OA
ATOM      5  C   UNL     1       0.237  10.506  19.567  0.00  0.00    +0.000 C 
ATOM      6  C   UNL     1      -0.348  10.121  20.906  0.00  0.00    +0.000 C 
ATOM      7  C   UNL     1      -0.217   8.696  21.397  0.00  0.00    +0.000 C 
ATOM      8  C   UNL     1       1.236   8.303  21.551  0.00  0.00    +0.000 C 
ATOM      9  C   UNL     1       1.759   7.819  20.233  0.00  0.00    +0.000 A 
ATOM     10  C   UNL     1       2.147   6.471  20.123  0.00  0.00    +0.000 A 
ATOM     11  C   UNL     1       2.662   5.973  18.923  0.00  0.00    +0.000 A 
ATOM     12  C   UNL     1       2.848   6.819  17.836  0.00  0.00    +0.000 A 
ATOM     13  C   UNL     1       2.484   8.161  17.949  0.00  0.00    +0.000 A 
ATOM     14  C   UNL     1       1.871   8.652  19.115  0.00  0.00    +0.000 A 
ATOM     15  N   UNL     1       1.339   9.947  19.005  0.00  0.00    +0.000 N 
ATOM     16  H   UNL     1       1.548  10.429  18.138  0.00  0.00    +0.000 HD
ENDBRANCH   1  11
BRANCH   1  17
ATOM     17  N   UNL     1       3.503   4.055  17.188  0.00  0.00    +0.000 NA
ATOM     18  H   UNL     1       3.143   4.827  16.628  0.00  0.00    +0.000 HD
BRANCH  17  19
ATOM     19  C   UNL     1       4.873   3.620  16.892  0.00  0.00    +0.000 C 
BRANCH  19  20
ATOM     20  C   UNL     1       5.736   4.668  16.220  0.00  0.00    +0.000 C 
ATOM     21  C   UNL     1       5.308   5.088  14.819  0.00  0.00    +0.000 C 
ATOM     22  C   UNL     1       6.544   4.270  14.980  0.00  0.00    +0.000 C 
BRANCH  20  23
ATOM     23  C   UNL     1       6.508   5.632  17.128  0.00  0.00    +0.000 A 
ATOM     24  C   UNL     1       7.103   5.195  18.314  0.00  0.00    +0.000 A 
ATOM     25  C   UNL     1       7.946   6.044  19.028  0.00  0.00    +0.000 A 
ATOM     26  C   UNL     1       8.173   7.328  18.557  0.00  0.00    +0.000 A 
ATOM     27  C   UNL     1       7.533   7.710  17.396  0.00  0.00    +0.000 A 
ATOM     28  N   UNL     1       6.727   6.895  16.681  0.00  0.00    +0.000 NA
ENDBRANCH  20  23
ENDBRANCH  19  20
ENDBRANCH  17  19
ENDBRANCH   1  17
TORSDOF 5
ENDMDL
MODEL 3
REMARK VINA RESULT:      -8.0      1.879      2.906
REMARK  Name = 
REMARK  5 active torsions:
REMARK  status: ('A' for Active; 'I' for Inactive)
REMARK    1  A    between atoms: C_8  and  S_9
REMARK    2  A    between atoms: S_9  and  N_12
REMARK    3  A    between atoms: N_12  and  C_13
REMARK    4  A    between atoms: C_13  and  C_14
REMARK    5  A    between atoms: C_14  and  C_15
REMARK                            x       y       z     vdW  Elec       q    Type
REMARK                         _______ _______ _______ _____ _____    ______ ____
ROOT
ATOM      1  S   UNL     1       2.835   6.596  18.304  0.00  0.00    +0.000 S 
ATOM      2  O   UNL     1       1.725   5.712  17.994  0.00  0.00    +0.000 OA
ATOM      3  O   UNL     1       3.811   6.948  17.300  0.00  0.00    +0.000 OA
ENDROOT
BRANCH   1  11
ATOM      4  O   UNL     1      -1.944  12.172  21.292  0.00  0.00    +0.000 OA
ATOM      5  C   UNL     1      -1.045  11.337  21.468  0.00  0.00    +0.000 C 
ATOM      6  C   UNL     1      -1.043  10.537  22.749  0.00  0.00    +0.000 C 
ATOM      7  C   UNL     1      -0.397   9.169  22.776  0.00  0.00    +0.000 C 
ATOM      8  C   UNL     1       1.077   9.255  22.443  0.00  0.00    +0.000 C 
ATOM      9  C   UNL     1       1.250   9.227  20.955  0.00  0.00    +0.000 A 
ATOM     10  C   UNL     1       1.916   8.128  20.381  0.00  0.00    +0.000 A 
ATOM     11  C   UNL     1       2.123   8.062  19.000  0.00  0.00    +0.000 A 
ATOM     12  C   UNL     1       1.721   9.110  18.181  0.00  0.00    +0.000 A 
ATOM     13  C   UNL     1       1.080  10.211  18.750  0.00  0.00    +0.000 A 
ATOM     14  C   UNL     1       0.774  10.244  20.122  0.00  0.00    +0.000 A 
ATOM     15  N   UNL     1      -0.080  11.288  20.514  0.00  0.00    +0.000 N 
ATOM     16  H   UNL     1      -0.295  11.966  19.791  0.00  0.00    +0.000 HD
ENDBRANCH   1  11
BRANCH   1  17
ATOM     17  N   UNL     1       3.621   5.874  19.604  0.00  0.00    +0.000 NA
ATOM     18  H   UNL     1       3.750   6.561  20.347  0.00  0.00    +0.000 HD
BRANCH  17  19
ATOM     19  C   UNL     1       3.249   4.519  20.029  0.00  0.00    +0.000 C 
BRANCH  19  20
ATOM     20  C   UNL     1       3.938   3.407  19.265  0.00  0.00    +0.000 C 
ATOM     21  C   UNL     1       3.113   2.148  19.028  0.00  0.00    +0.000 C 
ATOM     22  C   UNL     1       4.246   2.096  19.994  0.00  0.00    +0.000 C 
BRANCH  20  23
ATOM     23  C   UNL     1       5.057   3.807  18.297  0.00  0.00    +0.000 A 
ATOM     24  C   UNL     1       4.899   3.683  16.914  0.00  0.00    +0.000 A 
ATOM     25  C   UNL     1       5.855   4.218  16.051  0.00  0.00    +0.000 A 
ATOM     26  C   UNL     1       6.967   4.854  16.580  0.00  0.00    +0.000 A 
ATOM     27  C   UNL     1       7.079   4.917  17.954  0.00  0.00    +0.000 A 
ATOM     28  N   UNL     1       6.155   4.422  18.805  0.00  0.00    +0.000 NA
ENDBRANCH  20  23
ENDBRANCH  19  20
ENDBRANCH  17  19
ENDBRANCH   1  17
TORSDOF 5
ENDMDL
MODEL 4
REMARK VINA RESULT:      -7.8      1.445      2.230
REMARK  Name = 
REMARK  5 active torsions:
REMARK  status: ('A' for Active; 'I' for Inactive)
REMARK    1  A    between atoms: C_8  and  S_9
REMARK    2  A    between atoms: S_9  and  N_12
REMARK    3  A    between atoms: N_12  and  C_13
REMARK    4  A    between atoms: C_13  and  C_14
REMARK    5  A    between atoms: C_14  and  C_15
REMARK                            x       y       z     vdW  Elec       q    Type
REMARK                         _______ _______ _______ _____ _____    ______ ____
ROOT
ATOM      1  S   UNL     1       2.965   5.179  19.118  0.00  0.00    +0.000 S 
ATOM      2  O   UNL     1       4.186   5.146  19.904  0.00  0.00    +0.000 OA
ATOM      3  O   UNL     1       2.032   4.078  19.143  0.00  0.00    +0.000 OA
ENDROOT
BRANCH   1  11
ATOM      4  O   UNL     1       1.018  12.528  21.365  0.00  0.00    +0.000 OA
ATOM      5  C   UNL     1       1.116  11.683  20.464  0.00  0.00    +0.000 C 
ATOM      6  C   UNL     1       1.575  12.135  19.098  0.00  0.00    +0.000 C 
ATOM      7  C   UNL     1       2.265  11.153  18.178  0.00  0.00    +0.000 C 
ATOM      8  C   UNL     1       1.360   9.986  17.848  0.00  0.00    +0.000 C 
ATOM      9  C   UNL     1       1.479   8.949  18.923  0.00  0.00    +0.000 A 
ATOM     10  C   UNL     1       2.027   7.697  18.586  0.00  0.00    +0.000 A 
ATOM     11  C   UNL     1       2.140   6.687  19.546  0.00  0.00    +0.000 A 
ATOM     12  C   UNL     1       1.662   6.890  20.835  0.00  0.00    +0.000 A 
ATOM     13  C   UNL     1       1.100   8.123  21.167  0.00  0.00    +0.000 A 
ATOM     14  C   UNL     1       1.072   9.181  20.241  0.00  0.00    +0.000 A 
ATOM     15  N   UNL     1       0.706  10.427  20.775  0.00  0.00    +0.000 N 
ATOM     16  H   UNL     1       0.397  10.410  21.741  0.00  0.00    +0.000 HD
ENDBRANCH   1  11
BRANCH   1  17
ATOM     17  N   UNL     1       3.471   5.433  17.534  0.00  0.00    +0.000 NA
ATOM     18  H   UNL     1       3.765   6.403  17.422  0.00  0.00    +0.000 HD
BRANCH  17  19
ATOM     19  C   UNL     1       4.289   4.424  16.851  0.00  0.00    +0.000 C 
BRANCH  19  20
ATOM     20  C   UNL     1       5.583   4.951  16.265  0.00  0.00    +0.000 C 
ATOM     21  C   UNL     1       5.619   5.098  14.748  0.00  0.00    +0.000 C 
ATOM     22  C   UNL     1       6.426   4.020  15.389  0.00  0.00    +0.000 C 
BRANCH  20  23
ATOM     23  C   UNL     1       6.449   5.844  17.161  0.00  0.00    +0.000 A 
ATOM     24  C   UNL     1       7.084   5.335  18.297  0.00  0.00    +0.000 A 
ATOM     25  C   UNL     1       8.006   6.116  18.992  0.00  0.00    +0.000 A 
ATOM     26  C   UNL     1       8.270   7.404  18.553  0.00  0.00    +0.000 A 
ATOM     27  C   UNL     1       7.589   7.859  17.443  0.00  0.00    +0.000 A 
ATOM     28  N   UNL     1       6.706   7.111  16.747  0.00  0.00    +0.000 NA
ENDBRANCH  20  23
ENDBRANCH  19  20
ENDBRANCH  17  19
ENDBRANCH   1  17
TORSDOF 5
ENDMDL
MODEL 5
REMARK VINA RESULT:      -7.8      1.322      2.676
REMARK  Name = 
REMARK  5 active torsions:
REMARK  status: ('A' for Active; 'I' for Inactive)
REMARK    1  A    between atoms: C_8  and  S_9
REMARK    2  A    between atoms: S_9  and  N_12
REMARK    3  A    between atoms: N_12  and  C_13
REMARK    4  A    between atoms: C_13  and  C_14
REMARK    5  A    between atoms: C_14  and  C_15
REMARK                            x       y       z     vdW  Elec       q    Type
REMARK                         _______ _______ _______ _____ _____    ______ ____
ROOT
ATOM      1  S   UNL     1       3.070   4.153  18.785  0.00  0.00    +0.000 S 
ATOM      2  O   UNL     1       3.197   3.670  20.148  0.00  0.00    +0.000 OA
ATOM      3  O   UNL     1       2.173   3.517  17.849  0.00  0.00    +0.000 OA
ENDROOT
BRANCH   1  11
ATOM      4  O   UNL     1      -0.327  11.315  18.915  0.00  0.00    +0.000 OA
ATOM      5  C   UNL     1       0.204  10.380  19.530  0.00  0.00    +0.000 C 
ATOM      6  C   UNL     1      -0.341  10.006  20.888  0.00  0.00    +0.000 C 
ATOM      7  C   UNL     1      -0.172   8.593  21.400  0.00  0.00    +0.000 C 
ATOM      8  C   UNL     1       1.292   8.229  21.525  0.00  0.00    +0.000 C 
ATOM      9  C   UNL     1       1.793   7.733  20.203  0.00  0.00    +0.000 A 
ATOM     10  C   UNL     1       2.204   6.390  20.107  0.00  0.00    +0.000 A 
ATOM     11  C   UNL     1       2.700   5.882  18.903  0.00  0.00    +0.000 A 
ATOM     12  C   UNL     1       2.844   6.712  17.799  0.00  0.00    +0.000 A 
ATOM     13  C   UNL     1       2.457   8.049  17.898  0.00  0.00    +0.000 A 
ATOM     14  C   UNL     1       1.862   8.548  19.070  0.00  0.00    +0.000 A 
ATOM     15  N   UNL     1       1.303   9.831  18.951  0.00  0.00    +0.000 N 
ATOM     16  H   UNL     1       1.483  10.302  18.071  0.00  0.00    +0.000 HD
ENDBRANCH   1  11
BRANCH   1  17
ATOM     17  N   UNL     1       4.631   4.117  18.159  0.00  0.00    +0.000 NA
ATOM     18  H   UNL     1       5.194   3.453  18.689  0.00  0.00    +0.000 HD
BRANCH  17  19
ATOM     19  C   UNL     1       4.843   4.136  16.707  0.00  0.00    +0.000 C 
BRANCH  19  20
ATOM     20  C   UNL     1       6.098   4.857  16.262  0.00  0.00    +0.000 C 
ATOM     21  C   UNL     1       7.081   5.231  17.365  0.00  0.00    +0.000 C 
ATOM     22  C   UNL     1       6.303   6.312  16.696  0.00  0.00    +0.000 C 
BRANCH  20  23
ATOM     23  C   UNL     1       6.583   4.609  14.829  0.00  0.00    +0.000 A 
ATOM     24  C   UNL     1       5.884   3.765  13.962  0.00  0.00    +0.000 A 
ATOM     25  C   UNL     1       6.241   3.694  12.616  0.00  0.00    +0.000 A 
ATOM     26  C   UNL     1       7.303   4.456  12.156  0.00  0.00    +0.000 A 
ATOM     27  C   UNL     1       7.972   5.247  13.067  0.00  0.00    +0.000 A 
ATOM     28  N   UNL     1       7.629   5.342  14.370  0.00  0.00    +0.000 NA
ENDBRANCH  20  23
ENDBRANCH  19  20
ENDBRANCH  17  19
ENDBRANCH   1  17
TORSDOF 5
ENDMDL
MODEL 6
REMARK VINA RESULT:      -7.8      1.345      1.656
REMARK  Name = 
REMARK  5 active torsions:
REMARK  status: ('A' for Active; 'I' for Inactive)
REMARK    1  A    between atoms: C_8  and  S_9
REMARK    2  A    between atoms: S_9  and  N_12
REMARK    3  A    between atoms: N_12  and  C_13
REMARK    4  A    between atoms: C_13  and  C_14
REMARK    5  A    between atoms: C_14  and  C_15
REMARK                            x       y       z     vdW  Elec       q    Type
REMARK                         _______ _______ _______ _____ _____    ______ ____
ROOT
ATOM      1  S   UNL     1       2.707   5.827  18.758  0.00  0.00    +0.000 S 
ATOM      2  O   UNL     1       3.659   5.462  19.793  0.00  0.00    +0.000 OA
ATOM      3  O   UNL     1       1.603   4.960  18.421  0.00  0.00    +0.000 OA
ENDROOT
BRANCH   1  11
ATOM      4  O   UNL     1      -1.646  12.186  20.616  0.00  0.00    +0.000 OA
ATOM      5  C   UNL     1      -0.829  11.321  20.960  0.00  0.00    +0.000 C 
ATOM      6  C   UNL     1      -0.934  10.742  22.351  0.00  0.00    +0.000 C 
ATOM      7  C   UNL     1      -0.411   9.348  22.622  0.00  0.00    +0.000 C 
ATOM      8  C   UNL     1       1.073   9.258  22.342  0.00  0.00    +0.000 C 
ATOM      9  C   UNL     1       1.285   8.974  20.886  0.00  0.00    +0.000 A 
ATOM     10  C   UNL     1       1.868   7.745  20.524  0.00  0.00    +0.000 A 
ATOM     11  C   UNL     1       2.107   7.440  19.181  0.00  0.00    +0.000 A 
ATOM     12  C   UNL     1       1.822   8.370  18.189  0.00  0.00    +0.000 A 
ATOM     13  C   UNL     1       1.265   9.597  18.548  0.00  0.00    +0.000 A 
ATOM     14  C   UNL     1       0.924   9.878  19.883  0.00  0.00    +0.000 A 
ATOM     15  N   UNL     1       0.154  11.038  20.067  0.00  0.00    +0.000 N 
ATOM     16  H   UNL     1       0.019  11.605  19.237  0.00  0.00    +0.000 HD
ENDBRANCH   1  11
BRANCH   1  17
ATOM     17  N   UNL     1       3.637   6.092  17.382  0.00  0.00    +0.000 NA
ATOM     18  H   UNL     1       4.231   6.909  17.524  0.00  0.00    +0.000 HD
BRANCH  17  19
ATOM     19  C   UNL     1       4.251   4.959  16.678  0.00  0.00    +0.000 C 
BRANCH  19  20
ATOM     20  C   UNL     1       5.697   5.172  16.280  0.00  0.00    +0.000 C 
ATOM     21  C   UNL     1       6.002   5.078  14.790  0.00  0.00    +0.000 C 
ATOM     22  C   UNL     1       6.479   3.992  15.693  0.00  0.00    +0.000 C 
BRANCH  20  23
ATOM     23  C   UNL     1       6.562   6.034  17.206  0.00  0.00    +0.000 A 
ATOM     24  C   UNL     1       7.150   5.502  18.356  0.00  0.00    +0.000 A 
ATOM     25  C   UNL     1       8.074   6.253  19.082  0.00  0.00    +0.000 A 
ATOM     26  C   UNL     1       8.385   7.536  18.659  0.00  0.00    +0.000 A 
ATOM     27  C   UNL     1       7.749   8.016  17.533  0.00  0.00    +0.000 A 
ATOM     28  N   UNL     1       6.866   7.296  16.807  0.00  0.00    +0.000 NA
ENDBRANCH  20  23
ENDBRANCH  19  20
ENDBRANCH  17  19
ENDBRANCH   1  17
TORSDOF 5
ENDMDL
MODEL 7
REMARK VINA RESULT:      -7.7      0.866      1.182
REMARK  Name = 
REMARK  5 active torsions:
REMARK  status: ('A' for Active; 'I' for Inactive)
REMARK    1  A    between atoms: C_8  and  S_9
REMARK    2  A    between atoms: S_9  and  N_12
REMARK    3  A    between atoms: N_12  and  C_13
REMARK    4  A    between atoms: C_13  and  C_14
REMARK    5  A    between atoms: C_14  and  C_15
REMARK                            x       y       z     vdW  Elec       q    Type
REMARK                         _______ _______ _______ _____ _____    ______ ____
ROOT
ATOM      1  S   UNL     1       2.578   4.341  19.638  0.00  0.00    +0.000 S 
ATOM      2  O   UNL     1       2.210   3.993  20.999  0.00  0.00    +0.000 OA
ATOM      3  O   UNL     1       1.992   3.657  18.510  0.00  0.00    +0.000 OA
ENDROOT
BRANCH   1  11
ATOM      4  O   UNL     1      -0.321  11.652  18.639  0.00  0.00    +0.000 OA
ATOM      5  C   UNL     1       0.145  10.788  19.394  0.00  0.00    +0.000 C 
ATOM      6  C   UNL     1      -0.424  10.665  20.788  0.00  0.00    +0.000 C 
ATOM      7  C   UNL     1      -0.351   9.338  21.511  0.00  0.00    +0.000 C 
ATOM      8  C   UNL     1       1.084   8.900  21.705  0.00  0.00    +0.000 C 
ATOM      9  C   UNL     1       1.549   8.174  20.480  0.00  0.00    +0.000 A 
ATOM     10  C   UNL     1       1.867   6.808  20.594  0.00  0.00    +0.000 A 
ATOM     11  C   UNL     1       2.327   6.089  19.487  0.00  0.00    +0.000 A 
ATOM     12  C   UNL     1       2.527   6.728  18.270  0.00  0.00    +0.000 A 
ATOM     13  C   UNL     1       2.232   8.088  18.160  0.00  0.00    +0.000 A 
ATOM     14  C   UNL     1       1.674   8.799  19.236  0.00  0.00    +0.000 A 
ATOM     15  N   UNL     1       1.204  10.084  18.917  0.00  0.00    +0.000 N 
ATOM     16  H   UNL     1       1.414  10.402  17.977  0.00  0.00    +0.000 HD
ENDBRANCH   1  11
BRANCH   1  17
ATOM     17  N   UNL     1       4.250   4.168  19.578  0.00  0.00    +0.000 NA
ATOM     18  H   UNL     1       4.600   3.930  20.505  0.00  0.00    +0.000 HD
BRANCH  17  19
ATOM     19  C   UNL     1       4.878   3.472  18.448  0.00  0.00    +0.000 C 
BRANCH  19  20
ATOM     20  C   UNL     1       5.364   4.383  17.338  0.00  0.00    +0.000 C 
ATOM     21  C   UNL     1       4.488   4.445  16.092  0.00  0.00    +0.000 C 
ATOM     22  C   UNL     1       5.807   3.755  16.013  0.00  0.00    +0.000 C 
BRANCH  20  23
ATOM     23  C   UNL     1       6.245   5.571  17.738  0.00  0.00    +0.000 A 
ATOM     24  C   UNL     1       7.276   5.429  18.671  0.00  0.00    +0.000 A 
ATOM     25  C   UNL     1       8.175   6.474  18.884  0.00  0.00    +0.000 A 
ATOM     26  C   UNL     1       8.022   7.655  18.175  0.00  0.00    +0.000 A 
ATOM     27  C   UNL     1       6.967   7.743  17.291  0.00  0.00    +0.000 A 
ATOM     28  N   UNL     1       6.098   6.736  17.057  0.00  0.00    +0.000 NA
ENDBRANCH  20  23
ENDBRANCH  19  20
ENDBRANCH  17  19
ENDBRANCH   1  17
TORSDOF 5
ENDMDL
MODEL 8
REMARK VINA RESULT:      -7.7      1.018      1.123
REMARK  Name = 
REMARK  5 active torsions:
REMARK  status: ('A' for Active; 'I' for Inactive)
REMARK    1  A    between atoms: C_8  and  S_9
REMARK    2  A    between atoms: S_9  and  N_12
REMARK    3  A    between atoms: N_12  and  C_13
REMARK    4  A    between atoms: C_13  and  C_14
REMARK    5  A    between atoms: C_14  and  C_15
REMARK                            x       y       z     vdW  Elec       q    Type
REMARK                         _______ _______ _______ _____ _____    ______ ____
ROOT
ATOM      1  S   UNL     1       2.649   5.529  18.898  0.00  0.00    +0.000 S 
ATOM      2  O   UNL     1       3.074   4.959  20.165  0.00  0.00    +0.000 OA
ATOM      3  O   UNL     1       1.677   4.859  18.068  0.00  0.00    +0.000 OA
ENDROOT
BRANCH   1  11
ATOM      4  O   UNL     1      -1.454  12.144  20.400  0.00  0.00    +0.000 OA
ATOM      5  C   UNL     1      -0.694  11.251  20.800  0.00  0.00    +0.000 C 
ATOM      6  C   UNL     1      -0.881  10.720  22.202  0.00  0.00    +0.000 C 
ATOM      7  C   UNL     1      -0.438   9.311  22.534  0.00  0.00    +0.000 C 
ATOM      8  C   UNL     1       1.050   9.141  22.316  0.00  0.00    +0.000 C 
ATOM      9  C   UNL     1       1.303   8.804  20.878  0.00  0.00    +0.000 A 
ATOM     10  C   UNL     1       1.838   7.538  20.574  0.00  0.00    +0.000 A 
ATOM     11  C   UNL     1       2.114   7.181  19.251  0.00  0.00    +0.000 A 
ATOM     12  C   UNL     1       1.913   8.093  18.223  0.00  0.00    +0.000 A 
ATOM     13  C   UNL     1       1.403   9.356  18.524  0.00  0.00    +0.000 A 
ATOM     14  C   UNL     1       1.026   9.693  19.836  0.00  0.00    +0.000 A 
ATOM     15  N   UNL     1       0.307  10.894  19.956  0.00  0.00    +0.000 N 
ATOM     16  H   UNL     1       0.232  11.441  19.106  0.00  0.00    +0.000 HD
ENDBRANCH   1  11
BRANCH   1  17
ATOM     17  N   UNL     1       4.067   5.745  18.018  0.00  0.00    +0.000 NA
ATOM     18  H   UNL     1       4.846   5.891  18.659  0.00  0.00    +0.000 HD
BRANCH  17  19
ATOM     19  C   UNL     1       4.340   4.906  16.845  0.00  0.00    +0.000 C 
BRANCH  19  20
ATOM     20  C   UNL     1       5.756   5.005  16.315  0.00  0.00    +0.000 C 
ATOM     21  C   UNL     1       5.906   4.971  14.799  0.00  0.00    +0.000 C 
ATOM     22  C   UNL     1       6.357   3.794  15.594  0.00  0.00    +0.000 C 
BRANCH  20  23
ATOM     23  C   UNL     1       6.786   5.726  17.190  0.00  0.00    +0.000 A 
ATOM     24  C   UNL     1       7.146   7.054  16.945  0.00  0.00    +0.000 A 
ATOM     25  C   UNL     1       7.946   7.742  17.856  0.00  0.00    +0.000 A 
ATOM     26  C   UNL     1       8.391   7.090  18.995  0.00  0.00    +0.000 A 
ATOM     27  C   UNL     1       8.025   5.770  19.166  0.00  0.00    +0.000 A 
ATOM     28  N   UNL     1       7.237   5.094  18.304  0.00  0.00    +0.000 NA
ENDBRANCH  20  23
ENDBRANCH  19  20
ENDBRANCH  17  19
ENDBRANCH   1  17
TORSDOF 5
ENDMDL
MODEL 9
REMARK VINA RESULT:      -7.7      0.930      2.475
REMARK  Name = 
REMARK  5 active torsions:
REMARK  status: ('A' for Active; 'I' for Inactive)
REMARK    1  A    between atoms: C_8  and  S_9
REMARK    2  A    between atoms: S_9  and  N_12
REMARK    3  A    between atoms: N_12  and  C_13
REMARK    4  A    between atoms: C_13  and  C_14
REMARK    5  A    between atoms: C_14  and  C_15
REMARK                            x       y       z     vdW  Elec       q    Type
REMARK                         _______ _______ _______ _____ _____    ______ ____
ROOT
ATOM      1  S   UNL     1       3.150   4.306  19.079  0.00  0.00    +0.000 S 
ATOM      2  O   UNL     1       2.658   3.756  20.330  0.00  0.00    +0.000 OA
ATOM      3  O   UNL     1       2.797   3.711  17.812  0.00  0.00    +0.000 OA
ENDROOT
BRANCH   1  11
ATOM      4  O   UNL     1      -0.530  11.322  18.800  0.00  0.00    +0.000 OA
ATOM      5  C   UNL     1       0.052  10.454  19.464  0.00  0.00    +0.000 C 
ATOM      6  C   UNL     1      -0.446  10.156  20.859  0.00  0.00    +0.000 C 
ATOM      7  C   UNL     1      -0.208   8.789  21.463  0.00  0.00    +0.000 C 
ATOM      8  C   UNL     1       1.272   8.493  21.575  0.00  0.00    +0.000 C 
ATOM      9  C   UNL     1       1.762   7.925  20.279  0.00  0.00    +0.000 A 
ATOM     10  C   UNL     1       2.225   6.596  20.265  0.00  0.00    +0.000 A 
ATOM     11  C   UNL     1       2.713   6.024  19.087  0.00  0.00    +0.000 A 
ATOM     12  C   UNL     1       2.798   6.779  17.924  0.00  0.00    +0.000 A 
ATOM     13  C   UNL     1       2.360   8.104  17.940  0.00  0.00    +0.000 A 
ATOM     14  C   UNL     1       1.772   8.660  19.090  0.00  0.00    +0.000 A 
ATOM     15  N   UNL     1       1.159   9.909  18.897  0.00  0.00    +0.000 N 
ATOM     16  H   UNL     1       1.299  10.324  17.982  0.00  0.00    +0.000 HD
ENDBRANCH   1  11
BRANCH   1  17
ATOM     17  N   UNL     1       4.825   4.317  19.234  0.00  0.00    +0.000 NA
ATOM     18  H   UNL     1       5.226   3.592  18.639  0.00  0.00    +0.000 HD
BRANCH  17  19
ATOM     19  C   UNL     1       5.552   5.591  19.284  0.00  0.00    +0.000 C 
BRANCH  19  20
ATOM     20  C   UNL     1       6.730   5.684  18.336  0.00  0.00    +0.000 C 
ATOM     21  C   UNL     1       8.104   5.449  18.952  0.00  0.00    +0.000 C 
ATOM     22  C   UNL     1       7.733   6.827  18.519  0.00  0.00    +0.000 C 
BRANCH  20  23
ATOM     23  C   UNL     1       6.469   5.376  16.857  0.00  0.00    +0.000 A 
ATOM     24  C   UNL     1       6.884   4.172  16.281  0.00  0.00    +0.000 A 
ATOM     25  C   UNL     1       6.481   3.839  14.989  0.00  0.00    +0.000 A 
ATOM     26  C   UNL     1       5.680   4.721  14.281  0.00  0.00    +0.000 A 
ATOM     27  C   UNL     1       5.328   5.906  14.893  0.00  0.00    +0.000 A 
ATOM     28  N   UNL     1       5.694   6.237  16.150  0.00  0.00    +0.000 NA
ENDBRANCH  20  23
ENDBRANCH  19  20
ENDBRANCH  17  19
ENDBRANCH   1  17
TORSDOF 5
ENDMDL
