MODEL 1
REMARK VINA RESULT:      -8.5      0.000      0.000
REMARK  Name = 
REMARK  4 active torsions:
REMARK  status: ('A' for Active; 'I' for Inactive)
REMARK    1  A    between atoms: C_2  and  C_18
REMARK    2  A    between atoms: N_3  and  C_4
REMARK    3  A    between atoms: C_7  and  S_8
REMARK    4  A    between atoms: S_8  and  N_11
REMARK                            x       y       z     vdW  Elec       q    Type
REMARK                         _______ _______ _______ _____ _____    ______ ____
ROOT
ATOM      1  O   UNL     1       8.917   8.917  19.343  0.00  0.00    +0.000 OA
ATOM      2  C   UNL     1       8.617   9.479  18.293  0.00  0.00    +0.000 C 
ATOM      3  N   UNL     1       7.778   8.940  17.328  0.00  0.00    +0.000 N 
ATOM      4  H   UNL     1       7.808   9.306  16.383  0.00  0.00    +0.000 HD
ENDROOT
BRANCH   2   5
ATOM      5  C   UNL     1       9.255  10.803  18.094  0.00  0.00    +0.000 A 
ATOM      6  C   UNL     1       8.346  11.869  17.900  0.00  0.00    +0.000 A 
ATOM      7  C   UNL     1       8.746  13.118  17.426  0.00  0.00    +0.000 A 
ATOM      8  C   UNL     1      10.112  13.269  17.256  0.00  0.00    +0.000 A 
ATOM      9  N   UNL     1      10.875  14.270  16.706  0.00  0.00    +0.000 N 
ATOM     10  C   UNL     1      12.132  14.109  17.203  0.00  0.00    +0.000 A 
ATOM     11  N   UNL     1      12.315  12.863  17.585  0.00  0.00    +0.000 NA
ATOM     12  C   UNL     1      11.054  12.310  17.611  0.00  0.00    +0.000 A 
ATOM     13  C   UNL     1      10.631  11.009  17.940  0.00  0.00    +0.000 A 
ATOM     14  H   UNL     1      10.563  14.968  16.046  0.00  0.00    +0.000 HD
ENDBRANCH   2   5
BRANCH   3  15
ATOM     15  C   UNL     1       7.065   7.725  17.546  0.00  0.00    +0.000 A 
ATOM     16  C   UNL     1       5.748   7.547  17.085  0.00  0.00    +0.000 A 
ATOM     17  C   UNL     1       5.026   6.383  17.353  0.00  0.00    +0.000 A 
ATOM     18  C   UNL     1       5.634   5.332  18.027  0.00  0.00    +0.000 A 
ATOM     19  C   UNL     1       6.950   5.468  18.479  0.00  0.00    +0.000 A 
ATOM     20  C   UNL     1       7.669   6.663  18.227  0.00  0.00    +0.000 A 
BRANCH  18  21
ATOM     21  S   UNL     1       4.654   3.895  18.384  0.00  0.00    +0.000 S 
ATOM     22  O   UNL     1       4.464   3.179  17.134  0.00  0.00    +0.000 OA
ATOM     23  O   UNL     1       5.209   3.248  19.541  0.00  0.00    +0.000 OA
BRANCH  21  24
ATOM     24  N   UNL     1       3.137   4.538  18.825  0.00  0.00    +0.000 NA
ATOM     25  C   UNL     1       2.947   5.070  20.186  0.00  0.00    +0.000 C 
ATOM     26  C   UNL     1       2.039   4.045  20.852  0.00  0.00    +0.000 C 
ATOM     27  C   UNL     1       1.122   3.593  19.736  0.00  0.00    +0.000 C 
ATOM     28  C   UNL     1       1.905   3.808  18.441  0.00  0.00    +0.000 C 
ENDBRANCH  21  24
ENDBRANCH  18  21
ENDBRANCH   3  15
TORSDOF 4
ENDMDL
MODEL 2
REMARK VINA RESULT:      -8.3      5.724      8.765
REMARK  Name = 
REMARK  4 active torsions:
REMARK  status: ('A' for Active; 'I' for Inactive)
REMARK    1  A    between atoms: C_2  and  C_18
REMARK    2  A    between atoms: N_3  and  C_4
REMARK    3  A    between atoms: C_7  and  S_8
REMARK    4  A    between atoms: S_8  and  N_11
REMARK                            x       y       z     vdW  Elec       q    Type
REMARK                         _______ _______ _______ _____ _____    ______ ____
ROOT
ATOM      1  O   UNL     1       1.245   9.557  19.744  0.00  0.00    +0.000 OA
ATOM      2  C   UNL     1       0.718   9.420  18.643  0.00  0.00    +0.000 C 
ATOM      3  N   UNL     1       1.198   8.586  17.643  0.00  0.00    +0.000 N 
ATOM      4  H   UNL     1       0.904   8.739  16.685  0.00  0.00    +0.000 HD
ENDROOT
BRANCH   2   5
ATOM      5  C   UNL     1      -0.489  10.254  18.424  0.00  0.00    +0.000 A 
ATOM      6  C   UNL     1      -0.658  11.299  19.363  0.00  0.00    +0.000 A 
ATOM      7  C   UNL     1      -1.854  12.004  19.492  0.00  0.00    +0.000 A 
ATOM      8  C   UNL     1      -2.829  11.676  18.564  0.00  0.00    +0.000 A 
ATOM      9  N   UNL     1      -4.147  12.039  18.434  0.00  0.00    +0.000 N 
ATOM     10  C   UNL     1      -4.483  11.800  17.136  0.00  0.00    +0.000 A 
ATOM     11  N   UNL     1      -3.682  10.894  16.617  0.00  0.00    +0.000 NA
ATOM     12  C   UNL     1      -2.638  10.789  17.510  0.00  0.00    +0.000 A 
ATOM     13  C   UNL     1      -1.489   9.977  17.485  0.00  0.00    +0.000 A 
ATOM     14  H   UNL     1      -4.747  12.390  19.166  0.00  0.00    +0.000 HD
ENDBRANCH   2   5
BRANCH   3  15
ATOM     15  C   UNL     1       2.285   7.691  17.867  0.00  0.00    +0.000 A 
ATOM     16  C   UNL     1       2.126   6.504  18.603  0.00  0.00    +0.000 A 
ATOM     17  C   UNL     1       3.202   5.659  18.879  0.00  0.00    +0.000 A 
ATOM     18  C   UNL     1       4.457   5.945  18.355  0.00  0.00    +0.000 A 
ATOM     19  C   UNL     1       4.643   7.107  17.599  0.00  0.00    +0.000 A 
ATOM     20  C   UNL     1       3.553   7.974  17.347  0.00  0.00    +0.000 A 
BRANCH  18  21
ATOM     21  S   UNL     1       5.801   4.864  18.778  0.00  0.00    +0.000 S 
ATOM     22  O   UNL     1       6.933   5.701  19.138  0.00  0.00    +0.000 OA
ATOM     23  O   UNL     1       5.302   3.854  19.670  0.00  0.00    +0.000 OA
BRANCH  21  24
ATOM     24  N   UNL     1       6.192   4.106  17.301  0.00  0.00    +0.000 NA
ATOM     25  C   UNL     1       7.337   4.600  16.517  0.00  0.00    +0.000 C 
ATOM     26  C   UNL     1       6.689   5.273  15.314  0.00  0.00    +0.000 C 
ATOM     27  C   UNL     1       5.479   4.411  15.024  0.00  0.00    +0.000 C 
ATOM     28  C   UNL     1       5.102   3.762  16.356  0.00  0.00    +0.000 C 
ENDBRANCH  21  24
ENDBRANCH  18  21
ENDBRANCH   3  15
TORSDOF 4
ENDMDL
MODEL 3
REMARK VINA RESULT:      -8.2      0.757      1.373
REMARK  Name = 
REMARK  4 active torsions:
REMARK  status: ('A' for Active; 'I' for Inactive)
REMARK    1  A    between atoms: C_2  and  C_18
REMARK    2  A    between atoms: N_3  and  C_4
REMARK    3  A    between atoms: C_7  and  S_8
REMARK    4  A    between atoms: S_8  and  N_11
REMARK                            x       y       z     vdW  Elec       q    Type
REMARK                         _______ _______ _______ _____ _____    ______ ____
ROOT
ATOM      1  O   UNL     1       8.903   9.036  19.381  0.00  0.00    +0.000 OA
ATOM      2  C   UNL     1       8.646   9.565  18.303  0.00  0.00    +0.000 C 
ATOM      3  N   UNL     1       7.852   8.993  17.319  0.00  0.00    +0.000 N 
ATOM      4  H   UNL     1       7.922   9.331  16.366  0.00  0.00    +0.000 HD
ENDROOT
BRANCH   2   5
ATOM      5  C   UNL     1       9.287  10.886  18.091  0.00  0.00    +0.000 A 
ATOM      6  C   UNL     1      10.701  10.856  18.078  0.00  0.00    +0.000 A 
ATOM      7  C   UNL     1      11.476  12.012  18.170  0.00  0.00    +0.000 A 
ATOM      8  C   UNL     1      10.759  13.197  18.174  0.00  0.00    +0.000 A 
ATOM      9  N   UNL     1      11.128  14.505  18.373  0.00  0.00    +0.000 N 
ATOM     10  C   UNL     1      10.141  15.268  17.828  0.00  0.00    +0.000 A 
ATOM     11  N   UNL     1       9.017  14.586  17.771  0.00  0.00    +0.000 NA
ATOM     12  C   UNL     1       9.382  13.279  18.002  0.00  0.00    +0.000 A 
ATOM     13  C   UNL     1       8.604  12.107  18.065  0.00  0.00    +0.000 A 
ATOM     14  H   UNL     1      11.957  14.829  18.851  0.00  0.00    +0.000 HD
ENDBRANCH   2   5
BRANCH   3  15
ATOM     15  C   UNL     1       7.135   7.781  17.542  0.00  0.00    +0.000 A 
ATOM     16  C   UNL     1       5.828   7.596  17.059  0.00  0.00    +0.000 A 
ATOM     17  C   UNL     1       5.100   6.437  17.331  0.00  0.00    +0.000 A 
ATOM     18  C   UNL     1       5.695   5.396  18.032  0.00  0.00    +0.000 A 
ATOM     19  C   UNL     1       7.003   5.540  18.507  0.00  0.00    +0.000 A 
ATOM     20  C   UNL     1       7.726   6.730  18.251  0.00  0.00    +0.000 A 
BRANCH  18  21
ATOM     21  S   UNL     1       4.708   3.965  18.393  0.00  0.00    +0.000 S 
ATOM     22  O   UNL     1       4.574   3.209  17.159  0.00  0.00    +0.000 OA
ATOM     23  O   UNL     1       5.218   3.357  19.592  0.00  0.00    +0.000 OA
BRANCH  21  24
ATOM     24  N   UNL     1       3.171   4.611  18.751  0.00  0.00    +0.000 NA
ATOM     25  C   UNL     1       2.934   5.219  20.072  0.00  0.00    +0.000 C 
ATOM     26  C   UNL     1       2.019   4.222  20.770  0.00  0.00    +0.000 C 
ATOM     27  C   UNL     1       1.141   3.694  19.656  0.00  0.00    +0.000 C 
ATOM     28  C   UNL     1       1.960   3.843  18.374  0.00  0.00    +0.000 C 
ENDBRANCH  21  24
ENDBRANCH  18  21
ENDBRANCH   3  15
TORSDOF 4
ENDMDL
MODEL 4
REMARK VINA RESULT:      -8.2      6.101      8.394
REMARK  Name = 
REMARK  4 active torsions:
REMARK  status: ('A' for Active; 'I' for Inactive)
REMARK    1  A    between atoms: C_2  and  C_18
REMARK    2  A    between atoms: N_3  and  C_4
REMARK    3  A    between atoms: C_7  and  S_8
REMARK    4  A    between atoms: S_8  and  N_11
REMARK                            x       y       z     vdW  Elec       q    Type
REMARK                         _______ _______ _______ _____ _____    ______ ____
ROOT
ATOM      1  O   UNL     1       1.281   8.510  21.836  0.00  0.00    +0.000 OA
ATOM      2  C   UNL     1       0.901   9.176  20.877  0.00  0.00    +0.000 C 
ATOM      3  N   UNL     1       1.317   8.974  19.568  0.00  0.00    +0.000 N 
ATOM      4  H   UNL     1       1.207   9.721  18.891  0.00  0.00    +0.000 HD
ENDROOT
BRANCH   2   5
ATOM      5  C   UNL     1      -0.037  10.274  21.216  0.00  0.00    +0.000 A 
ATOM      6  C   UNL     1      -0.348  10.375  22.593  0.00  0.00    +0.000 A 
ATOM      7  C   UNL     1      -1.407  11.149  23.066  0.00  0.00    +0.000 A 
ATOM      8  C   UNL     1      -2.067  11.890  22.101  0.00  0.00    +0.000 A 
ATOM      9  N   UNL     1      -3.206  12.657  22.136  0.00  0.00    +0.000 N 
ATOM     10  C   UNL     1      -3.137  13.494  21.064  0.00  0.00    +0.000 A 
ATOM     11  N   UNL     1      -2.351  12.987  20.140  0.00  0.00    +0.000 NA
ATOM     12  C   UNL     1      -1.677  11.963  20.768  0.00  0.00    +0.000 A 
ATOM     13  C   UNL     1      -0.710  11.065  20.278  0.00  0.00    +0.000 A 
ATOM     14  H   UNL     1      -3.954  12.590  22.811  0.00  0.00    +0.000 HD
ENDBRANCH   2   5
BRANCH   3  15
ATOM     15  C   UNL     1       2.125   7.859  19.200  0.00  0.00    +0.000 A 
ATOM     16  C   UNL     1       2.256   6.733  20.031  0.00  0.00    +0.000 A 
ATOM     17  C   UNL     1       3.097   5.669  19.703  0.00  0.00    +0.000 A 
ATOM     18  C   UNL     1       3.773   5.672  18.489  0.00  0.00    +0.000 A 
ATOM     19  C   UNL     1       3.647   6.768  17.629  0.00  0.00    +0.000 A 
ATOM     20  C   UNL     1       2.813   7.857  17.981  0.00  0.00    +0.000 A 
BRANCH  18  21
ATOM     21  S   UNL     1       4.868   4.318  18.143  0.00  0.00    +0.000 S 
ATOM     22  O   UNL     1       5.485   4.578  16.853  0.00  0.00    +0.000 OA
ATOM     23  O   UNL     1       5.660   4.069  19.317  0.00  0.00    +0.000 OA
BRANCH  21  24
ATOM     24  N   UNL     1       3.818   2.990  17.934  0.00  0.00    +0.000 NA
ATOM     25  C   UNL     1       2.580   3.165  17.154  0.00  0.00    +0.000 C 
ATOM     26  C   UNL     1       1.479   3.108  18.203  0.00  0.00    +0.000 C 
ATOM     27  C   UNL     1       1.985   2.092  19.205  0.00  0.00    +0.000 C 
ATOM     28  C   UNL     1       3.509   2.125  19.098  0.00  0.00    +0.000 C 
ENDBRANCH  21  24
ENDBRANCH  18  21
ENDBRANCH   3  15
TORSDOF 4
ENDMDL
MODEL 5
REMARK VINA RESULT:      -8.0      1.219      1.762
REMARK  Name = 
REMARK  4 active torsions:
REMARK  status: ('A' for Active; 'I' for Inactive)
REMARK    1  A    between atoms: C_2  and  C_18
REMARK    2  A    between atoms: N_3  and  C_4
REMARK    3  A    between atoms: C_7  and  S_8
REMARK    4  A    between atoms: S_8  and  N_11
REMARK                            x       y       z     vdW  Elec       q    Type
REMARK                         _______ _______ _______ _____ _____    ______ ____
ROOT
ATOM      1  O   UNL     1       8.702   9.874  20.090  0.00  0.00    +0.000 OA
ATOM      2  C   UNL     1       9.154  10.045  18.961  0.00  0.00    +0.000 C 
ATOM      3  N   UNL     1       8.930   9.191  17.890  0.00  0.00    +0.000 N 
ATOM      4  H   UNL     1       9.554   9.221  17.092  0.00  0.00    +0.000 HD
ENDROOT
BRANCH   2   5
ATOM      5  C   UNL     1      10.015  11.243  18.812  0.00  0.00    +0.000 A 
ATOM      6  C   UNL     1      10.674  11.644  19.998  0.00  0.00    +0.000 A 
ATOM      7  C   UNL     1      11.294  12.886  20.127  0.00  0.00    +0.000 A 
ATOM      8  C   UNL     1      11.306  13.656  18.977  0.00  0.00    +0.000 A 
ATOM      9  N   UNL     1      11.694  14.951  18.729  0.00  0.00    +0.000 N 
ATOM     10  C   UNL     1      11.915  15.034  17.388  0.00  0.00    +0.000 A 
ATOM     11  N   UNL     1      11.241  14.097  16.756  0.00  0.00    +0.000 NA
ATOM     12  C   UNL     1      10.834  13.225  17.742  0.00  0.00    +0.000 A 
ATOM     13  C   UNL     1      10.078  12.040  17.663  0.00  0.00    +0.000 A 
ATOM     14  H   UNL     1      11.773  15.693  19.408  0.00  0.00    +0.000 HD
ENDBRANCH   2   5
BRANCH   3  15
ATOM     15  C   UNL     1       8.017   8.099  17.977  0.00  0.00    +0.000 A 
ATOM     16  C   UNL     1       8.271   6.987  18.798  0.00  0.00    +0.000 A 
ATOM     17  C   UNL     1       7.411   5.888  18.835  0.00  0.00    +0.000 A 
ATOM     18  C   UNL     1       6.229   5.911  18.105  0.00  0.00    +0.000 A 
ATOM     19  C   UNL     1       5.936   7.013  17.296  0.00  0.00    +0.000 A 
ATOM     20  C   UNL     1       6.827   8.113  17.241  0.00  0.00    +0.000 A 
BRANCH  18  21
ATOM     21  S   UNL     1       5.196   4.467  18.150  0.00  0.00    +0.000 S 
ATOM     22  O   UNL     1       5.257   3.851  16.835  0.00  0.00    +0.000 OA
ATOM     23  O   UNL     1       5.510   3.726  19.340  0.00  0.00    +0.000 OA
BRANCH  21  24
ATOM     24  N   UNL     1       3.622   5.099  18.331  0.00  0.00    +0.000 NA
ATOM     25  C   UNL     1       3.260   5.786  19.584  0.00  0.00    +0.000 C 
ATOM     26  C   UNL     1       2.306   4.816  20.266  0.00  0.00    +0.000 C 
ATOM     27  C   UNL     1       1.538   4.195  19.119  0.00  0.00    +0.000 C 
ATOM     28  C   UNL     1       2.462   4.280  17.905  0.00  0.00    +0.000 C 
ENDBRANCH  21  24
ENDBRANCH  18  21
ENDBRANCH   3  15
TORSDOF 4
ENDMDL
MODEL 6
REMARK VINA RESULT:      -8.0      6.106      8.308
REMARK  Name = 
REMARK  4 active torsions:
REMARK  status: ('A' for Active; 'I' for Inactive)
REMARK    1  A    between atoms: C_2  and  C_18
REMARK    2  A    between atoms: N_3  and  C_4
REMARK    3  A    between atoms: C_7  and  S_8
REMARK    4  A    between atoms: S_8  and  N_11
REMARK                            x       y       z     vdW  Elec       q    Type
REMARK                         _______ _______ _______ _____ _____    ______ ____
ROOT
ATOM      1  O   UNL     1       1.359   8.638  21.821  0.00  0.00    +0.000 OA
ATOM      2  C   UNL     1       0.865   9.144  20.818  0.00  0.00    +0.000 C 
ATOM      3  N   UNL     1       1.236   8.830  19.518  0.00  0.00    +0.000 N 
ATOM      4  H   UNL     1       1.016   9.476  18.768  0.00  0.00    +0.000 HD
ENDROOT
BRANCH   2   5
ATOM      5  C   UNL     1      -0.166  10.176  21.086  0.00  0.00    +0.000 A 
ATOM      6  C   UNL     1      -0.514  10.964  19.964  0.00  0.00    +0.000 A 
ATOM      7  C   UNL     1      -1.245  12.146  20.076  0.00  0.00    +0.000 A 
ATOM      8  C   UNL     1      -1.691  12.439  21.354  0.00  0.00    +0.000 A 
ATOM      9  N   UNL     1      -2.315  13.538  21.892  0.00  0.00    +0.000 N 
ATOM     10  C   UNL     1      -2.916  13.115  23.038  0.00  0.00    +0.000 A 
ATOM     11  N   UNL     1      -2.320  12.033  23.492  0.00  0.00    +0.000 NA
ATOM     12  C   UNL     1      -1.530  11.598  22.450  0.00  0.00    +0.000 A 
ATOM     13  C   UNL     1      -0.665  10.492  22.355  0.00  0.00    +0.000 A 
ATOM     14  H   UNL     1      -2.306  14.476  21.517  0.00  0.00    +0.000 HD
ENDBRANCH   2   5
BRANCH   3  15
ATOM     15  C   UNL     1       2.139   7.765  19.230  0.00  0.00    +0.000 A 
ATOM     16  C   UNL     1       2.913   7.747  18.057  0.00  0.00    +0.000 A 
ATOM     17  C   UNL     1       3.749   6.675  17.742  0.00  0.00    +0.000 A 
ATOM     18  C   UNL     1       3.890   5.622  18.639  0.00  0.00    +0.000 A 
ATOM     19  C   UNL     1       3.151   5.621  19.826  0.00  0.00    +0.000 A 
ATOM     20  C   UNL     1       2.284   6.700  20.126  0.00  0.00    +0.000 A 
BRANCH  18  21
ATOM     21  S   UNL     1       4.927   4.261  18.167  0.00  0.00    +0.000 S 
ATOM     22  O   UNL     1       5.524   4.596  16.885  0.00  0.00    +0.000 OA
ATOM     23  O   UNL     1       5.737   3.899  19.298  0.00  0.00    +0.000 OA
BRANCH  21  24
ATOM     24  N   UNL     1       3.826   2.989  17.887  0.00  0.00    +0.000 NA
ATOM     25  C   UNL     1       2.576   3.264  17.157  0.00  0.00    +0.000 C 
ATOM     26  C   UNL     1       1.501   3.163  18.230  0.00  0.00    +0.000 C 
ATOM     27  C   UNL     1       1.996   2.057  19.138  0.00  0.00    +0.000 C 
ATOM     28  C   UNL     1       3.517   2.047  18.990  0.00  0.00    +0.000 C 
ENDBRANCH  21  24
ENDBRANCH  18  21
ENDBRANCH   3  15
TORSDOF 4
ENDMDL
MODEL 7
REMARK VINA RESULT:      -8.0      6.849      9.224
REMARK  Name = 
REMARK  4 active torsions:
REMARK  status: ('A' for Active; 'I' for Inactive)
REMARK    1  A    between atoms: C_2  and  C_18
REMARK    2  A    between atoms: N_3  and  C_4
REMARK    3  A    between atoms: C_7  and  S_8
REMARK    4  A    between atoms: S_8  and  N_11
REMARK                            x       y       z     vdW  Elec       q    Type
REMARK                         _______ _______ _______ _____ _____    ______ ____
ROOT
ATOM      1  O   UNL     1       2.233   7.511  19.507  0.00  0.00    +0.000 OA
ATOM      2  C   UNL     1       2.532   7.683  18.328  0.00  0.00    +0.000 C 
ATOM      3  N   UNL     1       2.034   8.708  17.535  0.00  0.00    +0.000 N 
ATOM      4  H   UNL     1       2.080   8.622  16.526  0.00  0.00    +0.000 HD
ENDROOT
BRANCH   2   5
ATOM      5  C   UNL     1       3.463   6.673  17.770  0.00  0.00    +0.000 A 
ATOM      6  C   UNL     1       3.208   5.346  18.188  0.00  0.00    +0.000 A 
ATOM      7  C   UNL     1       4.125   4.312  17.999  0.00  0.00    +0.000 A 
ATOM      8  C   UNL     1       5.258   4.659  17.283  0.00  0.00    +0.000 A 
ATOM      9  N   UNL     1       6.421   3.984  17.001  0.00  0.00    +0.000 N 
ATOM     10  C   UNL     1       6.968   4.601  15.917  0.00  0.00    +0.000 A 
ATOM     11  N   UNL     1       6.531   5.840  15.830  0.00  0.00    +0.000 NA
ATOM     12  C   UNL     1       5.462   5.902  16.696  0.00  0.00    +0.000 A 
ATOM     13  C   UNL     1       4.607   6.972  17.022  0.00  0.00    +0.000 A 
ATOM     14  H   UNL     1       6.801   3.203  17.515  0.00  0.00    +0.000 HD
ENDBRANCH   2   5
BRANCH   3  15
ATOM     15  C   UNL     1       1.230   9.754  18.075  0.00  0.00    +0.000 A 
ATOM     16  C   UNL     1       1.799  10.917  18.623  0.00  0.00    +0.000 A 
ATOM     17  C   UNL     1       1.018  11.913  19.211  0.00  0.00    +0.000 A 
ATOM     18  C   UNL     1      -0.367  11.803  19.194  0.00  0.00    +0.000 A 
ATOM     19  C   UNL     1      -0.966  10.670  18.636  0.00  0.00    +0.000 A 
ATOM     20  C   UNL     1      -0.165   9.650  18.066  0.00  0.00    +0.000 A 
BRANCH  18  21
ATOM     21  S   UNL     1      -1.311  13.074  19.999  0.00  0.00    +0.000 S 
ATOM     22  O   UNL     1      -0.796  14.353  19.538  0.00  0.00    +0.000 OA
ATOM     23  O   UNL     1      -2.705  12.742  19.883  0.00  0.00    +0.000 OA
BRANCH  21  24
ATOM     24  N   UNL     1      -0.876  12.925  21.641  0.00  0.00    +0.000 NA
ATOM     25  C   UNL     1      -1.523  11.890  22.468  0.00  0.00    +0.000 C 
ATOM     26  C   UNL     1      -2.430  12.685  23.397  0.00  0.00    +0.000 C 
ATOM     27  C   UNL     1      -1.647  13.950  23.675  0.00  0.00    +0.000 C 
ATOM     28  C   UNL     1      -0.736  14.150  22.464  0.00  0.00    +0.000 C 
ENDBRANCH  21  24
ENDBRANCH  18  21
ENDBRANCH   3  15
TORSDOF 4
ENDMDL
MODEL 8
REMARK VINA RESULT:      -7.9      5.608      8.156
REMARK  Name = 
REMARK  4 active torsions:
REMARK  status: ('A' for Active; 'I' for Inactive)
REMARK    1  A    between atoms: C_2  and  C_18
REMARK    2  A    between atoms: N_3  and  C_4
REMARK    3  A    between atoms: C_7  and  S_8
REMARK    4  A    between atoms: S_8  and  N_11
REMARK                            x       y       z     vdW  Elec       q    Type
REMARK                         _______ _______ _______ _____ _____    ______ ____
ROOT
ATOM      1  O   UNL     1       1.809   9.011  17.308  0.00  0.00    +0.000 OA
ATOM      2  C   UNL     1       1.754   8.633  18.475  0.00  0.00    +0.000 C 
ATOM      3  N   UNL     1       2.388   7.499  18.962  0.00  0.00    +0.000 N 
ATOM      4  H   UNL     1       2.070   7.087  19.832  0.00  0.00    +0.000 HD
ENDROOT
BRANCH   2   5
ATOM      5  C   UNL     1       0.910   9.473  19.360  0.00  0.00    +0.000 A 
ATOM      6  C   UNL     1       0.424  10.656  18.757  0.00  0.00    +0.000 A 
ATOM      7  C   UNL     1      -0.144  11.694  19.495  0.00  0.00    +0.000 A 
ATOM      8  C   UNL     1      -0.289  11.438  20.848  0.00  0.00    +0.000 A 
ATOM      9  N   UNL     1      -0.675  12.225  21.906  0.00  0.00    +0.000 N 
ATOM     10  C   UNL     1      -1.070  11.373  22.892  0.00  0.00    +0.000 A 
ATOM     11  N   UNL     1      -0.508  10.194  22.727  0.00  0.00    +0.000 NA
ATOM     12  C   UNL     1       0.004  10.219  21.449  0.00  0.00    +0.000 A 
ATOM     13  C   UNL     1       0.714   9.242  20.727  0.00  0.00    +0.000 A 
ATOM     14  H   UNL     1      -0.646  13.233  21.946  0.00  0.00    +0.000 HD
ENDBRANCH   2   5
BRANCH   3  15
ATOM     15  C   UNL     1       3.294   6.742  18.163  0.00  0.00    +0.000 A 
ATOM     16  C   UNL     1       3.107   5.368  17.933  0.00  0.00    +0.000 A 
ATOM     17  C   UNL     1       4.026   4.611  17.205  0.00  0.00    +0.000 A 
ATOM     18  C   UNL     1       5.123   5.233  16.620  0.00  0.00    +0.000 A 
ATOM     19  C   UNL     1       5.325   6.603  16.811  0.00  0.00    +0.000 A 
ATOM     20  C   UNL     1       4.403   7.360  17.574  0.00  0.00    +0.000 A 
BRANCH  18  21
ATOM     21  S   UNL     1       6.287   4.216  15.746  0.00  0.00    +0.000 S 
ATOM     22  O   UNL     1       7.616   4.597  16.194  0.00  0.00    +0.000 OA
ATOM     23  O   UNL     1       5.835   2.853  15.816  0.00  0.00    +0.000 OA
BRANCH  21  24
ATOM     24  N   UNL     1       6.140   4.730  14.127  0.00  0.00    +0.000 NA
ATOM     25  C   UNL     1       5.157   4.073  13.247  0.00  0.00    +0.000 C 
ATOM     26  C   UNL     1       6.016   3.262  12.287  0.00  0.00    +0.000 C 
ATOM     27  C   UNL     1       7.240   4.127  12.075  0.00  0.00    +0.000 C 
ATOM     28  C   UNL     1       7.369   4.981  13.336  0.00  0.00    +0.000 C 
ENDBRANCH  21  24
ENDBRANCH  18  21
ENDBRANCH   3  15
TORSDOF 4
ENDMDL
MODEL 9
REMARK VINA RESULT:      -7.9      1.128      1.188
REMARK  Name = 
REMARK  4 active torsions:
REMARK  status: ('A' for Active; 'I' for Inactive)
REMARK    1  A    between atoms: C_2  and  C_18
REMARK    2  A    between atoms: N_3  and  C_4
REMARK    3  A    between atoms: C_7  and  S_8
REMARK    4  A    between atoms: S_8  and  N_11
REMARK                            x       y       z     vdW  Elec       q    Type
REMARK                         _______ _______ _______ _____ _____    ______ ____
ROOT
ATOM      1  O   UNL     1       8.785   9.675  20.042  0.00  0.00    +0.000 OA
ATOM      2  C   UNL     1       9.030  10.013  18.887  0.00  0.00    +0.000 C 
ATOM      3  N   UNL     1       8.698   9.266  17.765  0.00  0.00    +0.000 N 
ATOM      4  H   UNL     1       9.179   9.444  16.890  0.00  0.00    +0.000 HD
ENDROOT
BRANCH   2   5
ATOM      5  C   UNL     1       9.761  11.297  18.757  0.00  0.00    +0.000 A 
ATOM      6  C   UNL     1       9.624  12.164  19.866  0.00  0.00    +0.000 A 
ATOM      7  C   UNL     1       9.998  13.507  19.818  0.00  0.00    +0.000 A 
ATOM      8  C   UNL     1      10.606  13.902  18.639  0.00  0.00    +0.000 A 
ATOM      9  N   UNL     1      10.995  15.130  18.160  0.00  0.00    +0.000 N 
ATOM     10  C   UNL     1      11.921  14.887  17.191  0.00  0.00    +0.000 A 
ATOM     11  N   UNL     1      11.766  13.673  16.707  0.00  0.00    +0.000 NA
ATOM     12  C   UNL     1      10.927  13.039  17.597  0.00  0.00    +0.000 A 
ATOM     13  C   UNL     1      10.410  11.730  17.595  0.00  0.00    +0.000 A 
ATOM     14  H   UNL     1      10.641  16.028  18.455  0.00  0.00    +0.000 HD
ENDBRANCH   2   5
BRANCH   3  15
ATOM     15  C   UNL     1       7.899   8.089  17.854  0.00  0.00    +0.000 A 
ATOM     16  C   UNL     1       6.700   7.953  17.133  0.00  0.00    +0.000 A 
ATOM     17  C   UNL     1       5.883   6.830  17.268  0.00  0.00    +0.000 A 
ATOM     18  C   UNL     1       6.288   5.774  18.076  0.00  0.00    +0.000 A 
ATOM     19  C   UNL     1       7.487   5.869  18.790  0.00  0.00    +0.000 A 
ATOM     20  C   UNL     1       8.298   7.024  18.669  0.00  0.00    +0.000 A 
BRANCH  18  21
ATOM     21  S   UNL     1       5.188   4.391  18.251  0.00  0.00    +0.000 S 
ATOM     22  O   UNL     1       5.119   3.727  16.961  0.00  0.00    +0.000 OA
ATOM     23  O   UNL     1       5.550   3.676  19.444  0.00  0.00    +0.000 OA
BRANCH  21  24
ATOM     24  N   UNL     1       3.667   5.114  18.521  0.00  0.00    +0.000 NA
ATOM     25  C   UNL     1       3.261   5.450  19.897  0.00  0.00    +0.000 C 
ATOM     26  C   UNL     1       2.169   4.437  20.210  0.00  0.00    +0.000 C 
ATOM     27  C   UNL     1       1.450   4.257  18.890  0.00  0.00    +0.000 C 
ATOM     28  C   UNL     1       2.480   4.583  17.808  0.00  0.00    +0.000 C 
ENDBRANCH  21  24
ENDBRANCH  18  21
ENDBRANCH   3  15
TORSDOF 4
ENDMDL
