MODEL 1
REMARK VINA RESULT:      -8.6      0.000      0.000
REMARK  Name = 
REMARK  4 active torsions:
REMARK  status: ('A' for Active; 'I' for Inactive)
REMARK    1  A    between atoms: C_2  and  C_10
REMARK    2  A    between atoms: N_3  and  C_4
REMARK    3  A    between atoms: C_15  and  C_16
REMARK    4  A    between atoms: C_19  and  C_20
REMARK                            x       y       z     vdW  Elec       q    Type
REMARK                         _______ _______ _______ _____ _____    ______ ____
ROOT
ATOM      1  C   UNL     1      -0.430  10.322  20.731  0.00  0.00    +0.000 A 
ATOM      2  C   UNL     1      -0.953  10.826  21.935  0.00  0.00    +0.000 A 
ATOM      3  C   UNL     1      -0.486  10.355  23.159  0.00  0.00    +0.000 A 
ATOM      4  C   UNL     1       0.488   9.361  23.191  0.00  0.00    +0.000 A 
ATOM      5  C   UNL     1       1.034   8.872  21.998  0.00  0.00    +0.000 A 
ATOM      6  C   UNL     1       0.613   9.375  20.753  0.00  0.00    +0.000 A 
ENDROOT
BRANCH   6   7
ATOM      7  C   UNL     1       1.321   9.014  19.530  0.00  0.00    +0.000 A 
ATOM      8  N   UNL     1       1.357   9.679  18.394  0.00  0.00    +0.000 NA
ATOM      9  C   UNL     1       2.083   8.883  17.559  0.00  0.00    +0.000 A 
ATOM     10  C   UNL     1       2.506   7.754  18.224  0.00  0.00    +0.000 A 
ATOM     11  O   UNL     1       2.008   7.827  19.507  0.00  0.00    +0.000 OA
BRANCH  10  12
ATOM     12  C   UNL     1       3.321   6.604  17.868  0.00  0.00    +0.000 A 
ATOM     13  C   UNL     1       4.655   6.746  17.461  0.00  0.00    +0.000 A 
ATOM     14  C   UNL     1       5.412   5.627  17.091  0.00  0.00    +0.000 A 
ATOM     15  C   UNL     1       4.848   4.353  17.125  0.00  0.00    +0.000 A 
ATOM     16  C   UNL     1       3.528   4.193  17.536  0.00  0.00    +0.000 A 
ATOM     17  C   UNL     1       2.782   5.309  17.905  0.00  0.00    +0.000 A 
ATOM     18  F   UNL     1       1.513   5.106  18.293  0.00  0.00    +0.000 F 
ENDBRANCH  10  12
ENDBRANCH   6   7
BRANCH   1  20
ATOM     19  O   UNL     1      -0.739  12.018  19.170  0.00  0.00    +0.000 OA
ATOM     20  C   UNL     1      -1.024  10.864  19.477  0.00  0.00    +0.000 C 
ATOM     21  N   UNL     1      -1.945  10.046  18.840  0.00  0.00    +0.000 N 
ATOM     22  H   UNL     1      -2.171   9.165  19.281  0.00  0.00    +0.000 HD
BRANCH  21  23
ATOM     23  C   UNL     1      -2.579  10.303  17.606  0.00  0.00    +0.000 A 
ATOM     24  C   UNL     1      -2.090   9.853  16.384  0.00  0.00    +0.000 A 
ATOM     25  C   UNL     1      -2.770  10.201  15.229  0.00  0.00    +0.000 A 
ATOM     26  N   UNL     1      -3.895  10.947  15.212  0.00  0.00    +0.000 NA
ATOM     27  C   UNL     1      -4.368  11.345  16.410  0.00  0.00    +0.000 A 
ATOM     28  C   UNL     1      -3.764  11.040  17.621  0.00  0.00    +0.000 A 
ENDBRANCH  21  23
ENDBRANCH   1  20
TORSDOF 4
ENDMDL
MODEL 2
REMARK VINA RESULT:      -8.6      0.887      1.289
REMARK  Name = 
REMARK  4 active torsions:
REMARK  status: ('A' for Active; 'I' for Inactive)
REMARK    1  A    between atoms: C_2  and  C_10
REMARK    2  A    between atoms: N_3  and  C_4
REMARK    3  A    between atoms: C_15  and  C_16
REMARK    4  A    between atoms: C_19  and  C_20
REMARK                            x       y       z     vdW  Elec       q    Type
REMARK                         _______ _______ _______ _____ _____    ______ ____
ROOT
ATOM      1  C   UNL     1      -0.431  10.355  20.728  0.00  0.00    +0.000 A 
ATOM      2  C   UNL     1      -0.984  10.914  21.894  0.00  0.00    +0.000 A 
ATOM      3  C   UNL     1      -0.564  10.485  23.150  0.00  0.00    +0.000 A 
ATOM      4  C   UNL     1       0.392   9.478  23.252  0.00  0.00    +0.000 A 
ATOM      5  C   UNL     1       0.969   8.935  22.098  0.00  0.00    +0.000 A 
ATOM      6  C   UNL     1       0.596   9.394  20.821  0.00  0.00    +0.000 A 
ENDROOT
BRANCH   6   7
ATOM      7  C   UNL     1       1.337   8.975  19.637  0.00  0.00    +0.000 A 
ATOM      8  N   UNL     1       1.659   9.704  18.588  0.00  0.00    +0.000 NA
ATOM      9  C   UNL     1       2.271   8.828  17.743  0.00  0.00    +0.000 A 
ATOM     10  C   UNL     1       2.338   7.578  18.317  0.00  0.00    +0.000 A 
ATOM     11  O   UNL     1       1.725   7.662  19.548  0.00  0.00    +0.000 OA
BRANCH  10  12
ATOM     12  C   UNL     1       2.897   6.297  17.914  0.00  0.00    +0.000 A 
ATOM     13  C   UNL     1       2.139   5.118  17.957  0.00  0.00    +0.000 A 
ATOM     14  C   UNL     1       2.707   3.890  17.596  0.00  0.00    +0.000 A 
ATOM     15  C   UNL     1       4.038   3.824  17.184  0.00  0.00    +0.000 A 
ATOM     16  C   UNL     1       4.801   4.986  17.126  0.00  0.00    +0.000 A 
ATOM     17  C   UNL     1       4.229   6.205  17.484  0.00  0.00    +0.000 A 
ATOM     18  F   UNL     1       5.004   7.298  17.413  0.00  0.00    +0.000 F 
ENDBRANCH  10  12
ENDBRANCH   6   7
BRANCH   1  20
ATOM     19  O   UNL     1      -0.564  11.939  19.031  0.00  0.00    +0.000 OA
ATOM     20  C   UNL     1      -0.975  10.855  19.435  0.00  0.00    +0.000 C 
ATOM     21  N   UNL     1      -1.992  10.100  18.872  0.00  0.00    +0.000 N 
ATOM     22  H   UNL     1      -2.312   9.290  19.387  0.00  0.00    +0.000 HD
BRANCH  21  23
ATOM     23  C   UNL     1      -2.610  10.324  17.624  0.00  0.00    +0.000 A 
ATOM     24  C   UNL     1      -2.103   9.844  16.421  0.00  0.00    +0.000 A 
ATOM     25  C   UNL     1      -2.768  10.162  15.248  0.00  0.00    +0.000 A 
ATOM     26  N   UNL     1      -3.893  10.906  15.197  0.00  0.00    +0.000 NA
ATOM     27  C   UNL     1      -4.382  11.333  16.378  0.00  0.00    +0.000 A 
ATOM     28  C   UNL     1      -3.796  11.060  17.604  0.00  0.00    +0.000 A 
ENDBRANCH  21  23
ENDBRANCH   1  20
TORSDOF 4
ENDMDL
MODEL 3
REMARK VINA RESULT:      -8.2      3.575      6.026
REMARK  Name = 
REMARK  4 active torsions:
REMARK  status: ('A' for Active; 'I' for Inactive)
REMARK    1  A    between atoms: C_2  and  C_10
REMARK    2  A    between atoms: N_3  and  C_4
REMARK    3  A    between atoms: C_15  and  C_16
REMARK    4  A    between atoms: C_19  and  C_20
REMARK                            x       y       z     vdW  Elec       q    Type
REMARK                         _______ _______ _______ _____ _____    ______ ____
ROOT
ATOM      1  C   UNL     1       2.404   4.341  20.071  0.00  0.00    +0.000 A 
ATOM      2  C   UNL     1       1.423   3.926  20.989  0.00  0.00    +0.000 A 
ATOM      3  C   UNL     1       1.589   2.751  21.717  0.00  0.00    +0.000 A 
ATOM      4  C   UNL     1       2.723   1.969  21.518  0.00  0.00    +0.000 A 
ATOM      5  C   UNL     1       3.719   2.388  20.627  0.00  0.00    +0.000 A 
ATOM      6  C   UNL     1       3.593   3.599  19.922  0.00  0.00    +0.000 A 
ENDROOT
BRANCH   6   7
ATOM      7  C   UNL     1       4.714   4.130  19.154  0.00  0.00    +0.000 A 
ATOM      8  N   UNL     1       5.735   4.833  19.599  0.00  0.00    +0.000 NA
ATOM      9  C   UNL     1       6.446   5.142  18.478  0.00  0.00    +0.000 A 
ATOM     10  C   UNL     1       5.852   4.587  17.367  0.00  0.00    +0.000 A 
ATOM     11  O   UNL     1       4.719   3.931  17.796  0.00  0.00    +0.000 OA
BRANCH  10  12
ATOM     12  C   UNL     1       6.172   4.549  15.949  0.00  0.00    +0.000 A 
ATOM     13  C   UNL     1       5.558   3.635  15.081  0.00  0.00    +0.000 A 
ATOM     14  C   UNL     1       5.905   3.593  13.725  0.00  0.00    +0.000 A 
ATOM     15  C   UNL     1       6.867   4.466  13.218  0.00  0.00    +0.000 A 
ATOM     16  C   UNL     1       7.479   5.386  14.064  0.00  0.00    +0.000 A 
ATOM     17  C   UNL     1       7.127   5.424  15.410  0.00  0.00    +0.000 A 
ATOM     18  F   UNL     1       7.745   6.327  16.188  0.00  0.00    +0.000 F 
ENDBRANCH  10  12
ENDBRANCH   6   7
BRANCH   1  20
ATOM     19  O   UNL     1       1.943   5.490  18.104  0.00  0.00    +0.000 OA
ATOM     20  C   UNL     1       2.113   5.590  19.315  0.00  0.00    +0.000 C 
ATOM     21  N   UNL     1       2.187   6.769  20.040  0.00  0.00    +0.000 N 
ATOM     22  H   UNL     1       2.461   6.704  21.012  0.00  0.00    +0.000 HD
BRANCH  21  23
ATOM     23  C   UNL     1       1.880   8.063  19.569  0.00  0.00    +0.000 A 
ATOM     24  C   UNL     1       1.123   8.982  20.288  0.00  0.00    +0.000 A 
ATOM     25  C   UNL     1       0.845  10.209  19.710  0.00  0.00    +0.000 A 
ATOM     26  N   UNL     1       1.274  10.580  18.486  0.00  0.00    +0.000 NA
ATOM     27  C   UNL     1       2.032   9.686  17.821  0.00  0.00    +0.000 A 
ATOM     28  C   UNL     1       2.373   8.437  18.318  0.00  0.00    +0.000 A 
ENDBRANCH  21  23
ENDBRANCH   1  20
TORSDOF 4
ENDMDL
MODEL 4
REMARK VINA RESULT:      -8.1      3.546      6.218
REMARK  Name = 
REMARK  4 active torsions:
REMARK  status: ('A' for Active; 'I' for Inactive)
REMARK    1  A    between atoms: C_2  and  C_10
REMARK    2  A    between atoms: N_3  and  C_4
REMARK    3  A    between atoms: C_15  and  C_16
REMARK    4  A    between atoms: C_19  and  C_20
REMARK                            x       y       z     vdW  Elec       q    Type
REMARK                         _______ _______ _______ _____ _____    ______ ____
ROOT
ATOM      1  C   UNL     1       2.943   4.386  19.674  0.00  0.00    +0.000 A 
ATOM      2  C   UNL     1       2.256   3.850  20.778  0.00  0.00    +0.000 A 
ATOM      3  C   UNL     1       2.707   2.684  21.392  0.00  0.00    +0.000 A 
ATOM      4  C   UNL     1       3.831   2.032  20.893  0.00  0.00    +0.000 A 
ATOM      5  C   UNL     1       4.537   2.572  19.812  0.00  0.00    +0.000 A 
ATOM      6  C   UNL     1       4.127   3.778  19.213  0.00  0.00    +0.000 A 
ENDROOT
BRANCH   6   7
ATOM      7  C   UNL     1       4.973   4.441  18.227  0.00  0.00    +0.000 A 
ATOM      8  N   UNL     1       5.692   5.532  18.386  0.00  0.00    +0.000 NA
ATOM      9  C   UNL     1       6.224   5.769  17.153  0.00  0.00    +0.000 A 
ATOM     10  C   UNL     1       5.837   4.786  16.270  0.00  0.00    +0.000 A 
ATOM     11  O   UNL     1       5.016   3.921  16.958  0.00  0.00    +0.000 OA
BRANCH  10  12
ATOM     12  C   UNL     1       6.118   4.502  14.872  0.00  0.00    +0.000 A 
ATOM     13  C   UNL     1       5.283   3.674  14.108  0.00  0.00    +0.000 A 
ATOM     14  C   UNL     1       5.589   3.386  12.773  0.00  0.00    +0.000 A 
ATOM     15  C   UNL     1       6.732   3.924  12.181  0.00  0.00    +0.000 A 
ATOM     16  C   UNL     1       7.566   4.756  12.922  0.00  0.00    +0.000 A 
ATOM     17  C   UNL     1       7.253   5.040  14.249  0.00  0.00    +0.000 A 
ATOM     18  F   UNL     1       8.088   5.846  14.924  0.00  0.00    +0.000 F 
ENDBRANCH  10  12
ENDBRANCH   6   7
BRANCH   1  20
ATOM     19  O   UNL     1       1.916   5.523  17.925  0.00  0.00    +0.000 OA
ATOM     20  C   UNL     1       2.357   5.614  19.067  0.00  0.00    +0.000 C 
ATOM     21  N   UNL     1       2.481   6.777  19.811  0.00  0.00    +0.000 N 
ATOM     22  H   UNL     1       2.982   6.719  20.687  0.00  0.00    +0.000 HD
BRANCH  21  23
ATOM     23  C   UNL     1       1.943   8.040  19.486  0.00  0.00    +0.000 A 
ATOM     24  C   UNL     1       2.159   8.675  18.268  0.00  0.00    +0.000 A 
ATOM     25  C   UNL     1       1.618   9.935  18.072  0.00  0.00    +0.000 A 
ATOM     26  N   UNL     1       0.879  10.590  18.993  0.00  0.00    +0.000 NA
ATOM     27  C   UNL     1       0.657   9.941  20.153  0.00  0.00    +0.000 A 
ATOM     28  C   UNL     1       1.146   8.675  20.439  0.00  0.00    +0.000 A 
ENDBRANCH  21  23
ENDBRANCH   1  20
TORSDOF 4
ENDMDL
MODEL 5
REMARK VINA RESULT:      -8.1      3.487      8.091
REMARK  Name = 
REMARK  4 active torsions:
REMARK  status: ('A' for Active; 'I' for Inactive)
REMARK    1  A    between atoms: C_2  and  C_10
REMARK    2  A    between atoms: N_3  and  C_4
REMARK    3  A    between atoms: C_15  and  C_16
REMARK    4  A    between atoms: C_19  and  C_20
REMARK                            x       y       z     vdW  Elec       q    Type
REMARK                         _______ _______ _______ _____ _____    ______ ____
ROOT
ATOM      1  C   UNL     1       2.781   3.590  19.305  0.00  0.00    +0.000 A 
ATOM      2  C   UNL     1       2.652   2.199  19.471  0.00  0.00    +0.000 A 
ATOM      3  C   UNL     1       2.018   1.679  20.597  0.00  0.00    +0.000 A 
ATOM      4  C   UNL     1       1.533   2.541  21.576  0.00  0.00    +0.000 A 
ATOM      5  C   UNL     1       1.633   3.927  21.406  0.00  0.00    +0.000 A 
ATOM      6  C   UNL     1       2.221   4.472  20.250  0.00  0.00    +0.000 A 
ENDROOT
BRANCH   6   7
ATOM      7  C   UNL     1       2.143   5.903  19.982  0.00  0.00    +0.000 A 
ATOM      8  N   UNL     1       2.817   6.594  19.086  0.00  0.00    +0.000 NA
ATOM      9  C   UNL     1       2.436   7.885  19.297  0.00  0.00    +0.000 A 
ATOM     10  C   UNL     1       1.502   7.948  20.307  0.00  0.00    +0.000 A 
ATOM     11  O   UNL     1       1.310   6.663  20.765  0.00  0.00    +0.000 OA
BRANCH  10  12
ATOM     12  C   UNL     1       0.733   9.018  20.921  0.00  0.00    +0.000 A 
ATOM     13  C   UNL     1       0.611   9.130  22.314  0.00  0.00    +0.000 A 
ATOM     14  C   UNL     1      -0.162  10.149  22.884  0.00  0.00    +0.000 A 
ATOM     15  C   UNL     1      -0.820  11.072  22.072  0.00  0.00    +0.000 A 
ATOM     16  C   UNL     1      -0.701  10.981  20.688  0.00  0.00    +0.000 A 
ATOM     17  C   UNL     1       0.071   9.967  20.128  0.00  0.00    +0.000 A 
ATOM     18  F   UNL     1       0.155   9.919  18.789  0.00  0.00    +0.000 F 
ENDBRANCH  10  12
ENDBRANCH   6   7
BRANCH   1  20
ATOM     19  O   UNL     1       2.871   4.100  17.038  0.00  0.00    +0.000 OA
ATOM     20  C   UNL     1       3.508   4.043  18.086  0.00  0.00    +0.000 C 
ATOM     21  N   UNL     1       4.873   4.237  18.231  0.00  0.00    +0.000 N 
ATOM     22  H   UNL     1       5.281   4.031  19.133  0.00  0.00    +0.000 HD
BRANCH  21  23
ATOM     23  C   UNL     1       5.756   4.736  17.250  0.00  0.00    +0.000 A 
ATOM     24  C   UNL     1       6.022   4.080  16.053  0.00  0.00    +0.000 A 
ATOM     25  C   UNL     1       6.941   4.639  15.181  0.00  0.00    +0.000 A 
ATOM     26  N   UNL     1       7.596   5.795  15.415  0.00  0.00    +0.000 NA
ATOM     27  C   UNL     1       7.299   6.429  16.567  0.00  0.00    +0.000 A 
ATOM     28  C   UNL     1       6.387   5.956  17.498  0.00  0.00    +0.000 A 
ENDBRANCH  21  23
ENDBRANCH   1  20
TORSDOF 4
ENDMDL
MODEL 6
REMARK VINA RESULT:      -8.0      3.205      7.949
REMARK  Name = 
REMARK  4 active torsions:
REMARK  status: ('A' for Active; 'I' for Inactive)
REMARK    1  A    between atoms: C_2  and  C_10
REMARK    2  A    between atoms: N_3  and  C_4
REMARK    3  A    between atoms: C_15  and  C_16
REMARK    4  A    between atoms: C_19  and  C_20
REMARK                            x       y       z     vdW  Elec       q    Type
REMARK                         _______ _______ _______ _____ _____    ______ ____
ROOT
ATOM      1  C   UNL     1       3.546   4.212  19.713  0.00  0.00    +0.000 A 
ATOM      2  C   UNL     1       3.554   2.871  20.137  0.00  0.00    +0.000 A 
ATOM      3  C   UNL     1       2.524   2.378  20.934  0.00  0.00    +0.000 A 
ATOM      4  C   UNL     1       1.495   3.224  21.335  0.00  0.00    +0.000 A 
ATOM      5  C   UNL     1       1.465   4.553  20.896  0.00  0.00    +0.000 A 
ATOM      6  C   UNL     1       2.467   5.055  20.046  0.00  0.00    +0.000 A 
ENDROOT
BRANCH   6   7
ATOM      7  C   UNL     1       2.327   6.369  19.430  0.00  0.00    +0.000 A 
ATOM      8  N   UNL     1       2.919   6.817  18.342  0.00  0.00    +0.000 NA
ATOM      9  C   UNL     1       2.513   8.114  18.246  0.00  0.00    +0.000 A 
ATOM     10  C   UNL     1       1.647   8.421  19.271  0.00  0.00    +0.000 A 
ATOM     11  O   UNL     1       1.526   7.293  20.053  0.00  0.00    +0.000 OA
BRANCH  10  12
ATOM     12  C   UNL     1       0.888   9.603  19.648  0.00  0.00    +0.000 A 
ATOM     13  C   UNL     1       1.052  10.213  20.900  0.00  0.00    +0.000 A 
ATOM     14  C   UNL     1       0.287  11.331  21.255  0.00  0.00    +0.000 A 
ATOM     15  C   UNL     1      -0.649  11.856  20.365  0.00  0.00    +0.000 A 
ATOM     16  C   UNL     1      -0.816  11.268  19.114  0.00  0.00    +0.000 A 
ATOM     17  C   UNL     1      -0.050  10.159  18.766  0.00  0.00    +0.000 A 
ATOM     18  F   UNL     1      -0.248   9.625  17.551  0.00  0.00    +0.000 F 
ENDBRANCH  10  12
ENDBRANCH   6   7
BRANCH   1  20
ATOM     19  O   UNL     1       5.631   5.216  19.481  0.00  0.00    +0.000 OA
ATOM     20  C   UNL     1       4.711   4.652  18.895  0.00  0.00    +0.000 C 
ATOM     21  N   UNL     1       4.586   4.489  17.524  0.00  0.00    +0.000 N 
ATOM     22  H   UNL     1       3.712   4.119  17.176  0.00  0.00    +0.000 HD
BRANCH  21  23
ATOM     23  C   UNL     1       5.576   4.755  16.556  0.00  0.00    +0.000 A 
ATOM     24  C   UNL     1       6.498   5.791  16.665  0.00  0.00    +0.000 A 
ATOM     25  C   UNL     1       7.399   5.988  15.633  0.00  0.00    +0.000 A 
ATOM     26  N   UNL     1       7.449   5.227  14.519  0.00  0.00    +0.000 NA
ATOM     27  C   UNL     1       6.567   4.210  14.450  0.00  0.00    +0.000 A 
ATOM     28  C   UNL     1       5.634   3.925  15.435  0.00  0.00    +0.000 A 
ENDBRANCH  21  23
ENDBRANCH   1  20
TORSDOF 4
ENDMDL
MODEL 7
REMARK VINA RESULT:      -7.9      3.604      8.085
REMARK  Name = 
REMARK  4 active torsions:
REMARK  status: ('A' for Active; 'I' for Inactive)
REMARK    1  A    between atoms: C_2  and  C_10
REMARK    2  A    between atoms: N_3  and  C_4
REMARK    3  A    between atoms: C_15  and  C_16
REMARK    4  A    between atoms: C_19  and  C_20
REMARK                            x       y       z     vdW  Elec       q    Type
REMARK                         _______ _______ _______ _____ _____    ______ ____
ROOT
ATOM      1  C   UNL     1       3.393   3.957  19.841  0.00  0.00    +0.000 A 
ATOM      2  C   UNL     1       3.428   2.565  20.036  0.00  0.00    +0.000 A 
ATOM      3  C   UNL     1       2.408   1.924  20.735  0.00  0.00    +0.000 A 
ATOM      4  C   UNL     1       1.360   2.670  21.266  0.00  0.00    +0.000 A 
ATOM      5  C   UNL     1       1.302   4.053  21.053  0.00  0.00    +0.000 A 
ATOM      6  C   UNL     1       2.295   4.710  20.303  0.00  0.00    +0.000 A 
ENDROOT
BRANCH   6   7
ATOM      7  C   UNL     1       2.128   6.105  19.913  0.00  0.00    +0.000 A 
ATOM      8  N   UNL     1       2.585   6.699  18.830  0.00  0.00    +0.000 NA
ATOM      9  C   UNL     1       2.225   8.005  18.984  0.00  0.00    +0.000 A 
ATOM     10  C   UNL     1       1.520   8.171  20.155  0.00  0.00    +0.000 A 
ATOM     11  O   UNL     1       1.459   6.940  20.771  0.00  0.00    +0.000 OA
BRANCH  10  12
ATOM     12  C   UNL     1       0.870   9.298  20.805  0.00  0.00    +0.000 A 
ATOM     13  C   UNL     1       0.385   9.210  22.117  0.00  0.00    +0.000 A 
ATOM     14  C   UNL     1      -0.267  10.297  22.712  0.00  0.00    +0.000 A 
ATOM     15  C   UNL     1      -0.441  11.487  22.006  0.00  0.00    +0.000 A 
ATOM     16  C   UNL     1       0.044  11.594  20.706  0.00  0.00    +0.000 A 
ATOM     17  C   UNL     1       0.694  10.510  20.121  0.00  0.00    +0.000 A 
ATOM     18  F   UNL     1       1.143  10.660  18.865  0.00  0.00    +0.000 F 
ENDBRANCH  10  12
ENDBRANCH   6   7
BRANCH   1  20
ATOM     19  O   UNL     1       5.364   5.187  19.774  0.00  0.00    +0.000 OA
ATOM     20  C   UNL     1       4.549   4.550  19.113  0.00  0.00    +0.000 C 
ATOM     21  N   UNL     1       4.526   4.427  17.733  0.00  0.00    +0.000 N 
ATOM     22  H   UNL     1       3.720   3.978  17.318  0.00  0.00    +0.000 HD
BRANCH  21  23
ATOM     23  C   UNL     1       5.537   4.834  16.838  0.00  0.00    +0.000 A 
ATOM     24  C   UNL     1       6.315   5.971  17.026  0.00  0.00    +0.000 A 
ATOM     25  C   UNL     1       7.252   6.301  16.061  0.00  0.00    +0.000 A 
ATOM     26  N   UNL     1       7.467   5.579  14.942  0.00  0.00    +0.000 NA
ATOM     27  C   UNL     1       6.724   4.464  14.796  0.00  0.00    +0.000 A 
ATOM     28  C   UNL     1       5.770   4.045  15.711  0.00  0.00    +0.000 A 
ENDBRANCH  21  23
ENDBRANCH   1  20
TORSDOF 4
ENDMDL
MODEL 8
REMARK VINA RESULT:      -7.8      3.402      7.993
REMARK  Name = 
REMARK  4 active torsions:
REMARK  status: ('A' for Active; 'I' for Inactive)
REMARK    1  A    between atoms: C_2  and  C_10
REMARK    2  A    between atoms: N_3  and  C_4
REMARK    3  A    between atoms: C_15  and  C_16
REMARK    4  A    between atoms: C_19  and  C_20
REMARK                            x       y       z     vdW  Elec       q    Type
REMARK                         _______ _______ _______ _____ _____    ______ ____
ROOT
ATOM      1  C   UNL     1       3.716   3.975  19.932  0.00  0.00    +0.000 A 
ATOM      2  C   UNL     1       3.780   2.641  20.370  0.00  0.00    +0.000 A 
ATOM      3  C   UNL     1       2.808   2.132  21.227  0.00  0.00    +0.000 A 
ATOM      4  C   UNL     1       1.779   2.957  21.672  0.00  0.00    +0.000 A 
ATOM      5  C   UNL     1       1.692   4.279  21.221  0.00  0.00    +0.000 A 
ATOM      6  C   UNL     1       2.634   4.795  20.312  0.00  0.00    +0.000 A 
ENDROOT
BRANCH   6   7
ATOM      7  C   UNL     1       2.428   6.097  19.689  0.00  0.00    +0.000 A 
ATOM      8  N   UNL     1       2.900   6.523  18.536  0.00  0.00    +0.000 NA
ATOM      9  C   UNL     1       2.485   7.818  18.457  0.00  0.00    +0.000 A 
ATOM     10  C   UNL     1       1.734   8.146  19.564  0.00  0.00    +0.000 A 
ATOM     11  O   UNL     1       1.697   7.034  20.375  0.00  0.00    +0.000 OA
BRANCH  10  12
ATOM     12  C   UNL     1       1.018   9.336  19.996  0.00  0.00    +0.000 A 
ATOM     13  C   UNL     1       0.464  10.236  19.076  0.00  0.00    +0.000 A 
ATOM     14  C   UNL     1      -0.192  11.393  19.513  0.00  0.00    +0.000 A 
ATOM     15  C   UNL     1      -0.306  11.665  20.876  0.00  0.00    +0.000 A 
ATOM     16  C   UNL     1       0.229  10.777  21.804  0.00  0.00    +0.000 A 
ATOM     17  C   UNL     1       0.878   9.627  21.361  0.00  0.00    +0.000 A 
ATOM     18  F   UNL     1       1.380   8.801  22.293  0.00  0.00    +0.000 F 
ENDBRANCH  10  12
ENDBRANCH   6   7
BRANCH   1  20
ATOM     19  O   UNL     1       5.791   4.965  19.586  0.00  0.00    +0.000 OA
ATOM     20  C   UNL     1       4.824   4.433  19.048  0.00  0.00    +0.000 C 
ATOM     21  N   UNL     1       4.598   4.323  17.685  0.00  0.00    +0.000 N 
ATOM     22  H   UNL     1       3.697   3.975  17.388  0.00  0.00    +0.000 HD
BRANCH  21  23
ATOM     23  C   UNL     1       5.519   4.615  16.657  0.00  0.00    +0.000 A 
ATOM     24  C   UNL     1       5.655   3.844  15.508  0.00  0.00    +0.000 A 
ATOM     25  C   UNL     1       6.623   4.198  14.583  0.00  0.00    +0.000 A 
ATOM     26  N   UNL     1       7.446   5.259  14.721  0.00  0.00    +0.000 NA
ATOM     27  C   UNL     1       7.275   6.009  15.828  0.00  0.00    +0.000 A 
ATOM     28  C   UNL     1       6.328   5.743  16.805  0.00  0.00    +0.000 A 
ENDBRANCH  21  23
ENDBRANCH   1  20
TORSDOF 4
ENDMDL
MODEL 9
REMARK VINA RESULT:      -7.8      3.395      5.848
REMARK  Name = 
REMARK  4 active torsions:
REMARK  status: ('A' for Active; 'I' for Inactive)
REMARK    1  A    between atoms: C_2  and  C_10
REMARK    2  A    between atoms: N_3  and  C_4
REMARK    3  A    between atoms: C_15  and  C_16
REMARK    4  A    between atoms: C_19  and  C_20
REMARK                            x       y       z     vdW  Elec       q    Type
REMARK                         _______ _______ _______ _____ _____    ______ ____
ROOT
ATOM      1  C   UNL     1       2.505   4.425  20.091  0.00  0.00    +0.000 A 
ATOM      2  C   UNL     1       1.543   3.996  21.023  0.00  0.00    +0.000 A 
ATOM      3  C   UNL     1       1.737   2.825  21.750  0.00  0.00    +0.000 A 
ATOM      4  C   UNL     1       2.879   2.060  21.534  0.00  0.00    +0.000 A 
ATOM      5  C   UNL     1       3.855   2.491  20.628  0.00  0.00    +0.000 A 
ATOM      6  C   UNL     1       3.702   3.700  19.924  0.00  0.00    +0.000 A 
ENDROOT
BRANCH   6   7
ATOM      7  C   UNL     1       4.803   4.246  19.139  0.00  0.00    +0.000 A 
ATOM      8  N   UNL     1       5.794   5.003  19.559  0.00  0.00    +0.000 NA
ATOM      9  C   UNL     1       6.496   5.300  18.429  0.00  0.00    +0.000 A 
ATOM     10  C   UNL     1       5.927   4.682  17.338  0.00  0.00    +0.000 A 
ATOM     11  O   UNL     1       4.819   3.999  17.789  0.00  0.00    +0.000 OA
BRANCH  10  12
ATOM     12  C   UNL     1       6.253   4.606  15.923  0.00  0.00    +0.000 A 
ATOM     13  C   UNL     1       7.473   5.081  15.422  0.00  0.00    +0.000 A 
ATOM     14  C   UNL     1       7.752   5.027  14.051  0.00  0.00    +0.000 A 
ATOM     15  C   UNL     1       6.818   4.496  13.163  0.00  0.00    +0.000 A 
ATOM     16  C   UNL     1       5.606   4.011  13.644  0.00  0.00    +0.000 A 
ATOM     17  C   UNL     1       5.336   4.065  15.009  0.00  0.00    +0.000 A 
ATOM     18  F   UNL     1       4.153   3.587  15.427  0.00  0.00    +0.000 F 
ENDBRANCH  10  12
ENDBRANCH   6   7
BRANCH   1  20
ATOM     19  O   UNL     1       2.042   5.572  18.122  0.00  0.00    +0.000 OA
ATOM     20  C   UNL     1       2.184   5.669  19.338  0.00  0.00    +0.000 C 
ATOM     21  N   UNL     1       2.202   6.844  20.073  0.00  0.00    +0.000 N 
ATOM     22  H   UNL     1       2.458   6.780  21.049  0.00  0.00    +0.000 HD
BRANCH  21  23
ATOM     23  C   UNL     1       1.858   8.130  19.605  0.00  0.00    +0.000 A 
ATOM     24  C   UNL     1       1.107   9.039  20.342  0.00  0.00    +0.000 A 
ATOM     25  C   UNL     1       0.791  10.258  19.767  0.00  0.00    +0.000 A 
ATOM     26  N   UNL     1       1.176  10.630  18.528  0.00  0.00    +0.000 NA
ATOM     27  C   UNL     1       1.929   9.746  17.845  0.00  0.00    +0.000 A 
ATOM     28  C   UNL     1       2.306   8.506  18.338  0.00  0.00    +0.000 A 
ENDBRANCH  21  23
ENDBRANCH   1  20
TORSDOF 4
ENDMDL
