MODEL 1
REMARK VINA RESULT:      -8.9      0.000      0.000
REMARK  Name = 
REMARK  5 active torsions:
REMARK  status: ('A' for Active; 'I' for Inactive)
REMARK    1  A    between atoms: N_3  and  C_4
REMARK    2  A    between atoms: C_4  and  C_5
REMARK    3  A    between atoms: C_10  and  N_11
REMARK    4  A    between atoms: N_16  and  C_17
REMARK    5  A    between atoms: C_21  and  N_22
REMARK                            x       y       z     vdW  Elec       q    Type
REMARK                         _______ _______ _______ _____ _____    ______ ____
ROOT
ATOM      1  O   UNL     1       2.507   9.119  17.212  0.00  0.00    +0.000 OA
ATOM      2  C   UNL     1       2.082   8.592  18.236  0.00  0.00    +0.000 C 
ATOM      3  N   UNL     1       2.558   7.380  18.664  0.00  0.00    +0.000 N 
ATOM      4  N   UNL     1       1.129   9.094  19.103  0.00  0.00    +0.000 N 
ATOM      5  H   UNL     1       1.839   6.801  19.080  0.00  0.00    +0.000 HD
ATOM      6  H   UNL     1       0.975   8.555  19.943  0.00  0.00    +0.000 HD
ENDROOT
BRANCH   4   7
ATOM      7  C   UNL     1       0.411  10.302  18.957  0.00  0.00    +0.000 A 
ATOM      8  C   UNL     1       0.985  11.541  19.245  0.00  0.00    +0.000 A 
ATOM      9  C   UNL     1       0.257  12.712  19.099  0.00  0.00    +0.000 A 
ATOM     10  C   UNL     1      -1.047  12.662  18.622  0.00  0.00    +0.000 A 
ATOM     11  C   UNL     1      -1.646  11.449  18.275  0.00  0.00    +0.000 A 
ATOM     12  C   UNL     1      -0.920  10.259  18.486  0.00  0.00    +0.000 A 
BRANCH  11  13
ATOM     13  N   UNL     1      -2.950  11.454  17.713  0.00  0.00    +0.000 N 
ATOM     14  C   UNL     1      -4.155  11.635  18.459  0.00  0.00    +0.000 C 
ATOM     15  C   UNL     1      -5.196  11.775  17.373  0.00  0.00    +0.000 C 
ATOM     16  O   UNL     1      -4.625  11.164  16.221  0.00  0.00    +0.000 OA
ATOM     17  C   UNL     1      -3.267  11.101  16.404  0.00  0.00    +0.000 C 
ATOM     18  O   UNL     1      -2.523  10.735  15.509  0.00  0.00    +0.000 OA
ENDBRANCH  11  13
ENDBRANCH   4   7
BRANCH   3  19
ATOM     19  C   UNL     1       3.439   6.594  17.816  0.00  0.00    +0.000 C 
BRANCH  19  20
ATOM     20  C   UNL     1       3.121   5.125  17.940  0.00  0.00    +0.000 A 
ATOM     21  C   UNL     1       1.802   4.771  18.278  0.00  0.00    +0.000 A 
ATOM     22  C   UNL     1       1.414   3.438  18.303  0.00  0.00    +0.000 A 
ATOM     23  C   UNL     1       2.356   2.482  17.983  0.00  0.00    +0.000 A 
ATOM     24  N   UNL     1       3.644   2.764  17.689  0.00  0.00    +0.000 NA
ATOM     25  C   UNL     1       4.028   4.077  17.695  0.00  0.00    +0.000 A 
BRANCH  25  26
ATOM     26  N   UNL     1       5.422   4.323  17.451  0.00  0.00    +0.000 N 
ATOM     27  C   UNL     1       6.046   4.401  16.219  0.00  0.00    +0.000 A 
ATOM     28  C   UNL     1       7.393   4.570  16.450  0.00  0.00    +0.000 A 
ATOM     29  C   UNL     1       7.511   4.620  17.841  0.00  0.00    +0.000 A 
ATOM     30  N   UNL     1       6.332   4.525  18.446  0.00  0.00    +0.000 NA
ENDBRANCH  25  26
ENDBRANCH  19  20
ENDBRANCH   3  19
TORSDOF 5
ENDMDL
MODEL 2
REMARK VINA RESULT:      -8.9      1.033      1.033
REMARK  Name = 
REMARK  5 active torsions:
REMARK  status: ('A' for Active; 'I' for Inactive)
REMARK    1  A    between atoms: N_3  and  C_4
REMARK    2  A    between atoms: C_4  and  C_5
REMARK    3  A    between atoms: C_10  and  N_11
REMARK    4  A    between atoms: N_16  and  C_17
REMARK    5  A    between atoms: C_21  and  N_22
REMARK                            x       y       z     vdW  Elec       q    Type
REMARK                         _______ _______ _______ _____ _____    ______ ____
ROOT
ATOM      1  O   UNL     1       2.239   8.766  17.289  0.00  0.00    +0.000 OA
ATOM      2  C   UNL     1       1.981   8.554  18.471  0.00  0.00    +0.000 C 
ATOM      3  N   UNL     1       2.489   7.463  19.126  0.00  0.00    +0.000 N 
ATOM      4  N   UNL     1       1.205   9.331  19.311  0.00  0.00    +0.000 N 
ATOM      5  H   UNL     1       1.835   7.065  19.790  0.00  0.00    +0.000 HD
ATOM      6  H   UNL     1       1.182   9.041  20.277  0.00  0.00    +0.000 HD
ENDROOT
BRANCH   4   7
ATOM      7  C   UNL     1       0.508  10.510  18.962  0.00  0.00    +0.000 A 
ATOM      8  C   UNL     1       1.121  11.764  18.984  0.00  0.00    +0.000 A 
ATOM      9  C   UNL     1       0.411  12.906  18.643  0.00  0.00    +0.000 A 
ATOM     10  C   UNL     1      -0.912  12.803  18.234  0.00  0.00    +0.000 A 
ATOM     11  C   UNL     1      -1.551  11.564  18.151  0.00  0.00    +0.000 A 
ATOM     12  C   UNL     1      -0.843  10.416  18.559  0.00  0.00    +0.000 A 
BRANCH  11  13
ATOM     13  N   UNL     1      -2.878  11.500  17.649  0.00  0.00    +0.000 N 
ATOM     14  C   UNL     1      -4.055  11.661  18.441  0.00  0.00    +0.000 C 
ATOM     15  C   UNL     1      -5.148  11.722  17.399  0.00  0.00    +0.000 C 
ATOM     16  O   UNL     1      -4.604  11.092  16.244  0.00  0.00    +0.000 OA
ATOM     17  C   UNL     1      -3.238  11.087  16.367  0.00  0.00    +0.000 C 
ATOM     18  O   UNL     1      -2.519  10.718  15.453  0.00  0.00    +0.000 OA
ENDBRANCH  11  13
ENDBRANCH   4   7
BRANCH   3  19
ATOM     19  C   UNL     1       3.189   6.422  18.392  0.00  0.00    +0.000 C 
BRANCH  19  20
ATOM     20  C   UNL     1       3.246   5.150  19.200  0.00  0.00    +0.000 A 
ATOM     21  C   UNL     1       2.217   4.925  20.132  0.00  0.00    +0.000 A 
ATOM     22  C   UNL     1       2.148   3.728  20.832  0.00  0.00    +0.000 A 
ATOM     23  C   UNL     1       3.112   2.772  20.580  0.00  0.00    +0.000 A 
ATOM     24  N   UNL     1       4.142   2.952  19.726  0.00  0.00    +0.000 NA
ATOM     25  C   UNL     1       4.221   4.145  19.062  0.00  0.00    +0.000 A 
BRANCH  25  26
ATOM     26  N   UNL     1       5.374   4.319  18.221  0.00  0.00    +0.000 N 
ATOM     27  C   UNL     1       5.423   4.192  16.845  0.00  0.00    +0.000 A 
ATOM     28  C   UNL     1       6.733   4.365  16.461  0.00  0.00    +0.000 A 
ATOM     29  C   UNL     1       7.419   4.627  17.649  0.00  0.00    +0.000 A 
ATOM     30  N   UNL     1       6.606   4.653  18.700  0.00  0.00    +0.000 NA
ENDBRANCH  25  26
ENDBRANCH  19  20
ENDBRANCH   3  19
TORSDOF 5
ENDMDL
MODEL 3
REMARK VINA RESULT:      -8.7      2.157      3.905
REMARK  Name = 
REMARK  5 active torsions:
REMARK  status: ('A' for Active; 'I' for Inactive)
REMARK    1  A    between atoms: N_3  and  C_4
REMARK    2  A    between atoms: C_4  and  C_5
REMARK    3  A    between atoms: C_10  and  N_11
REMARK    4  A    between atoms: N_16  and  C_17
REMARK    5  A    between atoms: C_21  and  N_22
REMARK                            x       y       z     vdW  Elec       q    Type
REMARK                         _______ _______ _______ _____ _____    ______ ____
ROOT
ATOM      1  O   UNL     1       2.190   5.333  17.848  0.00  0.00    +0.000 OA
ATOM      2  C   UNL     1       3.134   6.117  17.811  0.00  0.00    +0.000 C 
ATOM      3  N   UNL     1       4.292   5.807  17.147  0.00  0.00    +0.000 N 
ATOM      4  N   UNL     1       3.196   7.380  18.370  0.00  0.00    +0.000 N 
ATOM      5  H   UNL     1       5.119   6.156  17.617  0.00  0.00    +0.000 HD
ATOM      6  H   UNL     1       4.027   7.912  18.156  0.00  0.00    +0.000 HD
ENDROOT
BRANCH   4   7
ATOM      7  C   UNL     1       2.195   8.008  19.144  0.00  0.00    +0.000 A 
ATOM      8  C   UNL     1       1.902   7.597  20.445  0.00  0.00    +0.000 A 
ATOM      9  C   UNL     1       0.909   8.227  21.182  0.00  0.00    +0.000 A 
ATOM     10  C   UNL     1       0.224   9.307  20.640  0.00  0.00    +0.000 A 
ATOM     11  C   UNL     1       0.518   9.784  19.360  0.00  0.00    +0.000 A 
ATOM     12  C   UNL     1       1.483   9.098  18.595  0.00  0.00    +0.000 A 
BRANCH  11  13
ATOM     13  N   UNL     1      -0.150  10.941  18.880  0.00  0.00    +0.000 N 
ATOM     14  C   UNL     1       0.232  12.284  19.183  0.00  0.00    +0.000 C 
ATOM     15  C   UNL     1      -0.651  13.093  18.262  0.00  0.00    +0.000 C 
ATOM     16  O   UNL     1      -1.748  12.242  17.946  0.00  0.00    +0.000 OA
ATOM     17  C   UNL     1      -1.371  10.949  18.209  0.00  0.00    +0.000 C 
ATOM     18  O   UNL     1      -2.083  10.007  17.906  0.00  0.00    +0.000 OA
ENDBRANCH  11  13
ENDBRANCH   4   7
BRANCH   3  19
ATOM     19  C   UNL     1       4.510   4.464  16.633  0.00  0.00    +0.000 C 
BRANCH  19  20
ATOM     20  C   UNL     1       5.553   4.477  15.545  0.00  0.00    +0.000 A 
ATOM     21  C   UNL     1       5.235   3.843  14.330  0.00  0.00    +0.000 A 
ATOM     22  C   UNL     1       6.105   3.909  13.250  0.00  0.00    +0.000 A 
ATOM     23  C   UNL     1       7.278   4.618  13.405  0.00  0.00    +0.000 A 
ATOM     24  N   UNL     1       7.650   5.213  14.559  0.00  0.00    +0.000 NA
ATOM     25  C   UNL     1       6.803   5.118  15.629  0.00  0.00    +0.000 A 
BRANCH  25  26
ATOM     26  N   UNL     1       7.275   5.701  16.855  0.00  0.00    +0.000 N 
ATOM     27  C   UNL     1       7.630   5.028  18.009  0.00  0.00    +0.000 A 
ATOM     28  C   UNL     1       7.945   5.974  18.958  0.00  0.00    +0.000 A 
ATOM     29  C   UNL     1       7.792   7.198  18.302  0.00  0.00    +0.000 A 
ATOM     30  N   UNL     1       7.442   7.043  17.029  0.00  0.00    +0.000 NA
ENDBRANCH  25  26
ENDBRANCH  19  20
ENDBRANCH   3  19
TORSDOF 5
ENDMDL
MODEL 4
REMARK VINA RESULT:      -8.6      0.783      1.177
REMARK  Name = 
REMARK  5 active torsions:
REMARK  status: ('A' for Active; 'I' for Inactive)
REMARK    1  A    between atoms: N_3  and  C_4
REMARK    2  A    between atoms: C_4  and  C_5
REMARK    3  A    between atoms: C_10  and  N_11
REMARK    4  A    between atoms: N_16  and  C_17
REMARK    5  A    between atoms: C_21  and  N_22
REMARK                            x       y       z     vdW  Elec       q    Type
REMARK                         _______ _______ _______ _____ _____    ______ ____
ROOT
ATOM      1  O   UNL     1       2.235   9.008  17.332  0.00  0.00    +0.000 OA
ATOM      2  C   UNL     1       2.066   8.492  18.433  0.00  0.00    +0.000 C 
ATOM      3  N   UNL     1       2.698   7.325  18.777  0.00  0.00    +0.000 N 
ATOM      4  N   UNL     1       1.283   8.966  19.469  0.00  0.00    +0.000 N 
ATOM      5  H   UNL     1       2.120   6.719  19.346  0.00  0.00    +0.000 HD
ATOM      6  H   UNL     1       1.342   8.447  20.333  0.00  0.00    +0.000 HD
ENDROOT
BRANCH   4   7
ATOM      7  C   UNL     1       0.474  10.124  19.452  0.00  0.00    +0.000 A 
ATOM      8  C   UNL     1       0.840  11.290  20.124  0.00  0.00    +0.000 A 
ATOM      9  C   UNL     1       0.024  12.412  20.096  0.00  0.00    +0.000 A 
ATOM     10  C   UNL     1      -1.152  12.394  19.357  0.00  0.00    +0.000 A 
ATOM     11  C   UNL     1      -1.534  11.266  18.628  0.00  0.00    +0.000 A 
ATOM     12  C   UNL     1      -0.731  10.110  18.714  0.00  0.00    +0.000 A 
BRANCH  11  13
ATOM     13  N   UNL     1      -2.700  11.322  17.821  0.00  0.00    +0.000 N 
ATOM     14  C   UNL     1      -2.718  11.142  16.404  0.00  0.00    +0.000 C 
ATOM     15  C   UNL     1      -4.197  11.081  16.099  0.00  0.00    +0.000 C 
ATOM     16  O   UNL     1      -4.836  11.727  17.195  0.00  0.00    +0.000 OA
ATOM     17  C   UNL     1      -3.958  11.743  18.248  0.00  0.00    +0.000 C 
ATOM     18  O   UNL     1      -4.301  12.128  19.354  0.00  0.00    +0.000 OA
ENDBRANCH  11  13
ENDBRANCH   4   7
BRANCH   3  19
ATOM     19  C   UNL     1       3.434   6.564  17.780  0.00  0.00    +0.000 C 
BRANCH  19  20
ATOM     20  C   UNL     1       3.137   5.092  17.913  0.00  0.00    +0.000 A 
ATOM     21  C   UNL     1       1.822   4.721  18.250  0.00  0.00    +0.000 A 
ATOM     22  C   UNL     1       1.453   3.383  18.284  0.00  0.00    +0.000 A 
ATOM     23  C   UNL     1       2.409   2.438  17.971  0.00  0.00    +0.000 A 
ATOM     24  N   UNL     1       3.693   2.737  17.678  0.00  0.00    +0.000 NA
ATOM     25  C   UNL     1       4.058   4.055  17.677  0.00  0.00    +0.000 A 
BRANCH  25  26
ATOM     26  N   UNL     1       5.450   4.320  17.433  0.00  0.00    +0.000 N 
ATOM     27  C   UNL     1       6.062   4.466  16.202  0.00  0.00    +0.000 A 
ATOM     28  C   UNL     1       7.410   4.628  16.429  0.00  0.00    +0.000 A 
ATOM     29  C   UNL     1       7.541   4.604  17.819  0.00  0.00    +0.000 A 
ATOM     30  N   UNL     1       6.368   4.472  18.430  0.00  0.00    +0.000 NA
ENDBRANCH  25  26
ENDBRANCH  19  20
ENDBRANCH   3  19
TORSDOF 5
ENDMDL
MODEL 5
REMARK VINA RESULT:      -8.6      1.189      1.520
REMARK  Name = 
REMARK  5 active torsions:
REMARK  status: ('A' for Active; 'I' for Inactive)
REMARK    1  A    between atoms: N_3  and  C_4
REMARK    2  A    between atoms: C_4  and  C_5
REMARK    3  A    between atoms: C_10  and  N_11
REMARK    4  A    between atoms: N_16  and  C_17
REMARK    5  A    between atoms: C_21  and  N_22
REMARK                            x       y       z     vdW  Elec       q    Type
REMARK                         _______ _______ _______ _____ _____    ______ ____
ROOT
ATOM      1  O   UNL     1       2.210   8.692  17.288  0.00  0.00    +0.000 OA
ATOM      2  C   UNL     1       2.031   8.484  18.485  0.00  0.00    +0.000 C 
ATOM      3  N   UNL     1       2.606   7.411  19.115  0.00  0.00    +0.000 N 
ATOM      4  N   UNL     1       1.287   9.247  19.365  0.00  0.00    +0.000 N 
ATOM      5  H   UNL     1       2.005   7.002  19.820  0.00  0.00    +0.000 HD
ATOM      6  H   UNL     1       1.331   8.964  20.333  0.00  0.00    +0.000 HD
ENDROOT
BRANCH   4   7
ATOM      7  C   UNL     1       0.539  10.404  19.052  0.00  0.00    +0.000 A 
ATOM      8  C   UNL     1       1.002  11.686  19.352  0.00  0.00    +0.000 A 
ATOM      9  C   UNL     1       0.244  12.805  19.040  0.00  0.00    +0.000 A 
ATOM     10  C   UNL     1      -0.971  12.658  18.383  0.00  0.00    +0.000 A 
ATOM     11  C   UNL     1      -1.451  11.397  18.020  0.00  0.00    +0.000 A 
ATOM     12  C   UNL     1      -0.705  10.262  18.397  0.00  0.00    +0.000 A 
BRANCH  11  13
ATOM     13  N   UNL     1      -2.657  11.301  17.277  0.00  0.00    +0.000 N 
ATOM     14  C   UNL     1      -2.728  11.046  15.873  0.00  0.00    +0.000 C 
ATOM     15  C   UNL     1      -4.208  10.830  15.653  0.00  0.00    +0.000 C 
ATOM     16  O   UNL     1      -4.851  11.469  16.750  0.00  0.00    +0.000 OA
ATOM     17  C   UNL     1      -3.926  11.624  17.752  0.00  0.00    +0.000 C 
ATOM     18  O   UNL     1      -4.249  12.033  18.855  0.00  0.00    +0.000 OA
ENDBRANCH  11  13
ENDBRANCH   4   7
BRANCH   3  19
ATOM     19  C   UNL     1       3.288   6.383  18.345  0.00  0.00    +0.000 C 
BRANCH  19  20
ATOM     20  C   UNL     1       3.289   5.075  19.095  0.00  0.00    +0.000 A 
ATOM     21  C   UNL     1       2.069   4.638  19.644  0.00  0.00    +0.000 A 
ATOM     22  C   UNL     1       1.975   3.393  20.253  0.00  0.00    +0.000 A 
ATOM     23  C   UNL     1       3.106   2.604  20.294  0.00  0.00    +0.000 A 
ATOM     24  N   UNL     1       4.309   2.990  19.818  0.00  0.00    +0.000 NA
ATOM     25  C   UNL     1       4.403   4.229  19.247  0.00  0.00    +0.000 A 
BRANCH  25  26
ATOM     26  N   UNL     1       5.718   4.625  18.822  0.00  0.00    +0.000 N 
ATOM     27  C   UNL     1       6.294   4.395  17.586  0.00  0.00    +0.000 A 
ATOM     28  C   UNL     1       7.584   4.872  17.637  0.00  0.00    +0.000 A 
ATOM     29  C   UNL     1       7.713   5.407  18.921  0.00  0.00    +0.000 A 
ATOM     30  N   UNL     1       6.586   5.311  19.619  0.00  0.00    +0.000 NA
ENDBRANCH  25  26
ENDBRANCH  19  20
ENDBRANCH   3  19
TORSDOF 5
ENDMDL
MODEL 6
REMARK VINA RESULT:      -8.5      2.288      4.043
REMARK  Name = 
REMARK  5 active torsions:
REMARK  status: ('A' for Active; 'I' for Inactive)
REMARK    1  A    between atoms: N_3  and  C_4
REMARK    2  A    between atoms: C_4  and  C_5
REMARK    3  A    between atoms: C_10  and  N_11
REMARK    4  A    between atoms: N_16  and  C_17
REMARK    5  A    between atoms: C_21  and  N_22
REMARK                            x       y       z     vdW  Elec       q    Type
REMARK                         _______ _______ _______ _____ _____    ______ ____
ROOT
ATOM      1  O   UNL     1       2.229   5.264  17.828  0.00  0.00    +0.000 OA
ATOM      2  C   UNL     1       3.162   6.060  17.784  0.00  0.00    +0.000 C 
ATOM      3  N   UNL     1       4.318   5.766  17.107  0.00  0.00    +0.000 N 
ATOM      4  N   UNL     1       3.215   7.322  18.347  0.00  0.00    +0.000 N 
ATOM      5  H   UNL     1       5.145   6.124  17.570  0.00  0.00    +0.000 HD
ATOM      6  H   UNL     1       4.037   7.865  18.126  0.00  0.00    +0.000 HD
ENDROOT
BRANCH   4   7
ATOM      7  C   UNL     1       2.214   7.936  19.134  0.00  0.00    +0.000 A 
ATOM      8  C   UNL     1       1.971   7.547  20.451  0.00  0.00    +0.000 A 
ATOM      9  C   UNL     1       0.978   8.161  21.200  0.00  0.00    +0.000 A 
ATOM     10  C   UNL     1       0.242   9.204  20.652  0.00  0.00    +0.000 A 
ATOM     11  C   UNL     1       0.485   9.659  19.354  0.00  0.00    +0.000 A 
ATOM     12  C   UNL     1       1.452   8.987  18.579  0.00  0.00    +0.000 A 
BRANCH  11  13
ATOM     13  N   UNL     1      -0.235  10.781  18.865  0.00  0.00    +0.000 N 
ATOM     14  C   UNL     1      -1.488  10.709  18.183  0.00  0.00    +0.000 C 
ATOM     15  C   UNL     1      -1.897  12.161  18.091  0.00  0.00    +0.000 C 
ATOM     16  O   UNL     1      -0.689  12.903  18.225  0.00  0.00    +0.000 OA
ATOM     17  C   UNL     1       0.248  12.087  18.805  0.00  0.00    +0.000 C 
ATOM     18  O   UNL     1       1.337  12.516  19.149  0.00  0.00    +0.000 OA
ENDBRANCH  11  13
ENDBRANCH   4   7
BRANCH   3  19
ATOM     19  C   UNL     1       4.546   4.428  16.587  0.00  0.00    +0.000 C 
BRANCH  19  20
ATOM     20  C   UNL     1       5.591   4.454  15.500  0.00  0.00    +0.000 A 
ATOM     21  C   UNL     1       5.273   3.839  14.276  0.00  0.00    +0.000 A 
ATOM     22  C   UNL     1       6.145   3.919  13.198  0.00  0.00    +0.000 A 
ATOM     23  C   UNL     1       7.321   4.622  13.366  0.00  0.00    +0.000 A 
ATOM     24  N   UNL     1       7.692   5.198  14.529  0.00  0.00    +0.000 NA
ATOM     25  C   UNL     1       6.843   5.090  15.596  0.00  0.00    +0.000 A 
BRANCH  25  26
ATOM     26  N   UNL     1       7.314   5.653  16.832  0.00  0.00    +0.000 N 
ATOM     27  C   UNL     1       7.622   4.965  17.991  0.00  0.00    +0.000 A 
ATOM     28  C   UNL     1       7.956   5.898  18.947  0.00  0.00    +0.000 A 
ATOM     29  C   UNL     1       7.862   7.127  18.291  0.00  0.00    +0.000 A 
ATOM     30  N   UNL     1       7.530   6.987  17.012  0.00  0.00    +0.000 NA
ENDBRANCH  25  26
ENDBRANCH  19  20
ENDBRANCH   3  19
TORSDOF 5
ENDMDL
MODEL 7
REMARK VINA RESULT:      -8.5      2.744      3.511
REMARK  Name = 
REMARK  5 active torsions:
REMARK  status: ('A' for Active; 'I' for Inactive)
REMARK    1  A    between atoms: N_3  and  C_4
REMARK    2  A    between atoms: C_4  and  C_5
REMARK    3  A    between atoms: C_10  and  N_11
REMARK    4  A    between atoms: N_16  and  C_17
REMARK    5  A    between atoms: C_21  and  N_22
REMARK                            x       y       z     vdW  Elec       q    Type
REMARK                         _______ _______ _______ _____ _____    ______ ____
ROOT
ATOM      1  O   UNL     1       1.774   8.590  18.844  0.00  0.00    +0.000 OA
ATOM      2  C   UNL     1       1.988   7.891  19.830  0.00  0.00    +0.000 C 
ATOM      3  N   UNL     1       2.726   6.739  19.740  0.00  0.00    +0.000 N 
ATOM      4  N   UNL     1       1.577   8.126  21.129  0.00  0.00    +0.000 N 
ATOM      5  H   UNL     1       2.381   6.004  20.346  0.00  0.00    +0.000 HD
ATOM      6  H   UNL     1       1.929   7.482  21.822  0.00  0.00    +0.000 HD
ENDROOT
BRANCH   4   7
ATOM      7  C   UNL     1       0.780   9.203  21.578  0.00  0.00    +0.000 A 
ATOM      8  C   UNL     1       0.005   9.116  22.735  0.00  0.00    +0.000 A 
ATOM      9  C   UNL     1      -0.774  10.185  23.150  0.00  0.00    +0.000 A 
ATOM     10  C   UNL     1      -0.756  11.375  22.433  0.00  0.00    +0.000 A 
ATOM     11  C   UNL     1       0.042  11.524  21.296  0.00  0.00    +0.000 A 
ATOM     12  C   UNL     1       0.781  10.411  20.846  0.00  0.00    +0.000 A 
BRANCH  11  13
ATOM     13  N   UNL     1       0.092  12.784  20.644  0.00  0.00    +0.000 N 
ATOM     14  C   UNL     1      -0.692  13.140  19.504  0.00  0.00    +0.000 C 
ATOM     15  C   UNL     1      -0.417  14.620  19.365  0.00  0.00    +0.000 C 
ATOM     16  O   UNL     1       0.817  14.840  20.040  0.00  0.00    +0.000 OA
ATOM     17  C   UNL     1       1.030  13.784  20.889  0.00  0.00    +0.000 C 
ATOM     18  O   UNL     1       1.957  13.785  21.682  0.00  0.00    +0.000 OA
ENDBRANCH  11  13
ENDBRANCH   4   7
BRANCH   3  19
ATOM     19  C   UNL     1       3.112   6.211  18.441  0.00  0.00    +0.000 C 
BRANCH  19  20
ATOM     20  C   UNL     1       2.921   4.716  18.400  0.00  0.00    +0.000 A 
ATOM     21  C   UNL     1       1.667   4.209  18.788  0.00  0.00    +0.000 A 
ATOM     22  C   UNL     1       1.388   2.854  18.672  0.00  0.00    +0.000 A 
ATOM     23  C   UNL     1       2.370   2.030  18.162  0.00  0.00    +0.000 A 
ATOM     24  N   UNL     1       3.602   2.457  17.812  0.00  0.00    +0.000 NA
ATOM     25  C   UNL     1       3.882   3.789  17.956  0.00  0.00    +0.000 A 
BRANCH  25  26
ATOM     26  N   UNL     1       5.227   4.184  17.642  0.00  0.00    +0.000 N 
ATOM     27  C   UNL     1       5.753   4.403  16.382  0.00  0.00    +0.000 A 
ATOM     28  C   UNL     1       7.091   4.687  16.537  0.00  0.00    +0.000 A 
ATOM     29  C   UNL     1       7.302   4.656  17.917  0.00  0.00    +0.000 A 
ATOM     30  N   UNL     1       6.182   4.408  18.589  0.00  0.00    +0.000 NA
ENDBRANCH  25  26
ENDBRANCH  19  20
ENDBRANCH   3  19
TORSDOF 5
ENDMDL
MODEL 8
REMARK VINA RESULT:      -8.4      6.126      9.826
REMARK  Name = 
REMARK  5 active torsions:
REMARK  status: ('A' for Active; 'I' for Inactive)
REMARK    1  A    between atoms: N_3  and  C_4
REMARK    2  A    between atoms: C_4  and  C_5
REMARK    3  A    between atoms: C_10  and  N_11
REMARK    4  A    between atoms: N_16  and  C_17
REMARK    5  A    between atoms: C_21  and  N_22
REMARK                            x       y       z     vdW  Elec       q    Type
REMARK                         _______ _______ _______ _____ _____    ______ ____
ROOT
ATOM      1  O   UNL     1       8.502   7.264  18.934  0.00  0.00    +0.000 OA
ATOM      2  C   UNL     1       8.031   8.051  18.118  0.00  0.00    +0.000 C 
ATOM      3  N   UNL     1       8.371   9.379  18.131  0.00  0.00    +0.000 N 
ATOM      4  N   UNL     1       7.151   7.766  17.090  0.00  0.00    +0.000 N 
ATOM      5  H   UNL     1       7.595   9.985  17.892  0.00  0.00    +0.000 HD
ATOM      6  H   UNL     1       6.946   8.532  16.466  0.00  0.00    +0.000 HD
ENDROOT
BRANCH   4   7
ATOM      7  C   UNL     1       6.573   6.509  16.801  0.00  0.00    +0.000 A 
ATOM      8  C   UNL     1       7.110   5.655  15.837  0.00  0.00    +0.000 A 
ATOM      9  C   UNL     1       6.520   4.430  15.567  0.00  0.00    +0.000 A 
ATOM     10  C   UNL     1       5.406   4.023  16.291  0.00  0.00    +0.000 A 
ATOM     11  C   UNL     1       4.864   4.824  17.299  0.00  0.00    +0.000 A 
ATOM     12  C   UNL     1       5.432   6.094  17.522  0.00  0.00    +0.000 A 
BRANCH  11  13
ATOM     13  N   UNL     1       3.777   4.331  18.068  0.00  0.00    +0.000 N 
ATOM     14  C   UNL     1       2.427   4.780  17.947  0.00  0.00    +0.000 C 
ATOM     15  C   UNL     1       1.674   3.795  18.811  0.00  0.00    +0.000 C 
ATOM     16  O   UNL     1       2.643   3.260  19.707  0.00  0.00    +0.000 OA
ATOM     17  C   UNL     1       3.885   3.487  19.171  0.00  0.00    +0.000 C 
ATOM     18  O   UNL     1       4.890   3.016  19.678  0.00  0.00    +0.000 OA
ENDBRANCH  11  13
ENDBRANCH   4   7
BRANCH   3  19
ATOM     19  C   UNL     1       9.148   9.930  19.230  0.00  0.00    +0.000 C 
BRANCH  19  20
ATOM     20  C   UNL     1       9.711  11.277  18.856  0.00  0.00    +0.000 A 
ATOM     21  C   UNL     1      10.459  11.364  17.667  0.00  0.00    +0.000 A 
ATOM     22  C   UNL     1      10.915  12.592  17.208  0.00  0.00    +0.000 A 
ATOM     23  C   UNL     1      10.607  13.716  17.947  0.00  0.00    +0.000 A 
ATOM     24  N   UNL     1       9.927  13.686  19.113  0.00  0.00    +0.000 NA
ATOM     25  C   UNL     1       9.506  12.469  19.576  0.00  0.00    +0.000 A 
BRANCH  25  26
ATOM     26  N   UNL     1       8.853  12.477  20.856  0.00  0.00    +0.000 N 
ATOM     27  C   UNL     1       8.936  11.504  21.835  0.00  0.00    +0.000 A 
ATOM     28  C   UNL     1       8.094  11.876  22.859  0.00  0.00    +0.000 A 
ATOM     29  C   UNL     1       7.559  13.100  22.451  0.00  0.00    +0.000 A 
ATOM     30  N   UNL     1       8.047  13.493  21.278  0.00  0.00    +0.000 NA
ENDBRANCH  25  26
ENDBRANCH  19  20
ENDBRANCH   3  19
TORSDOF 5
ENDMDL
MODEL 9
REMARK VINA RESULT:      -8.4      2.422      3.235
REMARK  Name = 
REMARK  5 active torsions:
REMARK  status: ('A' for Active; 'I' for Inactive)
REMARK    1  A    between atoms: N_3  and  C_4
REMARK    2  A    between atoms: C_4  and  C_5
REMARK    3  A    between atoms: C_10  and  N_11
REMARK    4  A    between atoms: N_16  and  C_17
REMARK    5  A    between atoms: C_21  and  N_22
REMARK                            x       y       z     vdW  Elec       q    Type
REMARK                         _______ _______ _______ _____ _____    ______ ____
ROOT
ATOM      1  O   UNL     1       1.830   8.609  18.880  0.00  0.00    +0.000 OA
ATOM      2  C   UNL     1       1.993   7.883  19.857  0.00  0.00    +0.000 C 
ATOM      3  N   UNL     1       2.705   6.715  19.764  0.00  0.00    +0.000 N 
ATOM      4  N   UNL     1       1.543   8.099  21.146  0.00  0.00    +0.000 N 
ATOM      5  H   UNL     1       2.321   5.975  20.341  0.00  0.00    +0.000 HD
ATOM      6  H   UNL     1       1.854   7.431  21.835  0.00  0.00    +0.000 HD
ENDROOT
BRANCH   4   7
ATOM      7  C   UNL     1       0.757   9.185  21.592  0.00  0.00    +0.000 A 
ATOM      8  C   UNL     1      -0.044   9.098  22.731  0.00  0.00    +0.000 A 
ATOM      9  C   UNL     1      -0.811  10.177  23.144  0.00  0.00    +0.000 A 
ATOM     10  C   UNL     1      -0.754  11.375  22.444  0.00  0.00    +0.000 A 
ATOM     11  C   UNL     1       0.071  11.524  21.327  0.00  0.00    +0.000 A 
ATOM     12  C   UNL     1       0.798  10.403  20.877  0.00  0.00    +0.000 A 
BRANCH  11  13
ATOM     13  N   UNL     1       0.160  12.791  20.693  0.00  0.00    +0.000 N 
ATOM     14  C   UNL     1       0.772  13.947  21.269  0.00  0.00    +0.000 C 
ATOM     15  C   UNL     1       0.786  14.921  20.114  0.00  0.00    +0.000 C 
ATOM     16  O   UNL     1      -0.228  14.467  19.224  0.00  0.00    +0.000 OA
ATOM     17  C   UNL     1      -0.491  13.153  19.515  0.00  0.00    +0.000 C 
ATOM     18  O   UNL     1      -1.233  12.484  18.815  0.00  0.00    +0.000 OA
ENDBRANCH  11  13
ENDBRANCH   4   7
BRANCH   3  19
ATOM     19  C   UNL     1       3.123   6.207  18.468  0.00  0.00    +0.000 C 
BRANCH  19  20
ATOM     20  C   UNL     1       2.919   4.714  18.394  0.00  0.00    +0.000 A 
ATOM     21  C   UNL     1       1.664   4.209  18.779  0.00  0.00    +0.000 A 
ATOM     22  C   UNL     1       1.373   2.858  18.634  0.00  0.00    +0.000 A 
ATOM     23  C   UNL     1       2.345   2.039  18.099  0.00  0.00    +0.000 A 
ATOM     24  N   UNL     1       3.578   2.464  17.750  0.00  0.00    +0.000 NA
ATOM     25  C   UNL     1       3.870   3.790  17.923  0.00  0.00    +0.000 A 
BRANCH  25  26
ATOM     26  N   UNL     1       5.216   4.182  17.608  0.00  0.00    +0.000 N 
ATOM     27  C   UNL     1       5.739   4.411  16.348  0.00  0.00    +0.000 A 
ATOM     28  C   UNL     1       7.079   4.686  16.502  0.00  0.00    +0.000 A 
ATOM     29  C   UNL     1       7.294   4.640  17.881  0.00  0.00    +0.000 A 
ATOM     30  N   UNL     1       6.175   4.391  18.554  0.00  0.00    +0.000 NA
ENDBRANCH  25  26
ENDBRANCH  19  20
ENDBRANCH   3  19
TORSDOF 5
ENDMDL
