MODEL 1
REMARK VINA RESULT:      -8.8      0.000      0.000
REMARK  Name = 
REMARK  5 active torsions:
REMARK  status: ('A' for Active; 'I' for Inactive)
REMARK    1  A    between atoms: C_2  and  C_11
REMARK    2  A    between atoms: N_3  and  C_4
REMARK    3  A    between atoms: C_4  and  C_5
REMARK    4  A    between atoms: N_19  and  C_20
REMARK    5  A    between atoms: C_20  and  C_21
REMARK                            x       y       z     vdW  Elec       q    Type
REMARK                         _______ _______ _______ _____ _____    ______ ____
ROOT
ATOM      1  C   UNL     1       4.319   6.391  17.801  0.00  0.00    +0.000 A 
ATOM      2  C   UNL     1       3.881   7.522  17.131  0.00  0.00    +0.000 A 
ATOM      3  C   UNL     1       2.859   8.142  17.892  0.00  0.00    +0.000 A 
ATOM      4  C   UNL     1       2.057   9.282  17.692  0.00  0.00    +0.000 A 
ATOM      5  C   UNL     1       1.137   9.658  18.676  0.00  0.00    +0.000 A 
ATOM      6  C   UNL     1       1.025   8.925  19.852  0.00  0.00    +0.000 A 
ATOM      7  C   UNL     1       1.803   7.782  20.065  0.00  0.00    +0.000 A 
ATOM      8  C   UNL     1       2.704   7.392  19.058  0.00  0.00    +0.000 A 
ATOM      9  N   UNL     1       3.530   6.281  18.936  0.00  0.00    +0.000 N 
ENDROOT
BRANCH   1  11
ATOM     10  O   UNL     1       6.436   5.344  17.949  0.00  0.00    +0.000 OA
ATOM     11  C   UNL     1       5.350   5.454  17.390  0.00  0.00    +0.000 C 
ATOM     12  N   UNL     1       5.006   4.697  16.298  0.00  0.00    +0.000 N 
ATOM     13  H   UNL     1       4.230   4.998  15.725  0.00  0.00    +0.000 HD
BRANCH  12  14
ATOM     14  C   UNL     1       5.900   3.710  15.735  0.00  0.00    +0.000 C 
BRANCH  14  15
ATOM     15  C   UNL     1       6.502   4.144  14.420  0.00  0.00    +0.000 A 
ATOM     16  C   UNL     1       6.100   3.544  13.228  0.00  0.00    +0.000 A 
ATOM     17  C   UNL     1       6.639   4.000  12.029  0.00  0.00    +0.000 A 
ATOM     18  C   UNL     1       7.571   5.030  12.049  0.00  0.00    +0.000 A 
ATOM     19  C   UNL     1       7.938   5.555  13.276  0.00  0.00    +0.000 A 
ATOM     20  N   UNL     1       7.432   5.135  14.458  0.00  0.00    +0.000 NA
ENDBRANCH  14  15
ENDBRANCH  12  14
ENDBRANCH   1  11
BRANCH   9  21
ATOM     21  C   UNL     1       3.594   5.188  19.911  0.00  0.00    +0.000 C 
BRANCH  21  22
ATOM     22  C   UNL     1       2.729   3.998  19.567  0.00  0.00    +0.000 A 
ATOM     23  C   UNL     1       3.130   2.973  18.696  0.00  0.00    +0.000 A 
ATOM     24  C   UNL     1       2.239   1.965  18.312  0.00  0.00    +0.000 A 
ATOM     25  C   UNL     1       0.932   1.962  18.793  0.00  0.00    +0.000 A 
ATOM     26  C   UNL     1       0.520   2.962  19.669  0.00  0.00    +0.000 A 
ATOM     27  C   UNL     1       1.412   3.966  20.043  0.00  0.00    +0.000 A 
ATOM     28  F   UNL     1       0.973   4.938  20.856  0.00  0.00    +0.000 F 
ENDBRANCH  21  22
ENDBRANCH   9  21
TORSDOF 5
ENDMDL
MODEL 2
REMARK VINA RESULT:      -8.7      1.158      4.091
REMARK  Name = 
REMARK  5 active torsions:
REMARK  status: ('A' for Active; 'I' for Inactive)
REMARK    1  A    between atoms: C_2  and  C_11
REMARK    2  A    between atoms: N_3  and  C_4
REMARK    3  A    between atoms: C_4  and  C_5
REMARK    4  A    between atoms: N_19  and  C_20
REMARK    5  A    between atoms: C_20  and  C_21
REMARK                            x       y       z     vdW  Elec       q    Type
REMARK                         _______ _______ _______ _____ _____    ______ ____
ROOT
ATOM      1  C   UNL     1       3.777   4.749  17.503  0.00  0.00    +0.000 A 
ATOM      2  C   UNL     1       3.237   3.496  17.262  0.00  0.00    +0.000 A 
ATOM      3  C   UNL     1       2.273   3.208  18.260  0.00  0.00    +0.000 A 
ATOM      4  C   UNL     1       1.448   2.097  18.521  0.00  0.00    +0.000 A 
ATOM      5  C   UNL     1       0.555   2.139  19.596  0.00  0.00    +0.000 A 
ATOM      6  C   UNL     1       0.468   3.274  20.394  0.00  0.00    +0.000 A 
ATOM      7  C   UNL     1       1.288   4.384  20.162  0.00  0.00    +0.000 A 
ATOM      8  C   UNL     1       2.205   4.322  19.096  0.00  0.00    +0.000 A 
ATOM      9  N   UNL     1       3.193   5.204  18.676  0.00  0.00    +0.000 N 
ENDROOT
BRANCH   1  11
ATOM     10  O   UNL     1       4.623   6.536  16.204  0.00  0.00    +0.000 OA
ATOM     11  C   UNL     1       4.795   5.445  16.736  0.00  0.00    +0.000 C 
ATOM     12  N   UNL     1       5.982   4.761  16.646  0.00  0.00    +0.000 N 
ATOM     13  H   UNL     1       5.992   3.776  16.869  0.00  0.00    +0.000 HD
BRANCH  12  14
ATOM     14  C   UNL     1       7.117   5.287  15.921  0.00  0.00    +0.000 C 
BRANCH  14  15
ATOM     15  C   UNL     1       7.118   4.892  14.464  0.00  0.00    +0.000 A 
ATOM     16  C   UNL     1       6.286   3.870  14.010  0.00  0.00    +0.000 A 
ATOM     17  C   UNL     1       6.276   3.563  12.652  0.00  0.00    +0.000 A 
ATOM     18  C   UNL     1       7.102   4.271  11.787  0.00  0.00    +0.000 A 
ATOM     19  C   UNL     1       7.918   5.253  12.321  0.00  0.00    +0.000 A 
ATOM     20  N   UNL     1       7.950   5.576  13.634  0.00  0.00    +0.000 NA
ENDBRANCH  14  15
ENDBRANCH  12  14
ENDBRANCH   1  11
BRANCH   9  21
ATOM     21  C   UNL     1       3.519   6.464  19.352  0.00  0.00    +0.000 C 
BRANCH  21  22
ATOM     22  C   UNL     1       2.521   7.573  19.112  0.00  0.00    +0.000 A 
ATOM     23  C   UNL     1       2.431   8.288  17.906  0.00  0.00    +0.000 A 
ATOM     24  C   UNL     1       1.578   9.390  17.785  0.00  0.00    +0.000 A 
ATOM     25  C   UNL     1       0.799   9.797  18.866  0.00  0.00    +0.000 A 
ATOM     26  C   UNL     1       0.864   9.092  20.064  0.00  0.00    +0.000 A 
ATOM     27  C   UNL     1       1.720   7.998  20.178  0.00  0.00    +0.000 A 
ATOM     28  F   UNL     1       1.790   7.365  21.359  0.00  0.00    +0.000 F 
ENDBRANCH  21  22
ENDBRANCH   9  21
TORSDOF 5
ENDMDL
MODEL 3
REMARK VINA RESULT:      -8.6      0.925      1.286
REMARK  Name = 
REMARK  5 active torsions:
REMARK  status: ('A' for Active; 'I' for Inactive)
REMARK    1  A    between atoms: C_2  and  C_11
REMARK    2  A    between atoms: N_3  and  C_4
REMARK    3  A    between atoms: C_4  and  C_5
REMARK    4  A    between atoms: N_19  and  C_20
REMARK    5  A    between atoms: C_20  and  C_21
REMARK                            x       y       z     vdW  Elec       q    Type
REMARK                         _______ _______ _______ _____ _____    ______ ____
ROOT
ATOM      1  C   UNL     1       4.286   6.513  17.878  0.00  0.00    +0.000 A 
ATOM      2  C   UNL     1       3.853   7.635  17.189  0.00  0.00    +0.000 A 
ATOM      3  C   UNL     1       2.803   8.248  17.918  0.00  0.00    +0.000 A 
ATOM      4  C   UNL     1       1.993   9.377  17.689  0.00  0.00    +0.000 A 
ATOM      5  C   UNL     1       1.043   9.748  18.645  0.00  0.00    +0.000 A 
ATOM      6  C   UNL     1       0.907   9.020  19.822  0.00  0.00    +0.000 A 
ATOM      7  C   UNL     1       1.692   7.888  20.064  0.00  0.00    +0.000 A 
ATOM      8  C   UNL     1       2.625   7.503  19.084  0.00  0.00    +0.000 A 
ATOM      9  N   UNL     1       3.468   6.402  18.992  0.00  0.00    +0.000 N 
ENDROOT
BRANCH   1  11
ATOM     10  O   UNL     1       6.431   5.531  18.057  0.00  0.00    +0.000 OA
ATOM     11  C   UNL     1       5.339   5.587  17.502  0.00  0.00    +0.000 C 
ATOM     12  N   UNL     1       5.007   4.772  16.447  0.00  0.00    +0.000 N 
ATOM     13  H   UNL     1       4.220   5.026  15.867  0.00  0.00    +0.000 HD
BRANCH  12  14
ATOM     14  C   UNL     1       5.924   3.785  15.923  0.00  0.00    +0.000 C 
BRANCH  14  15
ATOM     15  C   UNL     1       6.480   4.159  14.570  0.00  0.00    +0.000 A 
ATOM     16  C   UNL     1       6.022   3.520  13.418  0.00  0.00    +0.000 A 
ATOM     17  C   UNL     1       6.520   3.922  12.182  0.00  0.00    +0.000 A 
ATOM     18  C   UNL     1       7.467   4.937  12.126  0.00  0.00    +0.000 A 
ATOM     19  C   UNL     1       7.889   5.503  13.317  0.00  0.00    +0.000 A 
ATOM     20  N   UNL     1       7.424   5.136  14.533  0.00  0.00    +0.000 NA
ENDBRANCH  14  15
ENDBRANCH  12  14
ENDBRANCH   1  11
BRANCH   9  21
ATOM     21  C   UNL     1       3.517   5.315  19.975  0.00  0.00    +0.000 C 
BRANCH  21  22
ATOM     22  C   UNL     1       2.705   4.098  19.597  0.00  0.00    +0.000 A 
ATOM     23  C   UNL     1       1.311   4.018  19.744  0.00  0.00    +0.000 A 
ATOM     24  C   UNL     1       0.630   2.820  19.500  0.00  0.00    +0.000 A 
ATOM     25  C   UNL     1       1.328   1.683  19.103  0.00  0.00    +0.000 A 
ATOM     26  C   UNL     1       2.709   1.746  18.938  0.00  0.00    +0.000 A 
ATOM     27  C   UNL     1       3.382   2.942  19.187  0.00  0.00    +0.000 A 
ATOM     28  F   UNL     1       4.717   2.960  19.059  0.00  0.00    +0.000 F 
ENDBRANCH  21  22
ENDBRANCH   9  21
TORSDOF 5
ENDMDL
MODEL 4
REMARK VINA RESULT:      -8.3      0.961      1.082
REMARK  Name = 
REMARK  5 active torsions:
REMARK  status: ('A' for Active; 'I' for Inactive)
REMARK    1  A    between atoms: C_2  and  C_11
REMARK    2  A    between atoms: N_3  and  C_4
REMARK    3  A    between atoms: C_4  and  C_5
REMARK    4  A    between atoms: N_19  and  C_20
REMARK    5  A    between atoms: C_20  and  C_21
REMARK                            x       y       z     vdW  Elec       q    Type
REMARK                         _______ _______ _______ _____ _____    ______ ____
ROOT
ATOM      1  C   UNL     1       4.141   6.583  18.029  0.00  0.00    +0.000 A 
ATOM      2  C   UNL     1       3.721   7.675  17.287  0.00  0.00    +0.000 A 
ATOM      3  C   UNL     1       2.659   8.319  17.970  0.00  0.00    +0.000 A 
ATOM      4  C   UNL     1       1.855   9.437  17.680  0.00  0.00    +0.000 A 
ATOM      5  C   UNL     1       0.889   9.848  18.602  0.00  0.00    +0.000 A 
ATOM      6  C   UNL     1       0.731   9.170  19.807  0.00  0.00    +0.000 A 
ATOM      7  C   UNL     1       1.510   8.049  20.109  0.00  0.00    +0.000 A 
ATOM      8  C   UNL     1       2.460   7.623  19.163  0.00  0.00    +0.000 A 
ATOM      9  N   UNL     1       3.303   6.518  19.132  0.00  0.00    +0.000 N 
ENDROOT
BRANCH   1  11
ATOM     10  O   UNL     1       5.345   4.562  18.273  0.00  0.00    +0.000 OA
ATOM     11  C   UNL     1       5.199   5.641  17.711  0.00  0.00    +0.000 C 
ATOM     12  N   UNL     1       6.043   6.073  16.718  0.00  0.00    +0.000 N 
ATOM     13  H   UNL     1       6.043   7.054  16.474  0.00  0.00    +0.000 HD
BRANCH  12  14
ATOM     14  C   UNL     1       7.161   5.278  16.261  0.00  0.00    +0.000 C 
BRANCH  14  15
ATOM     15  C   UNL     1       7.038   4.869  14.813  0.00  0.00    +0.000 A 
ATOM     16  C   UNL     1       6.098   3.915  14.427  0.00  0.00    +0.000 A 
ATOM     17  C   UNL     1       5.977   3.595  13.078  0.00  0.00    +0.000 A 
ATOM     18  C   UNL     1       6.802   4.222  12.153  0.00  0.00    +0.000 A 
ATOM     19  C   UNL     1       7.729   5.138  12.620  0.00  0.00    +0.000 A 
ATOM     20  N   UNL     1       7.870   5.472  13.923  0.00  0.00    +0.000 NA
ENDBRANCH  14  15
ENDBRANCH  12  14
ENDBRANCH   1  11
BRANCH   9  21
ATOM     21  C   UNL     1       3.333   5.474  20.161  0.00  0.00    +0.000 C 
BRANCH  21  22
ATOM     22  C   UNL     1       2.446   4.286  19.866  0.00  0.00    +0.000 A 
ATOM     23  C   UNL     1       1.948   3.987  18.588  0.00  0.00    +0.000 A 
ATOM     24  C   UNL     1       1.026   2.952  18.399  0.00  0.00    +0.000 A 
ATOM     25  C   UNL     1       0.587   2.195  19.483  0.00  0.00    +0.000 A 
ATOM     26  C   UNL     1       1.081   2.467  20.756  0.00  0.00    +0.000 A 
ATOM     27  C   UNL     1       1.996   3.504  20.937  0.00  0.00    +0.000 A 
ATOM     28  F   UNL     1       2.422   3.767  22.181  0.00  0.00    +0.000 F 
ENDBRANCH  21  22
ENDBRANCH   9  21
TORSDOF 5
ENDMDL
MODEL 5
REMARK VINA RESULT:      -8.3      0.782      1.077
REMARK  Name = 
REMARK  5 active torsions:
REMARK  status: ('A' for Active; 'I' for Inactive)
REMARK    1  A    between atoms: C_2  and  C_11
REMARK    2  A    between atoms: N_3  and  C_4
REMARK    3  A    between atoms: C_4  and  C_5
REMARK    4  A    between atoms: N_19  and  C_20
REMARK    5  A    between atoms: C_20  and  C_21
REMARK                            x       y       z     vdW  Elec       q    Type
REMARK                         _______ _______ _______ _____ _____    ______ ____
ROOT
ATOM      1  C   UNL     1       4.484   6.435  17.628  0.00  0.00    +0.000 A 
ATOM      2  C   UNL     1       3.946   7.554  17.011  0.00  0.00    +0.000 A 
ATOM      3  C   UNL     1       2.923   8.088  17.833  0.00  0.00    +0.000 A 
ATOM      4  C   UNL     1       2.043   9.179  17.702  0.00  0.00    +0.000 A 
ATOM      5  C   UNL     1       1.147   9.470  18.734  0.00  0.00    +0.000 A 
ATOM      6  C   UNL     1       1.134   8.700  19.893  0.00  0.00    +0.000 A 
ATOM      7  C   UNL     1       1.990   7.603  20.039  0.00  0.00    +0.000 A 
ATOM      8  C   UNL     1       2.868   7.299  18.982  0.00  0.00    +0.000 A 
ATOM      9  N   UNL     1       3.755   6.246  18.792  0.00  0.00    +0.000 N 
ENDROOT
BRANCH   1  11
ATOM     10  O   UNL     1       6.727   5.701  17.470  0.00  0.00    +0.000 OA
ATOM     11  C   UNL     1       5.551   5.577  17.146  0.00  0.00    +0.000 C 
ATOM     12  N   UNL     1       5.128   4.606  16.273  0.00  0.00    +0.000 N 
ATOM     13  H   UNL     1       4.220   4.704  15.841  0.00  0.00    +0.000 HD
BRANCH  12  14
ATOM     14  C   UNL     1       6.043   3.655  15.680  0.00  0.00    +0.000 C 
BRANCH  14  15
ATOM     15  C   UNL     1       6.482   4.050  14.291  0.00  0.00    +0.000 A 
ATOM     16  C   UNL     1       7.398   5.085  14.108  0.00  0.00    +0.000 A 
ATOM     17  C   UNL     1       7.819   5.392  12.817  0.00  0.00    +0.000 A 
ATOM     18  C   UNL     1       7.308   4.671  11.744  0.00  0.00    +0.000 A 
ATOM     19  C   UNL     1       6.382   3.676  12.008  0.00  0.00    +0.000 A 
ATOM     20  N   UNL     1       5.954   3.353  13.250  0.00  0.00    +0.000 NA
ENDBRANCH  14  15
ENDBRANCH  12  14
ENDBRANCH   1  11
BRANCH   9  21
ATOM     21  C   UNL     1       3.930   5.134  19.731  0.00  0.00    +0.000 C 
BRANCH  21  22
ATOM     22  C   UNL     1       2.872   4.059  19.625  0.00  0.00    +0.000 A 
ATOM     23  C   UNL     1       2.604   3.348  18.445  0.00  0.00    +0.000 A 
ATOM     24  C   UNL     1       1.527   2.458  18.370  0.00  0.00    +0.000 A 
ATOM     25  C   UNL     1       0.699   2.263  19.474  0.00  0.00    +0.000 A 
ATOM     26  C   UNL     1       0.958   2.948  20.657  0.00  0.00    +0.000 A 
ATOM     27  C   UNL     1       2.031   3.837  20.722  0.00  0.00    +0.000 A 
ATOM     28  F   UNL     1       2.229   4.513  21.864  0.00  0.00    +0.000 F 
ENDBRANCH  21  22
ENDBRANCH   9  21
TORSDOF 5
ENDMDL
MODEL 6
REMARK VINA RESULT:      -8.3      1.564      4.249
REMARK  Name = 
REMARK  5 active torsions:
REMARK  status: ('A' for Active; 'I' for Inactive)
REMARK    1  A    between atoms: C_2  and  C_11
REMARK    2  A    between atoms: N_3  and  C_4
REMARK    3  A    between atoms: C_4  and  C_5
REMARK    4  A    between atoms: N_19  and  C_20
REMARK    5  A    between atoms: C_20  and  C_21
REMARK                            x       y       z     vdW  Elec       q    Type
REMARK                         _______ _______ _______ _____ _____    ______ ____
ROOT
ATOM      1  C   UNL     1       4.777   4.706  18.893  0.00  0.00    +0.000 A 
ATOM      2  C   UNL     1       4.762   3.622  19.757  0.00  0.00    +0.000 A 
ATOM      3  C   UNL     1       3.428   3.377  20.168  0.00  0.00    +0.000 A 
ATOM      4  C   UNL     1       2.836   2.440  21.036  0.00  0.00    +0.000 A 
ATOM      5  C   UNL     1       1.449   2.439  21.207  0.00  0.00    +0.000 A 
ATOM      6  C   UNL     1       0.653   3.344  20.513  0.00  0.00    +0.000 A 
ATOM      7  C   UNL     1       1.221   4.293  19.656  0.00  0.00    +0.000 A 
ATOM      8  C   UNL     1       2.621   4.307  19.512  0.00  0.00    +0.000 A 
ATOM      9  N   UNL     1       3.470   5.164  18.821  0.00  0.00    +0.000 N 
ENDROOT
BRANCH   1  11
ATOM     10  O   UNL     1       6.745   6.015  18.800  0.00  0.00    +0.000 OA
ATOM     11  C   UNL     1       5.923   5.304  18.232  0.00  0.00    +0.000 C 
ATOM     12  N   UNL     1       6.005   5.011  16.894  0.00  0.00    +0.000 N 
ATOM     13  H   UNL     1       5.185   4.650  16.426  0.00  0.00    +0.000 HD
BRANCH  12  14
ATOM     14  C   UNL     1       7.073   5.516  16.061  0.00  0.00    +0.000 C 
BRANCH  14  15
ATOM     15  C   UNL     1       7.022   4.981  14.650  0.00  0.00    +0.000 A 
ATOM     16  C   UNL     1       6.135   3.958  14.315  0.00  0.00    +0.000 A 
ATOM     17  C   UNL     1       6.079   3.521  12.995  0.00  0.00    +0.000 A 
ATOM     18  C   UNL     1       6.914   4.102  12.048  0.00  0.00    +0.000 A 
ATOM     19  C   UNL     1       7.785   5.093  12.467  0.00  0.00    +0.000 A 
ATOM     20  N   UNL     1       7.863   5.541  13.741  0.00  0.00    +0.000 NA
ENDBRANCH  14  15
ENDBRANCH  12  14
ENDBRANCH   1  11
BRANCH   9  21
ATOM     21  C   UNL     1       3.024   6.344  18.074  0.00  0.00    +0.000 C 
BRANCH  21  22
ATOM     22  C   UNL     1       2.378   7.411  18.927  0.00  0.00    +0.000 A 
ATOM     23  C   UNL     1       2.063   7.235  20.284  0.00  0.00    +0.000 A 
ATOM     24  C   UNL     1       1.348   8.209  20.989  0.00  0.00    +0.000 A 
ATOM     25  C   UNL     1       0.937   9.378  20.351  0.00  0.00    +0.000 A 
ATOM     26  C   UNL     1       1.253   9.576  19.010  0.00  0.00    +0.000 A 
ATOM     27  C   UNL     1       1.962   8.599  18.314  0.00  0.00    +0.000 A 
ATOM     28  F   UNL     1       2.214   8.802  17.012  0.00  0.00    +0.000 F 
ENDBRANCH  21  22
ENDBRANCH   9  21
TORSDOF 5
ENDMDL
MODEL 7
REMARK VINA RESULT:      -8.2      2.561      6.611
REMARK  Name = 
REMARK  5 active torsions:
REMARK  status: ('A' for Active; 'I' for Inactive)
REMARK    1  A    between atoms: C_2  and  C_11
REMARK    2  A    between atoms: N_3  and  C_4
REMARK    3  A    between atoms: C_4  and  C_5
REMARK    4  A    between atoms: N_19  and  C_20
REMARK    5  A    between atoms: C_20  and  C_21
REMARK                            x       y       z     vdW  Elec       q    Type
REMARK                         _______ _______ _______ _____ _____    ______ ____
ROOT
ATOM      1  C   UNL     1       3.320   7.097  17.994  0.00  0.00    +0.000 A 
ATOM      2  C   UNL     1       4.642   7.389  17.698  0.00  0.00    +0.000 A 
ATOM      3  C   UNL     1       5.250   6.247  17.119  0.00  0.00    +0.000 A 
ATOM      4  C   UNL     1       6.549   5.969  16.656  0.00  0.00    +0.000 A 
ATOM      5  C   UNL     1       6.828   4.721  16.093  0.00  0.00    +0.000 A 
ATOM      6  C   UNL     1       5.827   3.763  15.974  0.00  0.00    +0.000 A 
ATOM      7  C   UNL     1       4.532   4.013  16.440  0.00  0.00    +0.000 A 
ATOM      8  C   UNL     1       4.267   5.261  17.033  0.00  0.00    +0.000 A 
ATOM      9  N   UNL     1       3.132   5.765  17.658  0.00  0.00    +0.000 N 
ENDROOT
BRANCH   1  11
ATOM     10  O   UNL     1       1.977   7.900  19.768  0.00  0.00    +0.000 OA
ATOM     11  C   UNL     1       2.327   7.969  18.595  0.00  0.00    +0.000 C 
ATOM     12  N   UNL     1       1.794   8.884  17.722  0.00  0.00    +0.000 N 
ATOM     13  H   UNL     1       1.915   8.735  16.730  0.00  0.00    +0.000 HD
BRANCH  12  14
ATOM     14  C   UNL     1       0.788   9.839  18.130  0.00  0.00    +0.000 C 
BRANCH  14  15
ATOM     15  C   UNL     1       1.376  11.100  18.714  0.00  0.00    +0.000 A 
ATOM     16  C   UNL     1       2.264  11.875  17.969  0.00  0.00    +0.000 A 
ATOM     17  C   UNL     1       2.751  13.057  18.519  0.00  0.00    +0.000 A 
ATOM     18  C   UNL     1       2.353  13.430  19.797  0.00  0.00    +0.000 A 
ATOM     19  C   UNL     1       1.489  12.592  20.481  0.00  0.00    +0.000 A 
ATOM     20  N   UNL     1       0.997  11.438  19.975  0.00  0.00    +0.000 NA
ENDBRANCH  14  15
ENDBRANCH  12  14
ENDBRANCH   1  11
BRANCH   9  21
ATOM     21  C   UNL     1       1.897   5.003  17.867  0.00  0.00    +0.000 C 
BRANCH  21  22
ATOM     22  C   UNL     1       1.897   4.151  19.115  0.00  0.00    +0.000 A 
ATOM     23  C   UNL     1       1.945   4.680  20.415  0.00  0.00    +0.000 A 
ATOM     24  C   UNL     1       2.074   3.842  21.528  0.00  0.00    +0.000 A 
ATOM     25  C   UNL     1       2.155   2.461  21.362  0.00  0.00    +0.000 A 
ATOM     26  C   UNL     1       2.095   1.918  20.082  0.00  0.00    +0.000 A 
ATOM     27  C   UNL     1       1.970   2.760  18.978  0.00  0.00    +0.000 A 
ATOM     28  F   UNL     1       1.956   2.208  17.755  0.00  0.00    +0.000 F 
ENDBRANCH  21  22
ENDBRANCH   9  21
TORSDOF 5
ENDMDL
MODEL 8
REMARK VINA RESULT:      -8.1      3.270      7.492
REMARK  Name = 
REMARK  5 active torsions:
REMARK  status: ('A' for Active; 'I' for Inactive)
REMARK    1  A    between atoms: C_2  and  C_11
REMARK    2  A    between atoms: N_3  and  C_4
REMARK    3  A    between atoms: C_4  and  C_5
REMARK    4  A    between atoms: N_19  and  C_20
REMARK    5  A    between atoms: C_20  and  C_21
REMARK                            x       y       z     vdW  Elec       q    Type
REMARK                         _______ _______ _______ _____ _____    ______ ____
ROOT
ATOM      1  C   UNL     1       2.413   6.504  19.181  0.00  0.00    +0.000 A 
ATOM      2  C   UNL     1       1.680   6.048  20.265  0.00  0.00    +0.000 A 
ATOM      3  C   UNL     1       2.068   4.717  20.559  0.00  0.00    +0.000 A 
ATOM      4  C   UNL     1       1.653   3.774  21.518  0.00  0.00    +0.000 A 
ATOM      5  C   UNL     1       2.276   2.524  21.570  0.00  0.00    +0.000 A 
ATOM      6  C   UNL     1       3.311   2.216  20.693  0.00  0.00    +0.000 A 
ATOM      7  C   UNL     1       3.731   3.133  19.724  0.00  0.00    +0.000 A 
ATOM      8  C   UNL     1       3.079   4.378  19.659  0.00  0.00    +0.000 A 
ATOM      9  N   UNL     1       3.202   5.440  18.771  0.00  0.00    +0.000 N 
ENDROOT
BRANCH   1  11
ATOM     10  O   UNL     1       2.921   8.085  17.496  0.00  0.00    +0.000 OA
ATOM     11  C   UNL     1       2.343   7.805  18.540  0.00  0.00    +0.000 C 
ATOM     12  N   UNL     1       1.570   8.714  19.220  0.00  0.00    +0.000 N 
ATOM     13  H   UNL     1       1.335   8.526  20.184  0.00  0.00    +0.000 HD
BRANCH  12  14
ATOM     14  C   UNL     1       1.380  10.067  18.744  0.00  0.00    +0.000 C 
BRANCH  14  15
ATOM     15  C   UNL     1      -0.074  10.417  18.536  0.00  0.00    +0.000 A 
ATOM     16  C   UNL     1      -0.855   9.684  17.643  0.00  0.00    +0.000 A 
ATOM     17  C   UNL     1      -2.203  10.002  17.509  0.00  0.00    +0.000 A 
ATOM     18  C   UNL     1      -2.735  11.046  18.257  0.00  0.00    +0.000 A 
ATOM     19  C   UNL     1      -1.887  11.742  19.101  0.00  0.00    +0.000 A 
ATOM     20  N   UNL     1      -0.573  11.457  19.255  0.00  0.00    +0.000 NA
ENDBRANCH  14  15
ENDBRANCH  12  14
ENDBRANCH   1  11
BRANCH   9  21
ATOM     21  C   UNL     1       4.094   5.445  17.607  0.00  0.00    +0.000 C 
BRANCH  21  22
ATOM     22  C   UNL     1       5.525   5.815  17.923  0.00  0.00    +0.000 A 
ATOM     23  C   UNL     1       6.214   5.355  19.056  0.00  0.00    +0.000 A 
ATOM     24  C   UNL     1       7.492   5.834  19.365  0.00  0.00    +0.000 A 
ATOM     25  C   UNL     1       8.104   6.781  18.547  0.00  0.00    +0.000 A 
ATOM     26  C   UNL     1       7.442   7.239  17.412  0.00  0.00    +0.000 A 
ATOM     27  C   UNL     1       6.167   6.760  17.113  0.00  0.00    +0.000 A 
ATOM     28  F   UNL     1       5.539   7.251  16.034  0.00  0.00    +0.000 F 
ENDBRANCH  21  22
ENDBRANCH   9  21
TORSDOF 5
ENDMDL
MODEL 9
REMARK VINA RESULT:      -8.1      2.357      6.474
REMARK  Name = 
REMARK  5 active torsions:
REMARK  status: ('A' for Active; 'I' for Inactive)
REMARK    1  A    between atoms: C_2  and  C_11
REMARK    2  A    between atoms: N_3  and  C_4
REMARK    3  A    between atoms: C_4  and  C_5
REMARK    4  A    between atoms: N_19  and  C_20
REMARK    5  A    between atoms: C_20  and  C_21
REMARK                            x       y       z     vdW  Elec       q    Type
REMARK                         _______ _______ _______ _____ _____    ______ ____
ROOT
ATOM      1  C   UNL     1       3.428   6.921  17.889  0.00  0.00    +0.000 A 
ATOM      2  C   UNL     1       4.665   7.322  17.410  0.00  0.00    +0.000 A 
ATOM      3  C   UNL     1       5.303   6.216  16.794  0.00  0.00    +0.000 A 
ATOM      4  C   UNL     1       6.552   6.039  16.171  0.00  0.00    +0.000 A 
ATOM      5  C   UNL     1       6.877   4.798  15.618  0.00  0.00    +0.000 A 
ATOM      6  C   UNL     1       5.969   3.746  15.665  0.00  0.00    +0.000 A 
ATOM      7  C   UNL     1       4.726   3.895  16.291  0.00  0.00    +0.000 A 
ATOM      8  C   UNL     1       4.419   5.139  16.872  0.00  0.00    +0.000 A 
ATOM      9  N   UNL     1       3.331   5.563  17.625  0.00  0.00    +0.000 N 
ENDROOT
BRANCH   1  11
ATOM     10  O   UNL     1       2.145   7.569  19.768  0.00  0.00    +0.000 OA
ATOM     11  C   UNL     1       2.440   7.723  18.588  0.00  0.00    +0.000 C 
ATOM     12  N   UNL     1       1.846   8.678  17.800  0.00  0.00    +0.000 N 
ATOM     13  H   UNL     1       1.926   8.597  16.796  0.00  0.00    +0.000 HD
BRANCH  12  14
ATOM     14  C   UNL     1       0.834   9.574  18.312  0.00  0.00    +0.000 C 
BRANCH  14  15
ATOM     15  C   UNL     1       1.395  10.906  18.748  0.00  0.00    +0.000 A 
ATOM     16  C   UNL     1       2.259  11.615  17.915  0.00  0.00    +0.000 A 
ATOM     17  C   UNL     1       2.720  12.862  18.326  0.00  0.00    +0.000 A 
ATOM     18  C   UNL     1       2.320  13.364  19.559  0.00  0.00    +0.000 A 
ATOM     19  C   UNL     1       1.482  12.586  20.339  0.00  0.00    +0.000 A 
ATOM     20  N   UNL     1       1.015  11.373  19.968  0.00  0.00    +0.000 NA
ENDBRANCH  14  15
ENDBRANCH  12  14
ENDBRANCH   1  11
BRANCH   9  21
ATOM     21  C   UNL     1       2.214   4.700  18.023  0.00  0.00    +0.000 C 
BRANCH  21  22
ATOM     22  C   UNL     1       2.439   3.949  19.315  0.00  0.00    +0.000 A 
ATOM     23  C   UNL     1       3.518   3.076  19.528  0.00  0.00    +0.000 A 
ATOM     24  C   UNL     1       3.604   2.309  20.694  0.00  0.00    +0.000 A 
ATOM     25  C   UNL     1       2.614   2.401  21.670  0.00  0.00    +0.000 A 
ATOM     26  C   UNL     1       1.544   3.272  21.483  0.00  0.00    +0.000 A 
ATOM     27  C   UNL     1       1.463   4.030  20.316  0.00  0.00    +0.000 A 
ATOM     28  F   UNL     1       0.399   4.828  20.148  0.00  0.00    +0.000 F 
ENDBRANCH  21  22
ENDBRANCH   9  21
TORSDOF 5
ENDMDL
