MODEL 1
REMARK VINA RESULT:      -7.5      0.000      0.000
REMARK  Name = 
REMARK  4 active torsions:
REMARK  status: ('A' for Active; 'I' for Inactive)
REMARK    1  A    between atoms: C_1  and  C_2
REMARK    2  A    between atoms: C_4  and  S_5
REMARK    3  A    between atoms: S_5  and  N_8
REMARK    4  A    between atoms: C_14  and  C_15
REMARK                            x       y       z     vdW  Elec       q    Type
REMARK                         _______ _______ _______ _____ _____    ______ ____
ROOT
ATOM      1  S   UNL     1      -1.184  12.703  19.209  0.00  0.00    +0.000 S 
ATOM      2  O   UNL     1      -0.619  13.844  19.898  0.00  0.00    +0.000 OA
ATOM      3  O   UNL     1      -1.285  12.791  17.766  0.00  0.00    +0.000 OA
ENDROOT
BRANCH   1   7
ATOM      4  C   UNL     1       1.931   8.785  17.669  0.00  0.00    +0.000 C 
ATOM      5  C   UNL     1       1.204   9.465  18.790  0.00  0.00    +0.000 A 
ATOM      6  C   UNL     1       0.459  10.621  18.573  0.00  0.00    +0.000 A 
ATOM      7  C   UNL     1      -0.183  11.291  19.632  0.00  0.00    +0.000 A 
ATOM      8  C   UNL     1      -0.194  10.759  20.924  0.00  0.00    +0.000 A 
ATOM      9  N   UNL     1      -0.847  11.329  21.960  0.00  0.00    +0.000 NA
ATOM     10  C   UNL     1      -0.913  10.682  23.144  0.00  0.00    +0.000 A 
ATOM     11  C   UNL     1      -0.272   9.490  23.400  0.00  0.00    +0.000 A 
ATOM     12  C   UNL     1       0.476   8.931  22.377  0.00  0.00    +0.000 A 
ATOM     13  C   UNL     1       0.517   9.547  21.120  0.00  0.00    +0.000 A 
ATOM     14  C   UNL     1       1.230   8.935  20.075  0.00  0.00    +0.000 A 
ENDBRANCH   1   7
BRANCH   1  15
ATOM     15  N   UNL     1      -2.731  12.404  19.814  0.00  0.00    +0.000 NA
ATOM     16  C   UNL     1      -3.183  13.204  20.980  0.00  0.00    +0.000 C 
ATOM     17  C   UNL     1      -4.174  14.266  20.529  0.00  0.00    +0.000 C 
ATOM     18  N   UNL     1      -5.272  13.692  19.788  0.00  0.00    +0.000 N 
ATOM     19  C   UNL     1      -5.184  12.534  19.053  0.00  0.00    +0.000 C 
ATOM     20  O   UNL     1      -6.190  12.184  18.434  0.00  0.00    +0.000 OA
ATOM     21  C   UNL     1      -3.859  11.704  19.106  0.00  0.00    +0.000 C 
ATOM     22  H   UNL     1      -6.134  14.210  19.667  0.00  0.00    +0.000 HD
BRANCH  21  23
ATOM     23  C   UNL     1      -3.550  11.033  17.771  0.00  0.00    +0.000 A 
ATOM     24  C   UNL     1      -3.935  11.595  16.541  0.00  0.00    +0.000 A 
ATOM     25  C   UNL     1      -3.518  11.032  15.333  0.00  0.00    +0.000 A 
ATOM     26  C   UNL     1      -2.707   9.901  15.333  0.00  0.00    +0.000 A 
ATOM     27  C   UNL     1      -2.376   9.289  16.537  0.00  0.00    +0.000 A 
ATOM     28  C   UNL     1      -2.814   9.835  17.745  0.00  0.00    +0.000 A 
ENDBRANCH  21  23
ENDBRANCH   1  15
TORSDOF 3
ENDMDL
MODEL 2
REMARK VINA RESULT:      -6.9      3.599      5.582
REMARK  Name = 
REMARK  4 active torsions:
REMARK  status: ('A' for Active; 'I' for Inactive)
REMARK    1  A    between atoms: C_1  and  C_2
REMARK    2  A    between atoms: C_4  and  S_5
REMARK    3  A    between atoms: S_5  and  N_8
REMARK    4  A    between atoms: C_14  and  C_15
REMARK                            x       y       z     vdW  Elec       q    Type
REMARK                         _______ _______ _______ _____ _____    ______ ____
ROOT
ATOM      1  S   UNL     1      -0.008  13.542  19.449  0.00  0.00    +0.000 S 
ATOM      2  O   UNL     1       0.107  13.741  18.019  0.00  0.00    +0.000 OA
ATOM      3  O   UNL     1      -1.301  13.804  20.046  0.00  0.00    +0.000 OA
ENDROOT
BRANCH   1   7
ATOM      4  C   UNL     1       1.999   9.018  17.737  0.00  0.00    +0.000 C 
ATOM      5  C   UNL     1       1.342   9.777  18.851  0.00  0.00    +0.000 A 
ATOM      6  C   UNL     1       1.019  11.124  18.717  0.00  0.00    +0.000 A 
ATOM      7  C   UNL     1       0.448  11.851  19.778  0.00  0.00    +0.000 A 
ATOM      8  C   UNL     1       0.078  11.223  20.970  0.00  0.00    +0.000 A 
ATOM      9  N   UNL     1      -0.530  11.863  21.993  0.00  0.00    +0.000 NA
ATOM     10  C   UNL     1      -0.970  11.153  23.056  0.00  0.00    +0.000 A 
ATOM     11  C   UNL     1      -0.761   9.801  23.211  0.00  0.00    +0.000 A 
ATOM     12  C   UNL     1      -0.063   9.140  22.213  0.00  0.00    +0.000 A 
ATOM     13  C   UNL     1       0.355   9.836  21.072  0.00  0.00    +0.000 A 
ATOM     14  C   UNL     1       1.008   9.138  20.041  0.00  0.00    +0.000 A 
ENDBRANCH   1   7
BRANCH   1  15
ATOM     15  N   UNL     1       1.127  14.516  20.232  0.00  0.00    +0.000 NA
ATOM     16  C   UNL     1       2.390  13.880  20.683  0.00  0.00    +0.000 C 
ATOM     17  C   UNL     1       3.528  14.270  19.754  0.00  0.00    +0.000 C 
ATOM     18  N   UNL     1       3.643  15.703  19.620  0.00  0.00    +0.000 N 
ATOM     19  C   UNL     1       2.591  16.576  19.758  0.00  0.00    +0.000 C 
ATOM     20  O   UNL     1       2.825  17.772  19.574  0.00  0.00    +0.000 OA
ATOM     21  C   UNL     1       1.200  16.019  20.206  0.00  0.00    +0.000 C 
ATOM     22  H   UNL     1       4.500  16.118  19.276  0.00  0.00    +0.000 HD
BRANCH  21  23
ATOM     23  C   UNL     1       0.044  16.773  19.554  0.00  0.00    +0.000 A 
ATOM     24  C   UNL     1      -1.089  17.180  20.278  0.00  0.00    +0.000 A 
ATOM     25  C   UNL     1      -2.064  17.989  19.689  0.00  0.00    +0.000 A 
ATOM     26  C   UNL     1      -1.921  18.407  18.370  0.00  0.00    +0.000 A 
ATOM     27  C   UNL     1      -0.844  17.955  17.615  0.00  0.00    +0.000 A 
ATOM     28  C   UNL     1       0.118  17.125  18.194  0.00  0.00    +0.000 A 
ENDBRANCH  21  23
ENDBRANCH   1  15
TORSDOF 3
ENDMDL
MODEL 3
REMARK VINA RESULT:      -6.7      2.151      6.758
REMARK  Name = 
REMARK  4 active torsions:
REMARK  status: ('A' for Active; 'I' for Inactive)
REMARK    1  A    between atoms: C_1  and  C_2
REMARK    2  A    between atoms: C_4  and  S_5
REMARK    3  A    between atoms: S_5  and  N_8
REMARK    4  A    between atoms: C_14  and  C_15
REMARK                            x       y       z     vdW  Elec       q    Type
REMARK                         _______ _______ _______ _____ _____    ______ ____
ROOT
ATOM      1  S   UNL     1      -1.641  12.817  19.695  0.00  0.00    +0.000 S 
ATOM      2  O   UNL     1      -1.424  12.684  18.269  0.00  0.00    +0.000 OA
ATOM      3  O   UNL     1      -0.826  13.789  20.395  0.00  0.00    +0.000 OA
ENDROOT
BRANCH   1   7
ATOM      4  C   UNL     1      -5.271  15.778  22.036  0.00  0.00    +0.000 C 
ATOM      5  C   UNL     1      -4.962  14.628  21.125  0.00  0.00    +0.000 A 
ATOM      6  C   UNL     1      -3.650  14.277  20.821  0.00  0.00    +0.000 A 
ATOM      7  C   UNL     1      -3.359  13.231  19.926  0.00  0.00    +0.000 A 
ATOM      8  C   UNL     1      -4.372  12.428  19.396  0.00  0.00    +0.000 A 
ATOM      9  N   UNL     1      -4.140  11.373  18.584  0.00  0.00    +0.000 NA
ATOM     10  C   UNL     1      -5.166  10.573  18.221  0.00  0.00    +0.000 A 
ATOM     11  C   UNL     1      -6.479  10.813  18.561  0.00  0.00    +0.000 A 
ATOM     12  C   UNL     1      -6.750  11.938  19.322  0.00  0.00    +0.000 A 
ATOM     13  C   UNL     1      -5.702  12.756  19.762  0.00  0.00    +0.000 A 
ATOM     14  C   UNL     1      -5.988  13.859  20.585  0.00  0.00    +0.000 A 
ENDBRANCH   1   7
BRANCH   1  15
ATOM     15  N   UNL     1      -1.395  11.318  20.431  0.00  0.00    +0.000 NA
ATOM     16  C   UNL     1      -0.766  10.245  19.621  0.00  0.00    +0.000 C 
ATOM     17  C   UNL     1       0.684  10.060  20.042  0.00  0.00    +0.000 C 
ATOM     18  N   UNL     1       0.803   9.828  21.462  0.00  0.00    +0.000 N 
ATOM     19  C   UNL     1      -0.088  10.298  22.396  0.00  0.00    +0.000 C 
ATOM     20  O   UNL     1       0.162  10.062  23.580  0.00  0.00    +0.000 OA
ATOM     21  C   UNL     1      -1.382  11.027  21.907  0.00  0.00    +0.000 C 
ATOM     22  H   UNL     1       1.646   9.416  21.845  0.00  0.00    +0.000 HD
BRANCH  21  23
ATOM     23  C   UNL     1      -1.801  12.148  22.854  0.00  0.00    +0.000 A 
ATOM     24  C   UNL     1      -0.969  13.245  23.134  0.00  0.00    +0.000 A 
ATOM     25  C   UNL     1      -1.433  14.322  23.893  0.00  0.00    +0.000 A 
ATOM     26  C   UNL     1      -2.736  14.323  24.381  0.00  0.00    +0.000 A 
ATOM     27  C   UNL     1      -3.550  13.215  24.176  0.00  0.00    +0.000 A 
ATOM     28  C   UNL     1      -3.080  12.125  23.440  0.00  0.00    +0.000 A 
ENDBRANCH  21  23
ENDBRANCH   1  15
TORSDOF 3
ENDMDL
MODEL 4
REMARK VINA RESULT:      -6.7      2.188      5.726
REMARK  Name = 
REMARK  4 active torsions:
REMARK  status: ('A' for Active; 'I' for Inactive)
REMARK    1  A    between atoms: C_1  and  C_2
REMARK    2  A    between atoms: C_4  and  S_5
REMARK    3  A    between atoms: S_5  and  N_8
REMARK    4  A    between atoms: C_14  and  C_15
REMARK                            x       y       z     vdW  Elec       q    Type
REMARK                         _______ _______ _______ _____ _____    ______ ____
ROOT
ATOM      1  S   UNL     1      -2.665  13.340  20.550  0.00  0.00    +0.000 S 
ATOM      2  O   UNL     1      -3.349  14.614  20.476  0.00  0.00    +0.000 OA
ATOM      3  O   UNL     1      -2.587  12.712  21.854  0.00  0.00    +0.000 OA
ENDROOT
BRANCH   1   7
ATOM      4  C   UNL     1      -2.656  10.690  16.034  0.00  0.00    +0.000 C 
ATOM      5  C   UNL     1      -3.404  11.096  17.268  0.00  0.00    +0.000 A 
ATOM      6  C   UNL     1      -2.813  11.894  18.243  0.00  0.00    +0.000 A 
ATOM      7  C   UNL     1      -3.495  12.234  19.426  0.00  0.00    +0.000 A 
ATOM      8  C   UNL     1      -4.833  11.882  19.617  0.00  0.00    +0.000 A 
ATOM      9  N   UNL     1      -5.551  12.239  20.705  0.00  0.00    +0.000 NA
ATOM     10  C   UNL     1      -6.874  11.966  20.750  0.00  0.00    +0.000 A 
ATOM     11  C   UNL     1      -7.541  11.257  19.776  0.00  0.00    +0.000 A 
ATOM     12  C   UNL     1      -6.806  10.807  18.692  0.00  0.00    +0.000 A 
ATOM     13  C   UNL     1      -5.445  11.122  18.588  0.00  0.00    +0.000 A 
ATOM     14  C   UNL     1      -4.728  10.710  17.452  0.00  0.00    +0.000 A 
ENDBRANCH   1   7
BRANCH   1  15
ATOM     15  N   UNL     1      -1.088  13.528  19.977  0.00  0.00    +0.000 NA
ATOM     16  C   UNL     1      -0.685  14.871  19.492  0.00  0.00    +0.000 C 
ATOM     17  C   UNL     1       0.207  15.549  20.521  0.00  0.00    +0.000 C 
ATOM     18  N   UNL     1       1.337  14.723  20.876  0.00  0.00    +0.000 N 
ATOM     19  C   UNL     1       1.332  13.349  20.825  0.00  0.00    +0.000 C 
ATOM     20  O   UNL     1       2.354  12.770  21.200  0.00  0.00    +0.000 OA
ATOM     21  C   UNL     1       0.082  12.618  20.235  0.00  0.00    +0.000 C 
ATOM     22  H   UNL     1       2.151  15.131  21.318  0.00  0.00    +0.000 HD
BRANCH  21  23
ATOM     23  C   UNL     1      -0.192  11.293  20.940  0.00  0.00    +0.000 A 
ATOM     24  C   UNL     1      -0.244  10.071  20.249  0.00  0.00    +0.000 A 
ATOM     25  C   UNL     1      -0.357   8.861  20.937  0.00  0.00    +0.000 A 
ATOM     26  C   UNL     1      -0.417   8.851  22.327  0.00  0.00    +0.000 A 
ATOM     27  C   UNL     1      -0.441  10.054  23.026  0.00  0.00    +0.000 A 
ATOM     28  C   UNL     1      -0.354  11.266  22.337  0.00  0.00    +0.000 A 
ENDBRANCH  21  23
ENDBRANCH   1  15
TORSDOF 3
ENDMDL
MODEL 5
REMARK VINA RESULT:      -6.7      2.700      4.450
REMARK  Name = 
REMARK  4 active torsions:
REMARK  status: ('A' for Active; 'I' for Inactive)
REMARK    1  A    between atoms: C_1  and  C_2
REMARK    2  A    between atoms: C_4  and  S_5
REMARK    3  A    between atoms: S_5  and  N_8
REMARK    4  A    between atoms: C_14  and  C_15
REMARK                            x       y       z     vdW  Elec       q    Type
REMARK                         _______ _______ _______ _____ _____    ______ ____
ROOT
ATOM      1  S   UNL     1      -3.435  13.534  21.106  0.00  0.00    +0.000 S 
ATOM      2  O   UNL     1      -2.303  14.207  21.707  0.00  0.00    +0.000 OA
ATOM      3  O   UNL     1      -4.446  14.371  20.492  0.00  0.00    +0.000 OA
ENDROOT
BRANCH   1   7
ATOM      4  C   UNL     1      -4.082  10.958  16.592  0.00  0.00    +0.000 C 
ATOM      5  C   UNL     1      -3.226  11.219  17.796  0.00  0.00    +0.000 A 
ATOM      6  C   UNL     1      -3.611  12.134  18.772  0.00  0.00    +0.000 A 
ATOM      7  C   UNL     1      -2.786  12.418  19.877  0.00  0.00    +0.000 A 
ATOM      8  C   UNL     1      -1.602  11.711  20.098  0.00  0.00    +0.000 A 
ATOM      9  N   UNL     1      -0.809  11.902  21.175  0.00  0.00    +0.000 NA
ATOM     10  C   UNL     1       0.250  11.087  21.376  0.00  0.00    +0.000 A 
ATOM     11  C   UNL     1       0.635  10.103  20.493  0.00  0.00    +0.000 A 
ATOM     12  C   UNL     1      -0.115   9.947  19.338  0.00  0.00    +0.000 A 
ATOM     13  C   UNL     1      -1.251  10.737  19.128  0.00  0.00    +0.000 A 
ATOM     14  C   UNL     1      -2.036  10.525  17.982  0.00  0.00    +0.000 A 
ENDBRANCH   1   7
BRANCH   1  15
ATOM     15  N   UNL     1      -4.196  12.584  22.275  0.00  0.00    +0.000 NA
ATOM     16  C   UNL     1      -3.485  12.370  23.561  0.00  0.00    +0.000 C 
ATOM     17  C   UNL     1      -4.115  13.224  24.651  0.00  0.00    +0.000 C 
ATOM     18  N   UNL     1      -5.536  12.995  24.756  0.00  0.00    +0.000 N 
ATOM     19  C   UNL     1      -6.331  12.591  23.709  0.00  0.00    +0.000 C 
ATOM     20  O   UNL     1      -7.538  12.477  23.932  0.00  0.00    +0.000 OA
ATOM     21  C   UNL     1      -5.658  12.233  22.344  0.00  0.00    +0.000 C 
ATOM     22  H   UNL     1      -6.038  13.264  25.593  0.00  0.00    +0.000 HD
BRANCH  21  23
ATOM     23  C   UNL     1      -6.535  12.616  21.155  0.00  0.00    +0.000 A 
ATOM     24  C   UNL     1      -7.208  13.847  21.085  0.00  0.00    +0.000 A 
ATOM     25  C   UNL     1      -7.889  14.227  19.926  0.00  0.00    +0.000 A 
ATOM     26  C   UNL     1      -7.906  13.386  18.818  0.00  0.00    +0.000 A 
ATOM     27  C   UNL     1      -7.308  12.132  18.894  0.00  0.00    +0.000 A 
ATOM     28  C   UNL     1      -6.649  11.739  20.061  0.00  0.00    +0.000 A 
ENDBRANCH  21  23
ENDBRANCH   1  15
TORSDOF 3
ENDMDL
MODEL 6
REMARK VINA RESULT:      -6.7      2.659      5.015
REMARK  Name = 
REMARK  4 active torsions:
REMARK  status: ('A' for Active; 'I' for Inactive)
REMARK    1  A    between atoms: C_1  and  C_2
REMARK    2  A    between atoms: C_4  and  S_5
REMARK    3  A    between atoms: S_5  and  N_8
REMARK    4  A    between atoms: C_14  and  C_15
REMARK                            x       y       z     vdW  Elec       q    Type
REMARK                         _______ _______ _______ _____ _____    ______ ____
ROOT
ATOM      1  S   UNL     1      -1.042  12.227  21.582  0.00  0.00    +0.000 S 
ATOM      2  O   UNL     1      -2.027  11.601  22.439  0.00  0.00    +0.000 OA
ATOM      3  O   UNL     1       0.299  12.361  22.114  0.00  0.00    +0.000 OA
ENDROOT
BRANCH   1   7
ATOM      4  C   UNL     1       1.734   9.289  18.252  0.00  0.00    +0.000 C 
ATOM      5  C   UNL     1       0.435   9.969  18.570  0.00  0.00    +0.000 A 
ATOM      6  C   UNL     1       0.260  10.674  19.757  0.00  0.00    +0.000 A 
ATOM      7  C   UNL     1      -0.974  11.270  20.081  0.00  0.00    +0.000 A 
ATOM      8  C   UNL     1      -2.036  11.275  19.173  0.00  0.00    +0.000 A 
ATOM      9  N   UNL     1      -3.217  11.888  19.410  0.00  0.00    +0.000 NA
ATOM     10  C   UNL     1      -4.143  11.954  18.428  0.00  0.00    +0.000 A 
ATOM     11  C   UNL     1      -3.996  11.353  17.198  0.00  0.00    +0.000 A 
ATOM     12  C   UNL     1      -2.827  10.646  16.964  0.00  0.00    +0.000 A 
ATOM     13  C   UNL     1      -1.824  10.607  17.940  0.00  0.00    +0.000 A 
ATOM     14  C   UNL     1      -0.620   9.937  17.664  0.00  0.00    +0.000 A 
ENDBRANCH   1   7
BRANCH   1  15
ATOM     15  N   UNL     1      -1.581  13.768  21.157  0.00  0.00    +0.000 NA
ATOM     16  C   UNL     1      -2.764  14.308  21.873  0.00  0.00    +0.000 C 
ATOM     17  C   UNL     1      -2.325  15.354  22.887  0.00  0.00    +0.000 C 
ATOM     18  N   UNL     1      -1.524  16.388  22.275  0.00  0.00    +0.000 N 
ATOM     19  C   UNL     1      -0.745  16.200  21.159  0.00  0.00    +0.000 C 
ATOM     20  O   UNL     1      -0.078  17.161  20.771  0.00  0.00    +0.000 OA
ATOM     21  C   UNL     1      -0.807  14.825  20.416  0.00  0.00    +0.000 C 
ATOM     22  H   UNL     1      -1.396  17.279  22.740  0.00  0.00    +0.000 HD
BRANCH  21  23
ATOM     23  C   UNL     1       0.544  14.431  19.827  0.00  0.00    +0.000 A 
ATOM     24  C   UNL     1       1.732  14.478  20.575  0.00  0.00    +0.000 A 
ATOM     25  C   UNL     1       2.929  13.979  20.054  0.00  0.00    +0.000 A 
ATOM     26  C   UNL     1       2.957  13.423  18.778  0.00  0.00    +0.000 A 
ATOM     27  C   UNL     1       1.808  13.434  17.995  0.00  0.00    +0.000 A 
ATOM     28  C   UNL     1       0.616  13.956  18.504  0.00  0.00    +0.000 A 
ENDBRANCH  21  23
ENDBRANCH   1  15
TORSDOF 3
ENDMDL
MODEL 7
REMARK VINA RESULT:      -6.6      2.473      6.090
REMARK  Name = 
REMARK  4 active torsions:
REMARK  status: ('A' for Active; 'I' for Inactive)
REMARK    1  A    between atoms: C_1  and  C_2
REMARK    2  A    between atoms: C_4  and  S_5
REMARK    3  A    between atoms: S_5  and  N_8
REMARK    4  A    between atoms: C_14  and  C_15
REMARK                            x       y       z     vdW  Elec       q    Type
REMARK                         _______ _______ _______ _____ _____    ______ ____
ROOT
ATOM      1  S   UNL     1      -1.696  11.638  18.703  0.00  0.00    +0.000 S 
ATOM      2  O   UNL     1      -1.509  10.302  19.230  0.00  0.00    +0.000 OA
ATOM      3  O   UNL     1      -1.970  11.752  17.285  0.00  0.00    +0.000 OA
ENDROOT
BRANCH   1   7
ATOM      4  C   UNL     1      -3.337  14.435  22.815  0.00  0.00    +0.000 C 
ATOM      5  C   UNL     1      -3.694  13.632  21.600  0.00  0.00    +0.000 A 
ATOM      6  C   UNL     1      -2.711  13.083  20.781  0.00  0.00    +0.000 A 
ATOM      7  C   UNL     1      -3.041  12.373  19.612  0.00  0.00    +0.000 A 
ATOM      8  C   UNL     1      -4.371  12.091  19.288  0.00  0.00    +0.000 A 
ATOM      9  N   UNL     1      -4.738  11.359  18.212  0.00  0.00    +0.000 NA
ATOM     10  C   UNL     1      -6.036  11.026  18.044  0.00  0.00    +0.000 A 
ATOM     11  C   UNL     1      -7.050  11.463  18.868  0.00  0.00    +0.000 A 
ATOM     12  C   UNL     1      -6.706  12.286  19.928  0.00  0.00    +0.000 A 
ATOM     13  C   UNL     1      -5.362  12.602  20.163  0.00  0.00    +0.000 A 
ATOM     14  C   UNL     1      -5.025  13.388  21.278  0.00  0.00    +0.000 A 
ENDBRANCH   1   7
BRANCH   1  15
ATOM     15  N   UNL     1      -0.321  12.558  19.035  0.00  0.00    +0.000 NA
ATOM     16  C   UNL     1      -0.133  13.819  18.274  0.00  0.00    +0.000 C 
ATOM     17  C   UNL     1      -0.460  15.013  19.159  0.00  0.00    +0.000 C 
ATOM     18  N   UNL     1       0.294  14.988  20.390  0.00  0.00    +0.000 N 
ATOM     19  C   UNL     1       0.746  13.838  20.993  0.00  0.00    +0.000 C 
ATOM     20  O   UNL     1       1.339  13.963  22.067  0.00  0.00    +0.000 OA
ATOM     21  C   UNL     1       0.551  12.472  20.258  0.00  0.00    +0.000 C 
ATOM     22  H   UNL     1       0.401  15.830  20.942  0.00  0.00    +0.000 HD
BRANCH  21  23
ATOM     23  C   UNL     1       0.291  11.328  21.235  0.00  0.00    +0.000 A 
ATOM     24  C   UNL     1      -0.585  11.457  22.325  0.00  0.00    +0.000 A 
ATOM     25  C   UNL     1      -0.910  10.354  23.119  0.00  0.00    +0.000 A 
ATOM     26  C   UNL     1      -0.368   9.105  22.834  0.00  0.00    +0.000 A 
ATOM     27  C   UNL     1       0.557   8.972  21.804  0.00  0.00    +0.000 A 
ATOM     28  C   UNL     1       0.904  10.079  21.026  0.00  0.00    +0.000 A 
ENDBRANCH  21  23
ENDBRANCH   1  15
TORSDOF 3
ENDMDL
MODEL 8
REMARK VINA RESULT:      -6.5      1.754      5.013
REMARK  Name = 
REMARK  4 active torsions:
REMARK  status: ('A' for Active; 'I' for Inactive)
REMARK    1  A    between atoms: C_1  and  C_2
REMARK    2  A    between atoms: C_4  and  S_5
REMARK    3  A    between atoms: S_5  and  N_8
REMARK    4  A    between atoms: C_14  and  C_15
REMARK                            x       y       z     vdW  Elec       q    Type
REMARK                         _______ _______ _______ _____ _____    ______ ____
ROOT
ATOM      1  S   UNL     1      -1.494  13.666  20.096  0.00  0.00    +0.000 S 
ATOM      2  O   UNL     1      -0.445  13.934  19.134  0.00  0.00    +0.000 OA
ATOM      3  O   UNL     1      -2.273  14.799  20.551  0.00  0.00    +0.000 OA
ENDROOT
BRANCH   1   7
ATOM      4  C   UNL     1      -2.386  10.102  16.364  0.00  0.00    +0.000 C 
ATOM      5  C   UNL     1      -2.915  10.879  17.532  0.00  0.00    +0.000 A 
ATOM      6  C   UNL     1      -2.111  11.779  18.227  0.00  0.00    +0.000 A 
ATOM      7  C   UNL     1      -2.589  12.472  19.355  0.00  0.00    +0.000 A 
ATOM      8  C   UNL     1      -3.924  12.371  19.754  0.00  0.00    +0.000 A 
ATOM      9  N   UNL     1      -4.447  13.063  20.790  0.00  0.00    +0.000 NA
ATOM     10  C   UNL     1      -5.776  13.005  21.027  0.00  0.00    +0.000 A 
ATOM     11  C   UNL     1      -6.644  12.203  20.321  0.00  0.00    +0.000 A 
ATOM     12  C   UNL     1      -6.114  11.418  19.309  0.00  0.00    +0.000 A 
ATOM     13  C   UNL     1      -4.751  11.499  19.000  0.00  0.00    +0.000 A 
ATOM     14  C   UNL     1      -4.240  10.743  17.931  0.00  0.00    +0.000 A 
ENDBRANCH   1   7
BRANCH   1  15
ATOM     15  N   UNL     1      -0.817  12.930  21.457  0.00  0.00    +0.000 NA
ATOM     16  C   UNL     1      -1.458  13.185  22.771  0.00  0.00    +0.000 C 
ATOM     17  C   UNL     1      -2.258  11.966  23.204  0.00  0.00    +0.000 C 
ATOM     18  N   UNL     1      -1.453  10.768  23.200  0.00  0.00    +0.000 N 
ATOM     19  C   UNL     1      -0.366  10.573  22.381  0.00  0.00    +0.000 C 
ATOM     20  O   UNL     1       0.203   9.483  22.454  0.00  0.00    +0.000 OA
ATOM     21  C   UNL     1       0.120  11.752  21.476  0.00  0.00    +0.000 C 
ATOM     22  H   UNL     1      -1.749   9.950  23.719  0.00  0.00    +0.000 HD
BRANCH  21  23
ATOM     23  C   UNL     1       0.667  11.260  20.139  0.00  0.00    +0.000 A 
ATOM     24  C   UNL     1       1.651  11.964  19.426  0.00  0.00    +0.000 A 
ATOM     25  C   UNL     1       2.233  11.421  18.278  0.00  0.00    +0.000 A 
ATOM     26  C   UNL     1       1.843  10.164  17.826  0.00  0.00    +0.000 A 
ATOM     27  C   UNL     1       0.819   9.484  18.476  0.00  0.00    +0.000 A 
ATOM     28  C   UNL     1       0.218  10.037  19.609  0.00  0.00    +0.000 A 
ENDBRANCH  21  23
ENDBRANCH   1  15
TORSDOF 3
ENDMDL
MODEL 9
REMARK VINA RESULT:      -6.5      3.444      6.626
REMARK  Name = 
REMARK  4 active torsions:
REMARK  status: ('A' for Active; 'I' for Inactive)
REMARK    1  A    between atoms: C_1  and  C_2
REMARK    2  A    between atoms: C_4  and  S_5
REMARK    3  A    between atoms: S_5  and  N_8
REMARK    4  A    between atoms: C_14  and  C_15
REMARK                            x       y       z     vdW  Elec       q    Type
REMARK                         _______ _______ _______ _____ _____    ______ ____
ROOT
ATOM      1  S   UNL     1       1.794  14.293  20.565  0.00  0.00    +0.000 S 
ATOM      2  O   UNL     1       2.810  15.186  20.049  0.00  0.00    +0.000 OA
ATOM      3  O   UNL     1       2.209  13.338  21.571  0.00  0.00    +0.000 OA
ENDROOT
BRANCH   1   7
ATOM      4  C   UNL     1      -1.288  15.551  24.608  0.00  0.00    +0.000 C 
ATOM      5  C   UNL     1      -0.927  15.768  23.169  0.00  0.00    +0.000 A 
ATOM      6  C   UNL     1       0.124  15.075  22.574  0.00  0.00    +0.000 A 
ATOM      7  C   UNL     1       0.497  15.313  21.238  0.00  0.00    +0.000 A 
ATOM      8  C   UNL     1      -0.244  16.171  20.421  0.00  0.00    +0.000 A 
ATOM      9  N   UNL     1       0.034  16.384  19.116  0.00  0.00    +0.000 NA
ATOM     10  C   UNL     1      -0.809  17.128  18.367  0.00  0.00    +0.000 A 
ATOM     11  C   UNL     1      -1.917  17.770  18.874  0.00  0.00    +0.000 A 
ATOM     12  C   UNL     1      -2.173  17.635  20.229  0.00  0.00    +0.000 A 
ATOM     13  C   UNL     1      -1.351  16.824  21.021  0.00  0.00    +0.000 A 
ATOM     14  C   UNL     1      -1.660  16.648  22.380  0.00  0.00    +0.000 A 
ENDBRANCH   1   7
BRANCH   1  15
ATOM     15  N   UNL     1       1.119  13.427  19.282  0.00  0.00    +0.000 NA
ATOM     16  C   UNL     1       1.936  13.263  18.054  0.00  0.00    +0.000 C 
ATOM     17  C   UNL     1       2.490  11.848  17.983  0.00  0.00    +0.000 C 
ATOM     18  N   UNL     1       1.444  10.859  18.093  0.00  0.00    +0.000 N 
ATOM     19  C   UNL     1       0.261  11.060  18.763  0.00  0.00    +0.000 C 
ATOM     20  O   UNL     1      -0.525  10.111  18.813  0.00  0.00    +0.000 OA
ATOM     21  C   UNL     1      -0.046  12.478  19.347  0.00  0.00    +0.000 C 
ATOM     22  H   UNL     1       1.605   9.907  17.788  0.00  0.00    +0.000 HD
BRANCH  21  23
ATOM     23  C   UNL     1      -0.827  12.402  20.655  0.00  0.00    +0.000 A 
ATOM     24  C   UNL     1      -2.082  13.012  20.817  0.00  0.00    +0.000 A 
ATOM     25  C   UNL     1      -2.835  12.809  21.977  0.00  0.00    +0.000 A 
ATOM     26  C   UNL     1      -2.348  11.990  22.990  0.00  0.00    +0.000 A 
ATOM     27  C   UNL     1      -1.077  11.436  22.880  0.00  0.00    +0.000 A 
ATOM     28  C   UNL     1      -0.312  11.659  21.733  0.00  0.00    +0.000 A 
ENDBRANCH  21  23
ENDBRANCH   1  15
TORSDOF 3
ENDMDL
