MODEL 1
REMARK VINA RESULT:      -7.8      0.000      0.000
REMARK  Name = 
REMARK  8 active torsions:
REMARK  status: ('A' for Active; 'I' for Inactive)
REMARK    1  A    between atoms: C_2  and  C_25
REMARK    2  A    between atoms: N_3  and  C_4
REMARK    3  A    between atoms: C_4  and  C_5
REMARK    4  A    between atoms: N_7  and  C_8
REMARK    5  A    between atoms: C_8  and  C_9
REMARK    6  A    between atoms: N_11  and  C_12
REMARK    7  A    between atoms: N_11  and  C_19
REMARK    8  A    between atoms: C_12  and  C_13
REMARK                            x       y       z     vdW  Elec       q    Type
REMARK                         _______ _______ _______ _____ _____    ______ ____
ROOT
ATOM      1  C   UNL     1      -0.164   9.677  21.725  0.00  0.00    +0.000 C 
ATOM      2  C   UNL     1       1.358   9.735  21.438  0.00  0.00    +0.000 C 
ATOM      3  N   UNL     1       1.737   9.252  20.084  0.00  0.00    +0.000 NA
ATOM      4  C   UNL     1       0.883   9.956  19.101  0.00  0.00    +0.000 C 
ATOM      5  C   UNL     1      -0.620   9.920  19.424  0.00  0.00    +0.000 C 
ATOM      6  O   UNL     1      -0.883  10.437  20.735  0.00  0.00    +0.000 OA
ENDROOT
BRANCH   1   7
ATOM      7  C   UNL     1      -0.509  10.247  23.109  0.00  0.00    +0.000 C 
BRANCH   7  10
ATOM      8  O   UNL     1      -0.637  13.080  23.417  0.00  0.00    +0.000 OA
ATOM      9  C   UNL     1      -1.679  12.435  23.335  0.00  0.00    +0.000 C 
ATOM     10  N   UNL     1      -1.701  11.070  23.143  0.00  0.00    +0.000 N 
ATOM     11  H   UNL     1      -2.613  10.624  23.153  0.00  0.00    +0.000 HD
BRANCH   9  12
ATOM     12  C   UNL     1      -2.994  13.027  23.412  0.00  0.00    +0.000 A 
ATOM     13  C   UNL     1      -3.419  14.331  23.248  0.00  0.00    +0.000 A 
ATOM     14  C   UNL     1      -4.815  14.343  23.505  0.00  0.00    +0.000 A 
ATOM     15  C   UNL     1      -5.821  15.322  23.552  0.00  0.00    +0.000 A 
ATOM     16  C   UNL     1      -7.124  14.928  23.892  0.00  0.00    +0.000 A 
ATOM     17  C   UNL     1      -7.429  13.590  24.156  0.00  0.00    +0.000 A 
ATOM     18  C   UNL     1      -6.447  12.599  24.092  0.00  0.00    +0.000 A 
ATOM     19  C   UNL     1      -5.160  13.025  23.775  0.00  0.00    +0.000 A 
ATOM     20  O   UNL     1      -4.065  12.223  23.704  0.00  0.00    +0.000 OA
ENDBRANCH   9  12
ENDBRANCH   7  10
ENDBRANCH   1   7
BRANCH   3  21
ATOM     21  C   UNL     1       1.608   7.775  20.017  0.00  0.00    +0.000 C 
BRANCH  21  22
ATOM     22  C   UNL     1       2.326   7.099  18.826  0.00  0.00    +0.000 C 
ATOM     23  O   UNL     1       2.720   7.715  17.836  0.00  0.00    +0.000 OA
ATOM     24  N   UNL     1       2.487   5.706  18.952  0.00  0.00    +0.000 N 
BRANCH  24  25
ATOM     25  C   UNL     1       2.211   5.002  20.185  0.00  0.00    +0.000 C 
ATOM     26  C   UNL     1       2.362   3.512  20.340  0.00  0.00    +0.000 C 
ATOM     27  C   UNL     1       0.996   4.120  20.321  0.00  0.00    +0.000 C 
ENDBRANCH  24  25
BRANCH  24  28
ATOM     28  C   UNL     1       3.259   4.998  17.926  0.00  0.00    +0.000 C 
BRANCH  28  29
ATOM     29  C   UNL     1       4.768   5.140  18.023  0.00  0.00    +0.000 A 
ATOM     30  C   UNL     1       5.419   5.439  19.227  0.00  0.00    +0.000 A 
ATOM     31  C   UNL     1       6.815   5.429  19.309  0.00  0.00    +0.000 A 
ATOM     32  C   UNL     1       7.580   5.113  18.188  0.00  0.00    +0.000 A 
ATOM     33  C   UNL     1       6.951   4.830  16.980  0.00  0.00    +0.000 A 
ATOM     34  C   UNL     1       5.557   4.843  16.895  0.00  0.00    +0.000 A 
ENDBRANCH  28  29
ENDBRANCH  24  28
ENDBRANCH  21  22
ENDBRANCH   3  21
TORSDOF 8
ENDMDL
MODEL 2
REMARK VINA RESULT:      -7.8      5.276     10.434
REMARK  Name = 
REMARK  8 active torsions:
REMARK  status: ('A' for Active; 'I' for Inactive)
REMARK    1  A    between atoms: C_2  and  C_25
REMARK    2  A    between atoms: N_3  and  C_4
REMARK    3  A    between atoms: C_4  and  C_5
REMARK    4  A    between atoms: N_7  and  C_8
REMARK    5  A    between atoms: C_8  and  C_9
REMARK    6  A    between atoms: N_11  and  C_12
REMARK    7  A    between atoms: N_11  and  C_19
REMARK    8  A    between atoms: C_12  and  C_13
REMARK                            x       y       z     vdW  Elec       q    Type
REMARK                         _______ _______ _______ _____ _____    ______ ____
ROOT
ATOM      1  C   UNL     1       7.032   5.402  17.740  0.00  0.00    +0.000 C 
ATOM      2  C   UNL     1       5.962   4.404  18.251  0.00  0.00    +0.000 C 
ATOM      3  N   UNL     1       4.978   3.991  17.214  0.00  0.00    +0.000 NA
ATOM      4  C   UNL     1       5.738   3.547  16.024  0.00  0.00    +0.000 C 
ATOM      5  C   UNL     1       6.821   4.535  15.558  0.00  0.00    +0.000 C 
ATOM      6  O   UNL     1       7.738   4.840  16.617  0.00  0.00    +0.000 OA
ENDROOT
BRANCH   1   7
ATOM      7  C   UNL     1       8.062   5.744  18.828  0.00  0.00    +0.000 C 
BRANCH   7  10
ATOM      8  O   UNL     1       7.549   7.798  16.916  0.00  0.00    +0.000 OA
ATOM      9  C   UNL     1       8.104   8.085  17.974  0.00  0.00    +0.000 C 
ATOM     10  N   UNL     1       8.349   7.158  18.965  0.00  0.00    +0.000 N 
ATOM     11  H   UNL     1       8.870   7.483  19.773  0.00  0.00    +0.000 HD
BRANCH   9  12
ATOM     12  C   UNL     1       8.547   9.418  18.310  0.00  0.00    +0.000 A 
ATOM     13  C   UNL     1       8.398  10.622  17.650  0.00  0.00    +0.000 A 
ATOM     14  C   UNL     1       9.096  11.596  18.412  0.00  0.00    +0.000 A 
ATOM     15  C   UNL     1       9.369  12.967  18.283  0.00  0.00    +0.000 A 
ATOM     16  C   UNL     1      10.158  13.589  19.263  0.00  0.00    +0.000 A 
ATOM     17  C   UNL     1      10.645  12.872  20.360  0.00  0.00    +0.000 A 
ATOM     18  C   UNL     1      10.364  11.513  20.517  0.00  0.00    +0.000 A 
ATOM     19  C   UNL     1       9.600  10.921  19.517  0.00  0.00    +0.000 A 
ATOM     20  O   UNL     1       9.257   9.606  19.468  0.00  0.00    +0.000 OA
ENDBRANCH   9  12
ENDBRANCH   7  10
ENDBRANCH   1   7
BRANCH   3  21
ATOM     21  C   UNL     1       4.044   5.108  16.928  0.00  0.00    +0.000 C 
BRANCH  21  22
ATOM     22  C   UNL     1       3.877   6.142  18.064  0.00  0.00    +0.000 C 
ATOM     23  O   UNL     1       4.542   7.175  18.142  0.00  0.00    +0.000 OA
ATOM     24  N   UNL     1       2.904   5.806  19.025  0.00  0.00    +0.000 N 
BRANCH  24  25
ATOM     25  C   UNL     1       1.984   4.706  18.844  0.00  0.00    +0.000 C 
ATOM     26  C   UNL     1       1.076   4.197  19.933  0.00  0.00    +0.000 C 
ATOM     27  C   UNL     1       2.238   3.366  19.488  0.00  0.00    +0.000 C 
ENDBRANCH  24  25
BRANCH  24  28
ATOM     28  C   UNL     1       2.596   6.783  20.075  0.00  0.00    +0.000 C 
BRANCH  28  29
ATOM     29  C   UNL     1       1.702   7.938  19.657  0.00  0.00    +0.000 A 
ATOM     30  C   UNL     1       0.991   8.711  20.584  0.00  0.00    +0.000 A 
ATOM     31  C   UNL     1       0.286   9.849  20.177  0.00  0.00    +0.000 A 
ATOM     32  C   UNL     1       0.290  10.233  18.838  0.00  0.00    +0.000 A 
ATOM     33  C   UNL     1       0.978   9.468  17.902  0.00  0.00    +0.000 A 
ATOM     34  C   UNL     1       1.679   8.330  18.305  0.00  0.00    +0.000 A 
ENDBRANCH  28  29
ENDBRANCH  24  28
ENDBRANCH  21  22
ENDBRANCH   3  21
TORSDOF 8
ENDMDL
MODEL 3
REMARK VINA RESULT:      -7.6      4.180      6.922
REMARK  Name = 
REMARK  8 active torsions:
REMARK  status: ('A' for Active; 'I' for Inactive)
REMARK    1  A    between atoms: C_2  and  C_25
REMARK    2  A    between atoms: N_3  and  C_4
REMARK    3  A    between atoms: C_4  and  C_5
REMARK    4  A    between atoms: N_7  and  C_8
REMARK    5  A    between atoms: C_8  and  C_9
REMARK    6  A    between atoms: N_11  and  C_12
REMARK    7  A    between atoms: N_11  and  C_19
REMARK    8  A    between atoms: C_12  and  C_13
REMARK                            x       y       z     vdW  Elec       q    Type
REMARK                         _______ _______ _______ _____ _____    ______ ____
ROOT
ATOM      1  C   UNL     1       0.782  11.113  21.126  0.00  0.00    +0.000 C 
ATOM      2  C   UNL     1       0.246  10.064  20.118  0.00  0.00    +0.000 C 
ATOM      3  N   UNL     1       0.193   8.680  20.658  0.00  0.00    +0.000 NA
ATOM      4  C   UNL     1      -0.521   8.730  21.954  0.00  0.00    +0.000 C 
ATOM      5  C   UNL     1       0.000   9.804  22.924  0.00  0.00    +0.000 C 
ATOM      6  O   UNL     1      -0.021  11.105  22.322  0.00  0.00    +0.000 OA
ENDROOT
BRANCH   1   7
ATOM      7  C   UNL     1       0.755  12.534  20.543  0.00  0.00    +0.000 C 
BRANCH   7  10
ATOM      8  O   UNL     1       1.320  14.816  18.928  0.00  0.00    +0.000 OA
ATOM      9  C   UNL     1       2.249  14.174  19.409  0.00  0.00    +0.000 C 
ATOM     10  N   UNL     1       2.058  13.086  20.234  0.00  0.00    +0.000 N 
ATOM     11  H   UNL     1       2.892  12.585  20.528  0.00  0.00    +0.000 HD
BRANCH   9  12
ATOM     12  C   UNL     1       3.641  14.490  19.186  0.00  0.00    +0.000 A 
ATOM     13  C   UNL     1       4.383  14.570  18.024  0.00  0.00    +0.000 A 
ATOM     14  C   UNL     1       5.719  14.854  18.410  0.00  0.00    +0.000 A 
ATOM     15  C   UNL     1       6.946  15.015  17.745  0.00  0.00    +0.000 A 
ATOM     16  C   UNL     1       8.097  15.257  18.511  0.00  0.00    +0.000 A 
ATOM     17  C   UNL     1       8.029  15.362  19.903  0.00  0.00    +0.000 A 
ATOM     18  C   UNL     1       6.815  15.229  20.579  0.00  0.00    +0.000 A 
ATOM     19  C   UNL     1       5.697  14.965  19.795  0.00  0.00    +0.000 A 
ATOM     20  O   UNL     1       4.439  14.762  20.267  0.00  0.00    +0.000 OA
ENDBRANCH   9  12
ENDBRANCH   7  10
ENDBRANCH   1   7
BRANCH   3  21
ATOM     21  C   UNL     1       1.564   8.124  20.768  0.00  0.00    +0.000 C 
BRANCH  21  22
ATOM     22  C   UNL     1       2.195   7.643  19.441  0.00  0.00    +0.000 C 
ATOM     23  O   UNL     1       2.488   8.401  18.517  0.00  0.00    +0.000 OA
ATOM     24  N   UNL     1       2.399   6.252  19.360  0.00  0.00    +0.000 N 
BRANCH  24  25
ATOM     25  C   UNL     1       2.246   5.378  20.501  0.00  0.00    +0.000 C 
ATOM     26  C   UNL     1       2.506   3.895  20.450  0.00  0.00    +0.000 C 
ATOM     27  C   UNL     1       1.103   4.397  20.582  0.00  0.00    +0.000 C 
ENDBRANCH  24  25
BRANCH  24  28
ATOM     28  C   UNL     1       3.098   5.718  18.186  0.00  0.00    +0.000 C 
BRANCH  28  29
ATOM     29  C   UNL     1       4.603   5.923  18.167  0.00  0.00    +0.000 A 
ATOM     30  C   UNL     1       5.449   5.374  19.139  0.00  0.00    +0.000 A 
ATOM     31  C   UNL     1       6.839   5.470  19.016  0.00  0.00    +0.000 A 
ATOM     32  C   UNL     1       7.403   6.109  17.914  0.00  0.00    +0.000 A 
ATOM     33  C   UNL     1       6.577   6.674  16.947  0.00  0.00    +0.000 A 
ATOM     34  C   UNL     1       5.189   6.584  17.070  0.00  0.00    +0.000 A 
ENDBRANCH  28  29
ENDBRANCH  24  28
ENDBRANCH  21  22
ENDBRANCH   3  21
TORSDOF 8
ENDMDL
MODEL 4
REMARK VINA RESULT:      -7.6      3.716      5.789
REMARK  Name = 
REMARK  8 active torsions:
REMARK  status: ('A' for Active; 'I' for Inactive)
REMARK    1  A    between atoms: C_2  and  C_25
REMARK    2  A    between atoms: N_3  and  C_4
REMARK    3  A    between atoms: C_4  and  C_5
REMARK    4  A    between atoms: N_7  and  C_8
REMARK    5  A    between atoms: C_8  and  C_9
REMARK    6  A    between atoms: N_11  and  C_12
REMARK    7  A    between atoms: N_11  and  C_19
REMARK    8  A    between atoms: C_12  and  C_13
REMARK                            x       y       z     vdW  Elec       q    Type
REMARK                         _______ _______ _______ _____ _____    ______ ____
ROOT
ATOM      1  C   UNL     1       2.090   7.313  20.456  0.00  0.00    +0.000 C 
ATOM      2  C   UNL     1       2.402   7.228  18.940  0.00  0.00    +0.000 C 
ATOM      3  N   UNL     1       2.959   5.917  18.511  0.00  0.00    +0.000 NA
ATOM      4  C   UNL     1       2.066   4.857  19.032  0.00  0.00    +0.000 C 
ATOM      5  C   UNL     1       1.738   4.983  20.529  0.00  0.00    +0.000 C 
ATOM      6  O   UNL     1       1.175   6.266  20.833  0.00  0.00    +0.000 OA
ENDROOT
BRANCH   1   7
ATOM      7  C   UNL     1       1.456   8.660  20.835  0.00  0.00    +0.000 C 
BRANCH   7  10
ATOM      8  O   UNL     1       0.047  11.138  20.952  0.00  0.00    +0.000 OA
ATOM      9  C   UNL     1      -0.187  10.354  20.036  0.00  0.00    +0.000 C 
ATOM     10  N   UNL     1       0.481   9.157  19.886  0.00  0.00    +0.000 N 
ATOM     11  H   UNL     1       0.168   8.553  19.132  0.00  0.00    +0.000 HD
BRANCH   9  12
ATOM     12  C   UNL     1      -1.169  10.598  19.005  0.00  0.00    +0.000 A 
ATOM     13  C   UNL     1      -2.293  11.401  18.987  0.00  0.00    +0.000 A 
ATOM     14  C   UNL     1      -2.921  11.199  17.730  0.00  0.00    +0.000 A 
ATOM     15  C   UNL     1      -4.091  11.661  17.104  0.00  0.00    +0.000 A 
ATOM     16  C   UNL     1      -4.400  11.181  15.823  0.00  0.00    +0.000 A 
ATOM     17  C   UNL     1      -3.556  10.281  15.166  0.00  0.00    +0.000 A 
ATOM     18  C   UNL     1      -2.377   9.828  15.763  0.00  0.00    +0.000 A 
ATOM     19  C   UNL     1      -2.111  10.304  17.043  0.00  0.00    +0.000 A 
ATOM     20  O   UNL     1      -1.041   9.951  17.803  0.00  0.00    +0.000 OA
ENDBRANCH   9  12
ENDBRANCH   7  10
ENDBRANCH   1   7
BRANCH   3  21
ATOM     21  C   UNL     1       4.360   5.783  18.980  0.00  0.00    +0.000 C 
BRANCH  21  22
ATOM     22  C   UNL     1       5.231   4.777  18.193  0.00  0.00    +0.000 C 
ATOM     23  O   UNL     1       4.933   3.592  18.049  0.00  0.00    +0.000 OA
ATOM     24  N   UNL     1       6.415   5.320  17.656  0.00  0.00    +0.000 N 
BRANCH  24  25
ATOM     25  C   UNL     1       6.680   6.741  17.646  0.00  0.00    +0.000 C 
ATOM     26  C   UNL     1       7.840   7.363  16.914  0.00  0.00    +0.000 C 
ATOM     27  C   UNL     1       7.846   7.320  18.409  0.00  0.00    +0.000 C 
ENDBRANCH  24  25
BRANCH  24  28
ATOM     28  C   UNL     1       7.244   4.470  16.796  0.00  0.00    +0.000 C 
BRANCH  28  29
ATOM     29  C   UNL     1       6.885   4.477  15.321  0.00  0.00    +0.000 A 
ATOM     30  C   UNL     1       7.662   5.140  14.362  0.00  0.00    +0.000 A 
ATOM     31  C   UNL     1       7.379   5.014  12.998  0.00  0.00    +0.000 A 
ATOM     32  C   UNL     1       6.318   4.216  12.574  0.00  0.00    +0.000 A 
ATOM     33  C   UNL     1       5.527   3.564  13.513  0.00  0.00    +0.000 A 
ATOM     34  C   UNL     1       5.805   3.691  14.875  0.00  0.00    +0.000 A 
ENDBRANCH  28  29
ENDBRANCH  24  28
ENDBRANCH  21  22
ENDBRANCH   3  21
TORSDOF 8
ENDMDL
MODEL 5
REMARK VINA RESULT:      -7.6      4.371      7.009
REMARK  Name = 
REMARK  8 active torsions:
REMARK  status: ('A' for Active; 'I' for Inactive)
REMARK    1  A    between atoms: C_2  and  C_25
REMARK    2  A    between atoms: N_3  and  C_4
REMARK    3  A    between atoms: C_4  and  C_5
REMARK    4  A    between atoms: N_7  and  C_8
REMARK    5  A    between atoms: C_8  and  C_9
REMARK    6  A    between atoms: N_11  and  C_12
REMARK    7  A    between atoms: N_11  and  C_19
REMARK    8  A    between atoms: C_12  and  C_13
REMARK                            x       y       z     vdW  Elec       q    Type
REMARK                         _______ _______ _______ _____ _____    ______ ____
ROOT
ATOM      1  C   UNL     1       0.877  11.097  20.912  0.00  0.00    +0.000 C 
ATOM      2  C   UNL     1       0.308  10.007  19.967  0.00  0.00    +0.000 C 
ATOM      3  N   UNL     1       0.268   8.648  20.568  0.00  0.00    +0.000 NA
ATOM      4  C   UNL     1      -0.406   8.757  21.881  0.00  0.00    +0.000 C 
ATOM      5  C   UNL     1       0.147   9.869  22.788  0.00  0.00    +0.000 C 
ATOM      6  O   UNL     1       0.111  11.143  22.131  0.00  0.00    +0.000 OA
ENDROOT
BRANCH   1   7
ATOM      7  C   UNL     1       0.835  12.491  20.269  0.00  0.00    +0.000 C 
BRANCH   7  10
ATOM      8  O   UNL     1       1.420  14.920  18.892  0.00  0.00    +0.000 OA
ATOM      9  C   UNL     1       2.332  14.297  19.429  0.00  0.00    +0.000 C 
ATOM     10  N   UNL     1       2.125  13.139  20.148  0.00  0.00    +0.000 N 
ATOM     11  H   UNL     1       2.954  12.667  20.497  0.00  0.00    +0.000 HD
BRANCH   9  12
ATOM     12  C   UNL     1       3.716  14.709  19.386  0.00  0.00    +0.000 A 
ATOM     13  C   UNL     1       4.463  15.488  20.248  0.00  0.00    +0.000 A 
ATOM     14  C   UNL     1       5.753  15.617  19.669  0.00  0.00    +0.000 A 
ATOM     15  C   UNL     1       6.940  16.293  19.998  0.00  0.00    +0.000 A 
ATOM     16  C   UNL     1       8.029  16.202  19.118  0.00  0.00    +0.000 A 
ATOM     17  C   UNL     1       7.951  15.439  17.949  0.00  0.00    +0.000 A 
ATOM     18  C   UNL     1       6.788  14.742  17.617  0.00  0.00    +0.000 A 
ATOM     19  C   UNL     1       5.718  14.871  18.498  0.00  0.00    +0.000 A 
ATOM     20  O   UNL     1       4.493  14.306  18.331  0.00  0.00    +0.000 OA
ENDBRANCH   9  12
ENDBRANCH   7  10
ENDBRANCH   1   7
BRANCH   3  21
ATOM     21  C   UNL     1       1.641   8.092  20.660  0.00  0.00    +0.000 C 
BRANCH  21  22
ATOM     22  C   UNL     1       2.247   7.594  19.329  0.00  0.00    +0.000 C 
ATOM     23  O   UNL     1       2.522   8.340  18.389  0.00  0.00    +0.000 OA
ATOM     24  N   UNL     1       2.452   6.202  19.261  0.00  0.00    +0.000 N 
BRANCH  24  25
ATOM     25  C   UNL     1       2.321   5.343  20.417  0.00  0.00    +0.000 C 
ATOM     26  C   UNL     1       2.494   3.847  20.362  0.00  0.00    +0.000 C 
ATOM     27  C   UNL     1       1.132   4.429  20.576  0.00  0.00    +0.000 C 
ENDBRANCH  24  25
BRANCH  24  28
ATOM     28  C   UNL     1       3.130   5.653  18.082  0.00  0.00    +0.000 C 
BRANCH  28  29
ATOM     29  C   UNL     1       4.634   5.855  18.035  0.00  0.00    +0.000 A 
ATOM     30  C   UNL     1       5.250   6.711  17.113  0.00  0.00    +0.000 A 
ATOM     31  C   UNL     1       6.621   6.977  17.185  0.00  0.00    +0.000 A 
ATOM     32  C   UNL     1       7.395   6.395  18.187  0.00  0.00    +0.000 A 
ATOM     33  C   UNL     1       6.804   5.530  19.102  0.00  0.00    +0.000 A 
ATOM     34  C   UNL     1       5.435   5.260  19.029  0.00  0.00    +0.000 A 
ENDBRANCH  28  29
ENDBRANCH  24  28
ENDBRANCH  21  22
ENDBRANCH   3  21
TORSDOF 8
ENDMDL
MODEL 6
REMARK VINA RESULT:      -7.6      1.472      1.964
REMARK  Name = 
REMARK  8 active torsions:
REMARK  status: ('A' for Active; 'I' for Inactive)
REMARK    1  A    between atoms: C_2  and  C_25
REMARK    2  A    between atoms: N_3  and  C_4
REMARK    3  A    between atoms: C_4  and  C_5
REMARK    4  A    between atoms: N_7  and  C_8
REMARK    5  A    between atoms: C_8  and  C_9
REMARK    6  A    between atoms: N_11  and  C_12
REMARK    7  A    between atoms: N_11  and  C_19
REMARK    8  A    between atoms: C_12  and  C_13
REMARK                            x       y       z     vdW  Elec       q    Type
REMARK                         _______ _______ _______ _____ _____    ______ ____
ROOT
ATOM      1  C   UNL     1       0.503  11.187  21.283  0.00  0.00    +0.000 C 
ATOM      2  C   UNL     1      -0.030  10.276  20.147  0.00  0.00    +0.000 C 
ATOM      3  N   UNL     1       0.450   8.871  20.224  0.00  0.00    +0.000 NA
ATOM      4  C   UNL     1       0.192   8.382  21.597  0.00  0.00    +0.000 C 
ATOM      5  C   UNL     1       0.693   9.319  22.709  0.00  0.00    +0.000 C 
ATOM      6  O   UNL     1       0.147  10.637  22.566  0.00  0.00    +0.000 OA
ENDROOT
BRANCH   1   7
ATOM      7  C   UNL     1      -0.074  12.608  21.197  0.00  0.00    +0.000 C 
BRANCH   7  10
ATOM      8  O   UNL     1      -1.216  13.669  23.586  0.00  0.00    +0.000 OA
ATOM      9  C   UNL     1      -1.953  13.202  22.722  0.00  0.00    +0.000 C 
ATOM     10  N   UNL     1      -1.482  12.709  21.523  0.00  0.00    +0.000 N 
ATOM     11  H   UNL     1      -2.167  12.286  20.905  0.00  0.00    +0.000 HD
BRANCH   9  12
ATOM     12  C   UNL     1      -3.390  13.129  22.850  0.00  0.00    +0.000 A 
ATOM     13  C   UNL     1      -4.219  13.303  23.941  0.00  0.00    +0.000 A 
ATOM     14  C   UNL     1      -5.542  13.046  23.495  0.00  0.00    +0.000 A 
ATOM     15  C   UNL     1      -6.814  13.006  24.090  0.00  0.00    +0.000 A 
ATOM     16  C   UNL     1      -7.916  12.661  23.294  0.00  0.00    +0.000 A 
ATOM     17  C   UNL     1      -7.765  12.386  21.932  0.00  0.00    +0.000 A 
ATOM     18  C   UNL     1      -6.512  12.443  21.318  0.00  0.00    +0.000 A 
ATOM     19  C   UNL     1      -5.436  12.764  22.139  0.00  0.00    +0.000 A 
ATOM     20  O   UNL     1      -4.138  12.830  21.740  0.00  0.00    +0.000 OA
ENDBRANCH   9  12
ENDBRANCH   7  10
ENDBRANCH   1   7
BRANCH   3  21
ATOM     21  C   UNL     1       1.882   8.802  19.840  0.00  0.00    +0.000 C 
BRANCH  21  22
ATOM     22  C   UNL     1       2.180   8.055  18.520  0.00  0.00    +0.000 C 
ATOM     23  O   UNL     1       2.163   8.599  17.416  0.00  0.00    +0.000 OA
ATOM     24  N   UNL     1       2.462   6.684  18.672  0.00  0.00    +0.000 N 
BRANCH  24  25
ATOM     25  C   UNL     1       2.680   6.076  19.965  0.00  0.00    +0.000 C 
ATOM     26  C   UNL     1       2.944   4.606  20.157  0.00  0.00    +0.000 C 
ATOM     27  C   UNL     1       1.636   5.187  20.592  0.00  0.00    +0.000 C 
ENDBRANCH  24  25
BRANCH  24  28
ATOM     28  C   UNL     1       2.871   5.921  17.487  0.00  0.00    +0.000 C 
BRANCH  28  29
ATOM     29  C   UNL     1       4.367   5.726  17.314  0.00  0.00    +0.000 A 
ATOM     30  C   UNL     1       4.926   4.497  16.940  0.00  0.00    +0.000 A 
ATOM     31  C   UNL     1       6.292   4.388  16.658  0.00  0.00    +0.000 A 
ATOM     32  C   UNL     1       7.116   5.508  16.739  0.00  0.00    +0.000 A 
ATOM     33  C   UNL     1       6.580   6.733  17.124  0.00  0.00    +0.000 A 
ATOM     34  C   UNL     1       5.217   6.844  17.410  0.00  0.00    +0.000 A 
ENDBRANCH  28  29
ENDBRANCH  24  28
ENDBRANCH  21  22
ENDBRANCH   3  21
TORSDOF 8
ENDMDL
MODEL 7
REMARK VINA RESULT:      -7.6      5.263     10.329
REMARK  Name = 
REMARK  8 active torsions:
REMARK  status: ('A' for Active; 'I' for Inactive)
REMARK    1  A    between atoms: C_2  and  C_25
REMARK    2  A    between atoms: N_3  and  C_4
REMARK    3  A    between atoms: C_4  and  C_5
REMARK    4  A    between atoms: N_7  and  C_8
REMARK    5  A    between atoms: C_8  and  C_9
REMARK    6  A    between atoms: N_11  and  C_12
REMARK    7  A    between atoms: N_11  and  C_19
REMARK    8  A    between atoms: C_12  and  C_13
REMARK                            x       y       z     vdW  Elec       q    Type
REMARK                         _______ _______ _______ _____ _____    ______ ____
ROOT
ATOM      1  C   UNL     1       7.043   5.436  17.674  0.00  0.00    +0.000 C 
ATOM      2  C   UNL     1       5.946   4.460  18.170  0.00  0.00    +0.000 C 
ATOM      3  N   UNL     1       4.965   4.072  17.122  0.00  0.00    +0.000 NA
ATOM      4  C   UNL     1       5.728   3.614  15.939  0.00  0.00    +0.000 C 
ATOM      5  C   UNL     1       6.837   4.579  15.487  0.00  0.00    +0.000 C 
ATOM      6  O   UNL     1       7.749   4.861  16.557  0.00  0.00    +0.000 OA
ENDROOT
BRANCH   1   7
ATOM      7  C   UNL     1       8.068   5.753  18.774  0.00  0.00    +0.000 C 
BRANCH   7  10
ATOM      8  O   UNL     1       7.483   7.853  16.934  0.00  0.00    +0.000 OA
ATOM      9  C   UNL     1       8.089   8.111  17.971  0.00  0.00    +0.000 C 
ATOM     10  N   UNL     1       8.372   7.160  18.929  0.00  0.00    +0.000 N 
ATOM     11  H   UNL     1       8.933   7.464  19.719  0.00  0.00    +0.000 HD
BRANCH   9  12
ATOM     12  C   UNL     1       8.558   9.433  18.315  0.00  0.00    +0.000 A 
ATOM     13  C   UNL     1       9.327   9.882  19.372  0.00  0.00    +0.000 A 
ATOM     14  C   UNL     1       9.421  11.293  19.239  0.00  0.00    +0.000 A 
ATOM     15  C   UNL     1      10.002  12.336  19.978  0.00  0.00    +0.000 A 
ATOM     16  C   UNL     1       9.837  13.653  19.523  0.00  0.00    +0.000 A 
ATOM     17  C   UNL     1       9.131  13.928  18.349  0.00  0.00    +0.000 A 
ATOM     18  C   UNL     1       8.566  12.902  17.588  0.00  0.00    +0.000 A 
ATOM     19  C   UNL     1       8.727  11.610  18.078  0.00  0.00    +0.000 A 
ATOM     20  O   UNL     1       8.218  10.487  17.507  0.00  0.00    +0.000 OA
ENDBRANCH   9  12
ENDBRANCH   7  10
ENDBRANCH   1   7
BRANCH   3  21
ATOM     21  C   UNL     1       4.059   5.210  16.828  0.00  0.00    +0.000 C 
BRANCH  21  22
ATOM     22  C   UNL     1       3.918   6.255  17.957  0.00  0.00    +0.000 C 
ATOM     23  O   UNL     1       4.564   7.302  17.994  0.00  0.00    +0.000 OA
ATOM     24  N   UNL     1       2.993   5.913  18.962  0.00  0.00    +0.000 N 
BRANCH  24  25
ATOM     25  C   UNL     1       2.088   4.792  18.834  0.00  0.00    +0.000 C 
ATOM     26  C   UNL     1       1.231   4.285  19.964  0.00  0.00    +0.000 C 
ATOM     27  C   UNL     1       2.392   3.469  19.490  0.00  0.00    +0.000 C 
ENDBRANCH  24  25
BRANCH  24  28
ATOM     28  C   UNL     1       2.708   6.897  20.012  0.00  0.00    +0.000 C 
BRANCH  28  29
ATOM     29  C   UNL     1       1.752   8.012  19.626  0.00  0.00    +0.000 A 
ATOM     30  C   UNL     1       0.993   8.712  20.573  0.00  0.00    +0.000 A 
ATOM     31  C   UNL     1       0.225   9.820  20.199  0.00  0.00    +0.000 A 
ATOM     32  C   UNL     1       0.213  10.249  18.874  0.00  0.00    +0.000 A 
ATOM     33  C   UNL     1       0.949   9.555  17.917  0.00  0.00    +0.000 A 
ATOM     34  C   UNL     1       1.712   8.446  18.288  0.00  0.00    +0.000 A 
ENDBRANCH  28  29
ENDBRANCH  24  28
ENDBRANCH  21  22
ENDBRANCH   3  21
TORSDOF 8
ENDMDL
MODEL 8
REMARK VINA RESULT:      -7.5      1.952     11.970
REMARK  Name = 
REMARK  8 active torsions:
REMARK  status: ('A' for Active; 'I' for Inactive)
REMARK    1  A    between atoms: C_2  and  C_25
REMARK    2  A    between atoms: N_3  and  C_4
REMARK    3  A    between atoms: C_4  and  C_5
REMARK    4  A    between atoms: N_7  and  C_8
REMARK    5  A    between atoms: C_8  and  C_9
REMARK    6  A    between atoms: N_11  and  C_12
REMARK    7  A    between atoms: N_11  and  C_19
REMARK    8  A    between atoms: C_12  and  C_13
REMARK                            x       y       z     vdW  Elec       q    Type
REMARK                         _______ _______ _______ _____ _____    ______ ____
ROOT
ATOM      1  C   UNL     1       0.934   9.503  20.627  0.00  0.00    +0.000 C 
ATOM      2  C   UNL     1      -0.543   9.836  20.959  0.00  0.00    +0.000 C 
ATOM      3  N   UNL     1      -0.945  11.222  20.600  0.00  0.00    +0.000 NA
ATOM      4  C   UNL     1      -0.546  11.456  19.194  0.00  0.00    +0.000 C 
ATOM      5  C   UNL     1       0.911  11.082  18.876  0.00  0.00    +0.000 C 
ATOM      6  O   UNL     1       1.187   9.719  19.225  0.00  0.00    +0.000 OA
ENDROOT
BRANCH   1   7
ATOM      7  C   UNL     1       1.279   8.042  20.955  0.00  0.00    +0.000 C 
BRANCH   7  10
ATOM      8  O   UNL     1       1.915   5.267  20.784  0.00  0.00    +0.000 OA
ATOM      9  C   UNL     1       2.460   6.058  20.019  0.00  0.00    +0.000 C 
ATOM     10  N   UNL     1       2.175   7.407  20.010  0.00  0.00    +0.000 N 
ATOM     11  H   UNL     1       2.727   7.984  19.382  0.00  0.00    +0.000 HD
BRANCH   9  12
ATOM     12  C   UNL     1       3.442   5.670  19.033  0.00  0.00    +0.000 A 
ATOM     13  C   UNL     1       3.306   5.264  17.720  0.00  0.00    +0.000 A 
ATOM     14  C   UNL     1       4.608   4.945  17.253  0.00  0.00    +0.000 A 
ATOM     15  C   UNL     1       5.154   4.444  16.059  0.00  0.00    +0.000 A 
ATOM     16  C   UNL     1       6.537   4.218  15.997  0.00  0.00    +0.000 A 
ATOM     17  C   UNL     1       7.365   4.503  17.087  0.00  0.00    +0.000 A 
ATOM     18  C   UNL     1       6.843   5.022  18.274  0.00  0.00    +0.000 A 
ATOM     19  C   UNL     1       5.466   5.214  18.312  0.00  0.00    +0.000 A 
ATOM     20  O   UNL     1       4.767   5.669  19.385  0.00  0.00    +0.000 OA
ENDBRANCH   9  12
ENDBRANCH   7  10
ENDBRANCH   1   7
BRANCH   3  21
ATOM     21  C   UNL     1      -0.336  12.189  21.548  0.00  0.00    +0.000 C 
BRANCH  21  22
ATOM     22  C   UNL     1      -1.174  12.500  22.808  0.00  0.00    +0.000 C 
ATOM     23  O   UNL     1      -1.799  11.644  23.434  0.00  0.00    +0.000 OA
ATOM     24  N   UNL     1      -1.182  13.857  23.187  0.00  0.00    +0.000 N 
BRANCH  24  25
ATOM     25  C   UNL     1      -0.302  14.834  22.587  0.00  0.00    +0.000 C 
ATOM     26  C   UNL     1      -0.295  16.291  22.972  0.00  0.00    +0.000 C 
ATOM     27  C   UNL     1      -0.833  15.879  21.638  0.00  0.00    +0.000 C 
ENDBRANCH  24  25
BRANCH  24  28
ATOM     28  C   UNL     1      -1.855  14.228  24.437  0.00  0.00    +0.000 C 
BRANCH  28  29
ATOM     29  C   UNL     1      -3.218  14.877  24.282  0.00  0.00    +0.000 A 
ATOM     30  C   UNL     1      -3.570  16.056  24.953  0.00  0.00    +0.000 A 
ATOM     31  C   UNL     1      -4.782  16.700  24.684  0.00  0.00    +0.000 A 
ATOM     32  C   UNL     1      -5.657  16.177  23.733  0.00  0.00    +0.000 A 
ATOM     33  C   UNL     1      -5.331  14.999  23.069  0.00  0.00    +0.000 A 
ATOM     34  C   UNL     1      -4.123  14.353  23.339  0.00  0.00    +0.000 A 
ENDBRANCH  28  29
ENDBRANCH  24  28
ENDBRANCH  21  22
ENDBRANCH   3  21
TORSDOF 8
ENDMDL
MODEL 9
REMARK VINA RESULT:      -7.5      1.817     11.804
REMARK  Name = 
REMARK  8 active torsions:
REMARK  status: ('A' for Active; 'I' for Inactive)
REMARK    1  A    between atoms: C_2  and  C_25
REMARK    2  A    between atoms: N_3  and  C_4
REMARK    3  A    between atoms: C_4  and  C_5
REMARK    4  A    between atoms: N_7  and  C_8
REMARK    5  A    between atoms: C_8  and  C_9
REMARK    6  A    between atoms: N_11  and  C_12
REMARK    7  A    between atoms: N_11  and  C_19
REMARK    8  A    between atoms: C_12  and  C_13
REMARK                            x       y       z     vdW  Elec       q    Type
REMARK                         _______ _______ _______ _____ _____    ______ ____
ROOT
ATOM      1  C   UNL     1       1.147   8.993  20.497  0.00  0.00    +0.000 C 
ATOM      2  C   UNL     1      -0.374   9.263  20.626  0.00  0.00    +0.000 C 
ATOM      3  N   UNL     1      -0.775  10.646  20.256  0.00  0.00    +0.000 NA
ATOM      4  C   UNL     1      -0.193  10.944  18.928  0.00  0.00    +0.000 C 
ATOM      5  C   UNL     1       1.308  10.632  18.809  0.00  0.00    +0.000 C 
ATOM      6  O   UNL     1       1.586   9.268  19.153  0.00  0.00    +0.000 OA
ENDROOT
BRANCH   1   7
ATOM      7  C   UNL     1       1.500   7.535  20.826  0.00  0.00    +0.000 C 
BRANCH   7  10
ATOM      8  O   UNL     1       2.194   4.776  20.621  0.00  0.00    +0.000 OA
ATOM      9  C   UNL     1       2.809   5.603  19.952  0.00  0.00    +0.000 C 
ATOM     10  N   UNL     1       2.506   6.948  19.964  0.00  0.00    +0.000 N 
ATOM     11  H   UNL     1       3.115   7.556  19.426  0.00  0.00    +0.000 HD
BRANCH   9  12
ATOM     12  C   UNL     1       3.901   5.266  19.069  0.00  0.00    +0.000 A 
ATOM     13  C   UNL     1       5.269   5.284  19.262  0.00  0.00    +0.000 A 
ATOM     14  C   UNL     1       5.861   4.916  18.025  0.00  0.00    +0.000 A 
ATOM     15  C   UNL     1       7.172   4.786  17.537  0.00  0.00    +0.000 A 
ATOM     16  C   UNL     1       7.354   4.425  16.193  0.00  0.00    +0.000 A 
ATOM     17  C   UNL     1       6.261   4.176  15.358  0.00  0.00    +0.000 A 
ATOM     18  C   UNL     1       4.952   4.278  15.831  0.00  0.00    +0.000 A 
ATOM     19  C   UNL     1       4.804   4.660  17.161  0.00  0.00    +0.000 A 
ATOM     20  O   UNL     1       3.616   4.854  17.793  0.00  0.00    +0.000 OA
ENDBRANCH   9  12
ENDBRANCH   7  10
ENDBRANCH   1   7
BRANCH   3  21
ATOM     21  C   UNL     1      -0.345  11.599  21.309  0.00  0.00    +0.000 C 
BRANCH  21  22
ATOM     22  C   UNL     1      -1.394  11.899  22.403  0.00  0.00    +0.000 C 
ATOM     23  O   UNL     1      -1.727  11.083  23.263  0.00  0.00    +0.000 OA
ATOM     24  N   UNL     1      -1.960  13.187  22.337  0.00  0.00    +0.000 N 
BRANCH  24  25
ATOM     25  C   UNL     1      -1.442  14.217  21.464  0.00  0.00    +0.000 C 
ATOM     26  C   UNL     1      -1.462  15.683  21.809  0.00  0.00    +0.000 C 
ATOM     27  C   UNL     1      -2.368  15.161  20.740  0.00  0.00    +0.000 C 
ENDBRANCH  24  25
BRANCH  24  28
ATOM     28  C   UNL     1      -2.879  13.601  23.403  0.00  0.00    +0.000 C 
BRANCH  28  29
ATOM     29  C   UNL     1      -4.318  13.142  23.246  0.00  0.00    +0.000 A 
ATOM     30  C   UNL     1      -5.163  12.930  24.343  0.00  0.00    +0.000 A 
ATOM     31  C   UNL     1      -6.519  12.639  24.157  0.00  0.00    +0.000 A 
ATOM     32  C   UNL     1      -7.050  12.564  22.872  0.00  0.00    +0.000 A 
ATOM     33  C   UNL     1      -6.221  12.755  21.770  0.00  0.00    +0.000 A 
ATOM     34  C   UNL     1      -4.867  13.041  21.953  0.00  0.00    +0.000 A 
ENDBRANCH  28  29
ENDBRANCH  24  28
ENDBRANCH  21  22
ENDBRANCH   3  21
TORSDOF 8
ENDMDL
