MODEL 1
REMARK VINA RESULT:      -8.5      0.000      0.000
REMARK  Name = 
REMARK  5 active torsions:
REMARK  status: ('A' for Active; 'I' for Inactive)
REMARK    1  A    between atoms: C_1  and  C_2
REMARK    2  A    between atoms: C_4  and  C_5
REMARK    3  A    between atoms: C_9  and  N_10
REMARK    4  A    between atoms: C_11  and  C_13
REMARK    5  A    between atoms: C_13  and  C_14
REMARK                            x       y       z     vdW  Elec       q    Type
REMARK                         _______ _______ _______ _____ _____    ______ ____
ROOT
ATOM      1  N   UNL     1       3.346   6.486  19.135  0.00  0.00    +0.000 N 
ATOM      2  C   UNL     1       2.995   5.145  19.038  0.00  0.00    +0.000 C 
ATOM      3  O   UNL     1       1.867   4.713  18.823  0.00  0.00    +0.000 OA
ATOM      4  H   UNL     1       4.334   6.713  19.129  0.00  0.00    +0.000 HD
ENDROOT
BRANCH   1   9
ATOM      5  C   UNL     1       0.982   9.141  20.228  0.00  0.00    +0.000 A 
ATOM      6  C   UNL     1       0.746   9.803  19.015  0.00  0.00    +0.000 A 
ATOM      7  C   UNL     1       1.319   9.343  17.834  0.00  0.00    +0.000 A 
ATOM      8  C   UNL     1       2.164   8.235  17.859  0.00  0.00    +0.000 A 
ATOM      9  C   UNL     1       2.443   7.572  19.059  0.00  0.00    +0.000 A 
ATOM     10  C   UNL     1       1.813   8.004  20.235  0.00  0.00    +0.000 A 
BRANCH   5  14
ATOM     11  C   UNL     1      -1.882  11.682  23.316  0.00  0.00    +0.000 C 
ATOM     12  C   UNL     1      -0.880  10.803  22.688  0.00  0.00    +0.000 A 
ATOM     13  N   UNL     1      -0.697  10.520  21.422  0.00  0.00    +0.000 NA
ATOM     14  C   UNL     1       0.394   9.676  21.454  0.00  0.00    +0.000 A 
ATOM     15  N   UNL     1       0.857   9.436  22.692  0.00  0.00    +0.000 NA
ATOM     16  O   UNL     1       0.013  10.187  23.513  0.00  0.00    +0.000 OA
ENDBRANCH   5  14
ENDBRANCH   1   9
BRANCH   2  17
ATOM     17  C   UNL     1       4.157   4.183  19.233  0.00  0.00    +0.000 C 
BRANCH  17  18
ATOM     18  C   UNL     1       5.115   4.261  18.074  0.00  0.00    +0.000 A 
ATOM     19  C   UNL     1       4.700   3.777  16.829  0.00  0.00    +0.000 A 
ATOM     20  F   UNL     1       3.506   3.174  16.722  0.00  0.00    +0.000 F 
ATOM     21  C   UNL     1       5.478   3.924  15.686  0.00  0.00    +0.000 A 
ATOM     22  C   UNL     1       6.704   4.578  15.766  0.00  0.00    +0.000 A 
ATOM     23  C   UNL     1       7.151   5.052  16.999  0.00  0.00    +0.000 A 
ATOM     24  C   UNL     1       6.368   4.889  18.148  0.00  0.00    +0.000 A 
ATOM     25 CL   UNL     1       7.009   5.489  19.635  0.00  0.00    +0.000 Cl
ENDBRANCH  17  18
ENDBRANCH   2  17
TORSDOF 4
ENDMDL
MODEL 2
REMARK VINA RESULT:      -8.4      1.521      1.810
REMARK  Name = 
REMARK  5 active torsions:
REMARK  status: ('A' for Active; 'I' for Inactive)
REMARK    1  A    between atoms: C_1  and  C_2
REMARK    2  A    between atoms: C_4  and  C_5
REMARK    3  A    between atoms: C_9  and  N_10
REMARK    4  A    between atoms: C_11  and  C_13
REMARK    5  A    between atoms: C_13  and  C_14
REMARK                            x       y       z     vdW  Elec       q    Type
REMARK                         _______ _______ _______ _____ _____    ______ ____
ROOT
ATOM      1  N   UNL     1       3.229   6.503  19.192  0.00  0.00    +0.000 N 
ATOM      2  C   UNL     1       2.856   5.210  19.543  0.00  0.00    +0.000 C 
ATOM      3  O   UNL     1       1.713   4.834  19.783  0.00  0.00    +0.000 OA
ATOM      4  H   UNL     1       4.170   6.640  18.841  0.00  0.00    +0.000 HD
ENDROOT
BRANCH   1   9
ATOM      5  C   UNL     1       0.915   9.205  20.274  0.00  0.00    +0.000 A 
ATOM      6  C   UNL     1       0.707   9.880  19.062  0.00  0.00    +0.000 A 
ATOM      7  C   UNL     1       1.283   9.413  17.885  0.00  0.00    +0.000 A 
ATOM      8  C   UNL     1       2.101   8.285  17.913  0.00  0.00    +0.000 A 
ATOM      9  C   UNL     1       2.352   7.610  19.112  0.00  0.00    +0.000 A 
ATOM     10  C   UNL     1       1.719   8.049  20.284  0.00  0.00    +0.000 A 
BRANCH   5  14
ATOM     11  C   UNL     1      -1.923  11.797  23.344  0.00  0.00    +0.000 C 
ATOM     12  C   UNL     1      -0.936  10.897  22.722  0.00  0.00    +0.000 A 
ATOM     13  N   UNL     1      -0.745  10.617  21.457  0.00  0.00    +0.000 NA
ATOM     14  C   UNL     1       0.325   9.747  21.496  0.00  0.00    +0.000 A 
ATOM     15  N   UNL     1       0.768   9.488  22.738  0.00  0.00    +0.000 NA
ATOM     16  O   UNL     1      -0.067  10.256  23.554  0.00  0.00    +0.000 OA
ENDBRANCH   5  14
ENDBRANCH   1   9
BRANCH   2  17
ATOM     17  C   UNL     1       4.017   4.231  19.625  0.00  0.00    +0.000 C 
BRANCH  17  18
ATOM     18  C   UNL     1       4.893   4.336  18.405  0.00  0.00    +0.000 A 
ATOM     19  C   UNL     1       6.184   4.854  18.552  0.00  0.00    +0.000 A 
ATOM     20  F   UNL     1       6.572   5.327  19.747  0.00  0.00    +0.000 F 
ATOM     21  C   UNL     1       7.094   4.871  17.500  0.00  0.00    +0.000 A 
ATOM     22  C   UNL     1       6.725   4.353  16.262  0.00  0.00    +0.000 A 
ATOM     23  C   UNL     1       5.437   3.849  16.083  0.00  0.00    +0.000 A 
ATOM     24  C   UNL     1       4.523   3.847  17.143  0.00  0.00    +0.000 A 
ATOM     25 CL   UNL     1       2.943   3.225  16.827  0.00  0.00    +0.000 Cl
ENDBRANCH  17  18
ENDBRANCH   2  17
TORSDOF 4
ENDMDL
MODEL 3
REMARK VINA RESULT:      -7.6      2.439      3.187
REMARK  Name = 
REMARK  5 active torsions:
REMARK  status: ('A' for Active; 'I' for Inactive)
REMARK    1  A    between atoms: C_1  and  C_2
REMARK    2  A    between atoms: C_4  and  C_5
REMARK    3  A    between atoms: C_9  and  N_10
REMARK    4  A    between atoms: C_11  and  C_13
REMARK    5  A    between atoms: C_13  and  C_14
REMARK                            x       y       z     vdW  Elec       q    Type
REMARK                         _______ _______ _______ _____ _____    ______ ____
ROOT
ATOM      1  N   UNL     1       2.471   7.177  19.938  0.00  0.00    +0.000 N 
ATOM      2  C   UNL     1       3.341   6.555  19.051  0.00  0.00    +0.000 C 
ATOM      3  O   UNL     1       3.601   6.939  17.915  0.00  0.00    +0.000 OA
ATOM      4  H   UNL     1       2.486   6.867  20.904  0.00  0.00    +0.000 HD
ENDROOT
BRANCH   1   9
ATOM      5  C   UNL     1       0.248  10.109  20.475  0.00  0.00    +0.000 A 
ATOM      6  C   UNL     1       0.248  10.681  19.194  0.00  0.00    +0.000 A 
ATOM      7  C   UNL     1       0.932  10.072  18.148  0.00  0.00    +0.000 A 
ATOM      8  C   UNL     1       1.652   8.902  18.378  0.00  0.00    +0.000 A 
ATOM      9  C   UNL     1       1.697   8.325  19.651  0.00  0.00    +0.000 A 
ATOM     10  C   UNL     1       0.955   8.910  20.687  0.00  0.00    +0.000 A 
BRANCH   5  14
ATOM     11  C   UNL     1      -2.761  13.142  22.914  0.00  0.00    +0.000 C 
ATOM     12  C   UNL     1      -1.770  12.131  22.506  0.00  0.00    +0.000 A 
ATOM     13  N   UNL     1      -1.442  11.722  21.305  0.00  0.00    +0.000 NA
ATOM     14  C   UNL     1      -0.450  10.797  21.558  0.00  0.00    +0.000 A 
ATOM     15  N   UNL     1      -0.186  10.630  22.865  0.00  0.00    +0.000 NA
ATOM     16  O   UNL     1      -1.060  11.519  23.496  0.00  0.00    +0.000 OA
ENDBRANCH   5  14
ENDBRANCH   1   9
BRANCH   2  17
ATOM     17  C   UNL     1       3.987   5.291  19.597  0.00  0.00    +0.000 C 
BRANCH  17  18
ATOM     18  C   UNL     1       3.087   4.101  19.395  0.00  0.00    +0.000 A 
ATOM     19  C   UNL     1       2.203   3.749  20.421  0.00  0.00    +0.000 A 
ATOM     20  F   UNL     1       2.247   4.416  21.585  0.00  0.00    +0.000 F 
ATOM     21  C   UNL     1       1.258   2.741  20.264  0.00  0.00    +0.000 A 
ATOM     22  C   UNL     1       1.171   2.061  19.053  0.00  0.00    +0.000 A 
ATOM     23  C   UNL     1       2.054   2.378  18.021  0.00  0.00    +0.000 A 
ATOM     24  C   UNL     1       3.011   3.385  18.191  0.00  0.00    +0.000 A 
ATOM     25 CL   UNL     1       4.077   3.697  16.868  0.00  0.00    +0.000 Cl
ENDBRANCH  17  18
ENDBRANCH   2  17
TORSDOF 4
ENDMDL
MODEL 4
REMARK VINA RESULT:      -7.6      3.085      4.569
REMARK  Name = 
REMARK  5 active torsions:
REMARK  status: ('A' for Active; 'I' for Inactive)
REMARK    1  A    between atoms: C_1  and  C_2
REMARK    2  A    between atoms: C_4  and  C_5
REMARK    3  A    between atoms: C_9  and  N_10
REMARK    4  A    between atoms: C_11  and  C_13
REMARK    5  A    between atoms: C_13  and  C_14
REMARK                            x       y       z     vdW  Elec       q    Type
REMARK                         _______ _______ _______ _____ _____    ______ ____
ROOT
ATOM      1  N   UNL     1       2.078   7.672  20.625  0.00  0.00    +0.000 N 
ATOM      2  C   UNL     1       2.494   7.074  19.441  0.00  0.00    +0.000 C 
ATOM      3  O   UNL     1       2.190   7.438  18.309  0.00  0.00    +0.000 OA
ATOM      4  H   UNL     1       2.546   7.393  21.480  0.00  0.00    +0.000 HD
ENDROOT
BRANCH   1   9
ATOM      5  C   UNL     1      -0.449  10.205  19.611  0.00  0.00    +0.000 A 
ATOM      6  C   UNL     1      -0.703  10.834  20.839  0.00  0.00    +0.000 A 
ATOM      7  C   UNL     1      -0.004  10.461  21.982  0.00  0.00    +0.000 A 
ATOM      8  C   UNL     1       0.932   9.432  21.919  0.00  0.00    +0.000 A 
ATOM      9  C   UNL     1       1.184   8.765  20.716  0.00  0.00    +0.000 A 
ATOM     10  C   UNL     1       0.522   9.186  19.554  0.00  0.00    +0.000 A 
BRANCH   5  14
ATOM     11  C   UNL     1      -2.838  10.029  15.315  0.00  0.00    +0.000 C 
ATOM     12  C   UNL     1      -2.225  10.417  16.598  0.00  0.00    +0.000 A 
ATOM     13  N   UNL     1      -1.594   9.678  17.477  0.00  0.00    +0.000 NA
ATOM     14  C   UNL     1      -1.230  10.596  18.440  0.00  0.00    +0.000 A 
ATOM     15  N   UNL     1      -1.632  11.850  18.173  0.00  0.00    +0.000 NA
ATOM     16  O   UNL     1      -2.290  11.733  16.946  0.00  0.00    +0.000 OA
ENDBRANCH   5  14
ENDBRANCH   1   9
BRANCH   2  17
ATOM     17  C   UNL     1       3.397   5.867  19.639  0.00  0.00    +0.000 C 
BRANCH  17  18
ATOM     18  C   UNL     1       2.676   4.595  19.279  0.00  0.00    +0.000 A 
ATOM     19  C   UNL     1       1.720   4.094  20.168  0.00  0.00    +0.000 A 
ATOM     20  F   UNL     1       1.540   4.700  21.352  0.00  0.00    +0.000 F 
ATOM     21  C   UNL     1       0.926   2.995  19.854  0.00  0.00    +0.000 A 
ATOM     22  C   UNL     1       1.071   2.373  18.618  0.00  0.00    +0.000 A 
ATOM     23  C   UNL     1       2.031   2.840  17.720  0.00  0.00    +0.000 A 
ATOM     24  C   UNL     1       2.834   3.938  18.049  0.00  0.00    +0.000 A 
ATOM     25 CL   UNL     1       4.011   4.436  16.887  0.00  0.00    +0.000 Cl
ENDBRANCH  17  18
ENDBRANCH   2  17
TORSDOF 4
ENDMDL
MODEL 5
REMARK VINA RESULT:      -7.5      2.946      4.194
REMARK  Name = 
REMARK  5 active torsions:
REMARK  status: ('A' for Active; 'I' for Inactive)
REMARK    1  A    between atoms: C_1  and  C_2
REMARK    2  A    between atoms: C_4  and  C_5
REMARK    3  A    between atoms: C_9  and  N_10
REMARK    4  A    between atoms: C_11  and  C_13
REMARK    5  A    between atoms: C_13  and  C_14
REMARK                            x       y       z     vdW  Elec       q    Type
REMARK                         _______ _______ _______ _____ _____    ______ ____
ROOT
ATOM      1  N   UNL     1       2.304   7.605  20.228  0.00  0.00    +0.000 N 
ATOM      2  C   UNL     1       2.109   6.245  20.442  0.00  0.00    +0.000 C 
ATOM      3  O   UNL     1       1.067   5.722  20.825  0.00  0.00    +0.000 OA
ATOM      4  H   UNL     1       3.145   7.886  19.737  0.00  0.00    +0.000 HD
ENDROOT
BRANCH   1   9
ATOM      5  C   UNL     1      -0.388  10.091  19.593  0.00  0.00    +0.000 A 
ATOM      6  C   UNL     1      -0.669  10.519  20.898  0.00  0.00    +0.000 A 
ATOM      7  C   UNL     1       0.063  10.030  21.975  0.00  0.00    +0.000 A 
ATOM      8  C   UNL     1       1.061   9.083  21.763  0.00  0.00    +0.000 A 
ATOM      9  C   UNL     1       1.344   8.614  20.476  0.00  0.00    +0.000 A 
ATOM     10  C   UNL     1       0.645   9.156  19.388  0.00  0.00    +0.000 A 
BRANCH   5  14
ATOM     11  C   UNL     1      -2.984  10.319  15.421  0.00  0.00    +0.000 C 
ATOM     12  C   UNL     1      -2.292  10.589  16.693  0.00  0.00    +0.000 A 
ATOM     13  N   UNL     1      -1.658   9.765  17.489  0.00  0.00    +0.000 NA
ATOM     14  C   UNL     1      -1.203  10.597  18.490  0.00  0.00    +0.000 A 
ATOM     15  N   UNL     1      -1.553  11.884  18.327  0.00  0.00    +0.000 NA
ATOM     16  O   UNL     1      -2.274  11.880  17.130  0.00  0.00    +0.000 OA
ENDBRANCH   5  14
ENDBRANCH   1   9
BRANCH   2  17
ATOM     17  C   UNL     1       3.336   5.391  20.164  0.00  0.00    +0.000 C 
BRANCH  17  18
ATOM     18  C   UNL     1       2.978   4.201  19.314  0.00  0.00    +0.000 A 
ATOM     19  C   UNL     1       3.032   4.333  17.922  0.00  0.00    +0.000 A 
ATOM     20  F   UNL     1       3.305   5.531  17.384  0.00  0.00    +0.000 F 
ATOM     21  C   UNL     1       2.834   3.249  17.073  0.00  0.00    +0.000 A 
ATOM     22  C   UNL     1       2.584   1.990  17.610  0.00  0.00    +0.000 A 
ATOM     23  C   UNL     1       2.505   1.835  18.993  0.00  0.00    +0.000 A 
ATOM     24  C   UNL     1       2.693   2.933  19.842  0.00  0.00    +0.000 A 
ATOM     25 CL   UNL     1       2.557   2.654  21.540  0.00  0.00    +0.000 Cl
ENDBRANCH  17  18
ENDBRANCH   2  17
TORSDOF 4
ENDMDL
MODEL 6
REMARK VINA RESULT:      -7.5      1.079      1.102
REMARK  Name = 
REMARK  5 active torsions:
REMARK  status: ('A' for Active; 'I' for Inactive)
REMARK    1  A    between atoms: C_1  and  C_2
REMARK    2  A    between atoms: C_4  and  C_5
REMARK    3  A    between atoms: C_9  and  N_10
REMARK    4  A    between atoms: C_11  and  C_13
REMARK    5  A    between atoms: C_13  and  C_14
REMARK                            x       y       z     vdW  Elec       q    Type
REMARK                         _______ _______ _______ _____ _____    ______ ____
ROOT
ATOM      1  N   UNL     1       2.880   6.748  19.208  0.00  0.00    +0.000 N 
ATOM      2  C   UNL     1       3.950   6.493  18.357  0.00  0.00    +0.000 C 
ATOM      3  O   UNL     1       4.342   7.229  17.458  0.00  0.00    +0.000 OA
ATOM      4  H   UNL     1       2.777   6.152  20.022  0.00  0.00    +0.000 HD
ENDROOT
BRANCH   1   9
ATOM      5  C   UNL     1       0.639   9.506  20.304  0.00  0.00    +0.000 A 
ATOM      6  C   UNL     1       0.445  10.188  19.094  0.00  0.00    +0.000 A 
ATOM      7  C   UNL     1       1.005   9.708  17.914  0.00  0.00    +0.000 A 
ATOM      8  C   UNL     1       1.794   8.561  17.937  0.00  0.00    +0.000 A 
ATOM      9  C   UNL     1       2.031   7.877  19.133  0.00  0.00    +0.000 A 
ATOM     10  C   UNL     1       1.414   8.329  20.308  0.00  0.00    +0.000 A 
BRANCH   5  14
ATOM     11  C   UNL     1      -2.079  12.204  23.389  0.00  0.00    +0.000 C 
ATOM     12  C   UNL     1      -1.139  11.260  22.762  0.00  0.00    +0.000 A 
ATOM     13  N   UNL     1      -0.949  10.991  21.494  0.00  0.00    +0.000 NA
ATOM     14  C   UNL     1       0.068  10.059  21.529  0.00  0.00    +0.000 A 
ATOM     15  N   UNL     1       0.481   9.754  22.771  0.00  0.00    +0.000 NA
ATOM     16  O   UNL     1      -0.319  10.554  23.591  0.00  0.00    +0.000 OA
ENDBRANCH   5  14
ENDBRANCH   1   9
BRANCH   2  17
ATOM     17  C   UNL     1       4.646   5.165  18.616  0.00  0.00    +0.000 C 
BRANCH  17  18
ATOM     18  C   UNL     1       5.463   4.749  17.422  0.00  0.00    +0.000 A 
ATOM     19  C   UNL     1       4.824   4.079  16.374  0.00  0.00    +0.000 A 
ATOM     20  F   UNL     1       3.530   3.743  16.499  0.00  0.00    +0.000 F 
ATOM     21  C   UNL     1       5.481   3.771  15.187  0.00  0.00    +0.000 A 
ATOM     22  C   UNL     1       6.812   4.141  15.022  0.00  0.00    +0.000 A 
ATOM     23  C   UNL     1       7.480   4.792  16.059  0.00  0.00    +0.000 A 
ATOM     24  C   UNL     1       6.815   5.088  17.255  0.00  0.00    +0.000 A 
ATOM     25 CL   UNL     1       7.724   5.876  18.493  0.00  0.00    +0.000 Cl
ENDBRANCH  17  18
ENDBRANCH   2  17
TORSDOF 4
ENDMDL
MODEL 7
REMARK VINA RESULT:      -7.4      2.600      3.434
REMARK  Name = 
REMARK  5 active torsions:
REMARK  status: ('A' for Active; 'I' for Inactive)
REMARK    1  A    between atoms: C_1  and  C_2
REMARK    2  A    between atoms: C_4  and  C_5
REMARK    3  A    between atoms: C_9  and  N_10
REMARK    4  A    between atoms: C_11  and  C_13
REMARK    5  A    between atoms: C_13  and  C_14
REMARK                            x       y       z     vdW  Elec       q    Type
REMARK                         _______ _______ _______ _____ _____    ______ ____
ROOT
ATOM      1  N   UNL     1       2.932   7.132  18.091  0.00  0.00    +0.000 N 
ATOM      2  C   UNL     1       2.856   5.750  17.962  0.00  0.00    +0.000 C 
ATOM      3  O   UNL     1       2.017   5.026  18.489  0.00  0.00    +0.000 OA
ATOM      4  H   UNL     1       3.552   7.628  17.460  0.00  0.00    +0.000 HD
ENDROOT
BRANCH   1   9
ATOM      5  C   UNL     1       0.319   9.602  19.040  0.00  0.00    +0.000 A 
ATOM      6  C   UNL     1       0.282   9.429  20.432  0.00  0.00    +0.000 A 
ATOM      7  C   UNL     1       1.152   8.543  21.058  0.00  0.00    +0.000 A 
ATOM      8  C   UNL     1       2.047   7.794  20.296  0.00  0.00    +0.000 A 
ATOM      9  C   UNL     1       2.086   7.922  18.904  0.00  0.00    +0.000 A 
ATOM     10  C   UNL     1       1.249   8.861  18.285  0.00  0.00    +0.000 A 
BRANCH   5  14
ATOM     11  C   UNL     1      -3.442  11.324  16.380  0.00  0.00    +0.000 C 
ATOM     12  C   UNL     1      -2.266  11.147  17.250  0.00  0.00    +0.000 A 
ATOM     13  N   UNL     1      -1.692  10.044  17.661  0.00  0.00    +0.000 NA
ATOM     14  C   UNL     1      -0.636  10.513  18.414  0.00  0.00    +0.000 A 
ATOM     15  N   UNL     1      -0.568  11.853  18.477  0.00  0.00    +0.000 NA
ATOM     16  O   UNL     1      -1.650  12.276  17.700  0.00  0.00    +0.000 OA
ENDBRANCH   5  14
ENDBRANCH   1   9
BRANCH   2  17
ATOM     17  C   UNL     1       3.940   5.148  17.081  0.00  0.00    +0.000 C 
BRANCH  17  18
ATOM     18  C   UNL     1       5.308   5.513  17.594  0.00  0.00    +0.000 A 
ATOM     19  C   UNL     1       6.027   6.510  16.927  0.00  0.00    +0.000 A 
ATOM     20  F   UNL     1       5.526   7.045  15.803  0.00  0.00    +0.000 F 
ATOM     21  C   UNL     1       7.242   6.989  17.409  0.00  0.00    +0.000 A 
ATOM     22  C   UNL     1       7.764   6.474  18.592  0.00  0.00    +0.000 A 
ATOM     23  C   UNL     1       7.076   5.465  19.266  0.00  0.00    +0.000 A 
ATOM     24  C   UNL     1       5.861   4.980  18.768  0.00  0.00    +0.000 A 
ATOM     25 CL   UNL     1       5.090   3.715  19.654  0.00  0.00    +0.000 Cl
ENDBRANCH  17  18
ENDBRANCH   2  17
TORSDOF 4
ENDMDL
MODEL 8
REMARK VINA RESULT:      -7.4      2.139      2.828
REMARK  Name = 
REMARK  5 active torsions:
REMARK  status: ('A' for Active; 'I' for Inactive)
REMARK    1  A    between atoms: C_1  and  C_2
REMARK    2  A    between atoms: C_4  and  C_5
REMARK    3  A    between atoms: C_9  and  N_10
REMARK    4  A    between atoms: C_11  and  C_13
REMARK    5  A    between atoms: C_13  and  C_14
REMARK                            x       y       z     vdW  Elec       q    Type
REMARK                         _______ _______ _______ _____ _____    ______ ____
ROOT
ATOM      1  N   UNL     1       2.649   6.818  19.698  0.00  0.00    +0.000 N 
ATOM      2  C   UNL     1       3.714   6.365  18.927  0.00  0.00    +0.000 C 
ATOM      3  O   UNL     1       4.203   6.951  17.966  0.00  0.00    +0.000 OA
ATOM      4  H   UNL     1       2.464   6.334  20.570  0.00  0.00    +0.000 HD
ENDROOT
BRANCH   1   9
ATOM      5  C   UNL     1       0.570   9.827  20.366  0.00  0.00    +0.000 A 
ATOM      6  C   UNL     1       0.558  10.430  19.100  0.00  0.00    +0.000 A 
ATOM      7  C   UNL     1       1.187   9.818  18.020  0.00  0.00    +0.000 A 
ATOM      8  C   UNL     1       1.863   8.614  18.202  0.00  0.00    +0.000 A 
ATOM      9  C   UNL     1       1.918   8.004  19.459  0.00  0.00    +0.000 A 
ATOM     10  C   UNL     1       1.231   8.594  20.530  0.00  0.00    +0.000 A 
BRANCH   5  14
ATOM     11  C   UNL     1      -1.320  13.369  23.209  0.00  0.00    +0.000 C 
ATOM     12  C   UNL     1      -0.850  12.101  22.623  0.00  0.00    +0.000 A 
ATOM     13  N   UNL     1      -0.334  11.870  21.442  0.00  0.00    +0.000 NA
ATOM     14  C   UNL     1      -0.068  10.517  21.485  0.00  0.00    +0.000 A 
ATOM     15  N   UNL     1      -0.419   9.933  22.644  0.00  0.00    +0.000 NA
ATOM     16  O   UNL     1      -0.936  10.986  23.402  0.00  0.00    +0.000 OA
ENDBRANCH   5  14
ENDBRANCH   1   9
BRANCH   2  17
ATOM     17  C   UNL     1       4.269   5.018  19.364  0.00  0.00    +0.000 C 
BRANCH  17  18
ATOM     18  C   UNL     1       3.264   3.923  19.122  0.00  0.00    +0.000 A 
ATOM     19  C   UNL     1       3.216   3.326  17.858  0.00  0.00    +0.000 A 
ATOM     20  F   UNL     1       3.993   3.804  16.874  0.00  0.00    +0.000 F 
ATOM     21  C   UNL     1       2.402   2.229  17.592  0.00  0.00    +0.000 A 
ATOM     22  C   UNL     1       1.614   1.695  18.607  0.00  0.00    +0.000 A 
ATOM     23  C   UNL     1       1.628   2.283  19.872  0.00  0.00    +0.000 A 
ATOM     24  C   UNL     1       2.440   3.395  20.128  0.00  0.00    +0.000 A 
ATOM     25 CL   UNL     1       2.377   4.072  21.715  0.00  0.00    +0.000 Cl
ENDBRANCH  17  18
ENDBRANCH   2  17
TORSDOF 4
ENDMDL
MODEL 9
REMARK VINA RESULT:      -7.4      2.475      3.160
REMARK  Name = 
REMARK  5 active torsions:
REMARK  status: ('A' for Active; 'I' for Inactive)
REMARK    1  A    between atoms: C_1  and  C_2
REMARK    2  A    between atoms: C_4  and  C_5
REMARK    3  A    between atoms: C_9  and  N_10
REMARK    4  A    between atoms: C_11  and  C_13
REMARK    5  A    between atoms: C_13  and  C_14
REMARK                            x       y       z     vdW  Elec       q    Type
REMARK                         _______ _______ _______ _____ _____    ______ ____
ROOT
ATOM      1  N   UNL     1       2.934   7.035  18.283  0.00  0.00    +0.000 N 
ATOM      2  C   UNL     1       2.755   5.679  18.035  0.00  0.00    +0.000 C 
ATOM      3  O   UNL     1       1.854   4.980  18.489  0.00  0.00    +0.000 OA
ATOM      4  H   UNL     1       3.602   7.533  17.705  0.00  0.00    +0.000 HD
ENDROOT
BRANCH   1   9
ATOM      5  C   UNL     1       0.749   9.802  19.465  0.00  0.00    +0.000 A 
ATOM      6  C   UNL     1       0.433   9.358  20.758  0.00  0.00    +0.000 A 
ATOM      7  C   UNL     1       0.982   8.181  21.255  0.00  0.00    +0.000 A 
ATOM      8  C   UNL     1       1.826   7.416  20.453  0.00  0.00    +0.000 A 
ATOM      9  C   UNL     1       2.135   7.817  19.150  0.00  0.00    +0.000 A 
ATOM     10  C   UNL     1       1.628   9.035  18.676  0.00  0.00    +0.000 A 
BRANCH   5  14
ATOM     11  C   UNL     1      -0.247  14.549  18.650  0.00  0.00    +0.000 C 
ATOM     12  C   UNL     1      -0.220  13.076  18.678  0.00  0.00    +0.000 A 
ATOM     13  N   UNL     1       0.630  12.270  19.263  0.00  0.00    +0.000 NA
ATOM     14  C   UNL     1       0.124  11.022  18.963  0.00  0.00    +0.000 A 
ATOM     15  N   UNL     1      -0.988  11.057  18.208  0.00  0.00    +0.000 NA
ATOM     16  O   UNL     1      -1.219  12.422  18.022  0.00  0.00    +0.000 OA
ENDBRANCH   5  14
ENDBRANCH   1   9
BRANCH   2  17
ATOM     17  C   UNL     1       3.807   5.071  17.120  0.00  0.00    +0.000 C 
BRANCH  17  18
ATOM     18  C   UNL     1       5.193   5.426  17.589  0.00  0.00    +0.000 A 
ATOM     19  C   UNL     1       5.888   6.437  16.918  0.00  0.00    +0.000 A 
ATOM     20  F   UNL     1       5.346   6.994  15.823  0.00  0.00    +0.000 F 
ATOM     21  C   UNL     1       7.119   6.906  17.364  0.00  0.00    +0.000 A 
ATOM     22  C   UNL     1       7.684   6.367  18.517  0.00  0.00    +0.000 A 
ATOM     23  C   UNL     1       7.022   5.344  19.194  0.00  0.00    +0.000 A 
ATOM     24  C   UNL     1       5.789   4.869  18.731  0.00  0.00    +0.000 A 
ATOM     25 CL   UNL     1       5.050   3.586  19.620  0.00  0.00    +0.000 Cl
ENDBRANCH  17  18
ENDBRANCH   2  17
TORSDOF 4
ENDMDL
