MODEL 1
REMARK VINA RESULT:      -8.8      0.000      0.000
REMARK  Name = 
REMARK  8 active torsions:
REMARK  status: ('A' for Active; 'I' for Inactive)
REMARK    1  A    between atoms: C_1  and  N_2
REMARK    2  A    between atoms: C_6  and  C_7
REMARK    3  A    between atoms: C_7  and  C_8
REMARK    4  A    between atoms: C_8  and  C_9
REMARK    5  A    between atoms: C_13  and  N_14
REMARK    6  A    between atoms: C_15  and  C_17
REMARK    7  A    between atoms: C_22  and  O_23
REMARK    8  A    between atoms: O_23  and  C_24
REMARK                            x       y       z     vdW  Elec       q    Type
REMARK                         _______ _______ _______ _____ _____    ______ ____
ROOT
ATOM      1  C   UNL     1       4.416   4.773  17.340  0.00  0.00    +0.000 A 
ATOM      2  C   UNL     1       3.644   3.636  17.029  0.00  0.00    +0.000 A 
ATOM      3  C   UNL     1       2.325   3.508  17.457  0.00  0.00    +0.000 A 
ATOM      4  C   UNL     1       1.742   4.518  18.219  0.00  0.00    +0.000 A 
ATOM      5  C   UNL     1       2.470   5.655  18.560  0.00  0.00    +0.000 A 
ATOM      6  C   UNL     1       3.785   5.778  18.105  0.00  0.00    +0.000 A 
ENDROOT
BRANCH   1   7
ATOM      7  C   UNL     1       5.940   4.904  16.855  0.00  0.00    +0.000 C 
ATOM      8  C   UNL     1       6.544   6.330  16.724  0.00  0.00    +0.000 C 
ATOM      9  O   UNL     1       7.539   6.074  17.738  0.00  0.00    +0.000 OA
ATOM     10  C   UNL     1       7.009   4.758  17.979  0.00  0.00    +0.000 C 
BRANCH   7  11
ATOM     11  C   UNL     1       6.220   3.951  15.679  0.00  0.00    +0.000 C 
BRANCH  11  17
ATOM     12  C   UNL     1       5.734   3.347  12.579  0.00  0.00    +0.000 C 
ATOM     13  N   UNL     1       6.671   4.267  13.168  0.00  0.00    +0.000 N 
ATOM     14  C   UNL     1       7.582   4.997  12.464  0.00  0.00    +0.000 A 
ATOM     15  N   UNL     1       8.277   5.743  13.286  0.00  0.00    +0.000 NA
ATOM     16  N   UNL     1       7.828   5.487  14.557  0.00  0.00    +0.000 NA
ATOM     17  C   UNL     1       6.870   4.583  14.494  0.00  0.00    +0.000 A 
ENDBRANCH  11  17
ENDBRANCH   7  11
ENDBRANCH   1   7
BRANCH   5  18
ATOM     18  N   UNL     1       1.961   6.687  19.375  0.00  0.00    +0.000 N 
ATOM     19  C   UNL     1       1.951   8.044  19.095  0.00  0.00    +0.000 C 
ATOM     20  O   UNL     1       2.445   8.570  18.105  0.00  0.00    +0.000 OA
ATOM     21  H   UNL     1       1.501   6.427  20.246  0.00  0.00    +0.000 HD
BRANCH  19  22
ATOM     22  C   UNL     1       1.247   8.870  20.135  0.00  0.00    +0.000 A 
ATOM     23  N   UNL     1       1.561   8.556  21.431  0.00  0.00    +0.000 NA
ATOM     24  C   UNL     1       0.874   9.210  22.389  0.00  0.00    +0.000 A 
ATOM     25  C   UNL     1      -0.081  10.180  22.124  0.00  0.00    +0.000 A 
ATOM     26  C   UNL     1      -0.344  10.517  20.796  0.00  0.00    +0.000 A 
ATOM     27  C   UNL     1       0.332   9.864  19.769  0.00  0.00    +0.000 A 
BRANCH  27  28
ATOM     28  O   UNL     1       0.112  10.109  18.445  0.00  0.00    +0.000 OA
BRANCH  28  29
ATOM     29  C   UNL     1      -1.230  10.314  18.036  0.00  0.00    +0.000 C 
ATOM     30  F   UNL     1      -1.471   9.569  16.925  0.00  0.00    +0.000 F 
ENDBRANCH  28  29
ENDBRANCH  27  28
ENDBRANCH  19  22
ENDBRANCH   5  18
TORSDOF 7
ENDMDL
MODEL 2
REMARK VINA RESULT:      -8.4      1.183      1.213
REMARK  Name = 
REMARK  8 active torsions:
REMARK  status: ('A' for Active; 'I' for Inactive)
REMARK    1  A    between atoms: C_1  and  N_2
REMARK    2  A    between atoms: C_6  and  C_7
REMARK    3  A    between atoms: C_7  and  C_8
REMARK    4  A    between atoms: C_8  and  C_9
REMARK    5  A    between atoms: C_13  and  N_14
REMARK    6  A    between atoms: C_15  and  C_17
REMARK    7  A    between atoms: C_22  and  O_23
REMARK    8  A    between atoms: O_23  and  C_24
REMARK                            x       y       z     vdW  Elec       q    Type
REMARK                         _______ _______ _______ _____ _____    ______ ____
ROOT
ATOM      1  C   UNL     1       4.578   4.847  17.295  0.00  0.00    +0.000 A 
ATOM      2  C   UNL     1       3.763   3.741  16.981  0.00  0.00    +0.000 A 
ATOM      3  C   UNL     1       2.445   3.654  17.421  0.00  0.00    +0.000 A 
ATOM      4  C   UNL     1       1.905   4.676  18.198  0.00  0.00    +0.000 A 
ATOM      5  C   UNL     1       2.676   5.784  18.544  0.00  0.00    +0.000 A 
ATOM      6  C   UNL     1       3.989   5.865  18.076  0.00  0.00    +0.000 A 
ENDROOT
BRANCH   1   7
ATOM      7  C   UNL     1       6.100   4.930  16.796  0.00  0.00    +0.000 C 
ATOM      8  C   UNL     1       6.751   6.335  16.670  0.00  0.00    +0.000 C 
ATOM      9  O   UNL     1       7.747   6.037  17.671  0.00  0.00    +0.000 OA
ATOM     10  C   UNL     1       7.175   4.738  17.908  0.00  0.00    +0.000 C 
BRANCH   7  11
ATOM     11  C   UNL     1       6.336   3.977  15.610  0.00  0.00    +0.000 C 
BRANCH  11  17
ATOM     12  C   UNL     1       5.755   3.352  12.531  0.00  0.00    +0.000 C 
ATOM     13  N   UNL     1       6.700   4.285  13.083  0.00  0.00    +0.000 N 
ATOM     14  C   UNL     1       7.580   5.021  12.347  0.00  0.00    +0.000 A 
ATOM     15  N   UNL     1       8.293   5.779  13.142  0.00  0.00    +0.000 NA
ATOM     16  N   UNL     1       7.890   5.524  14.428  0.00  0.00    +0.000 NA
ATOM     17  C   UNL     1       6.940   4.610  14.401  0.00  0.00    +0.000 A 
ENDBRANCH  11  17
ENDBRANCH   7  11
ENDBRANCH   1   7
BRANCH   5  18
ATOM     18  N   UNL     1       2.211   6.824  19.374  0.00  0.00    +0.000 N 
ATOM     19  C   UNL     1       1.888   8.117  18.992  0.00  0.00    +0.000 C 
ATOM     20  O   UNL     1       2.015   8.578  17.863  0.00  0.00    +0.000 OA
ATOM     21  H   UNL     1       2.039   6.614  20.355  0.00  0.00    +0.000 HD
BRANCH  19  22
ATOM     22  C   UNL     1       1.331   8.955  20.108  0.00  0.00    +0.000 A 
ATOM     23  N   UNL     1       1.239   8.318  21.317  0.00  0.00    +0.000 NA
ATOM     24  C   UNL     1       0.653   9.010  22.316  0.00  0.00    +0.000 A 
ATOM     25  C   UNL     1       0.187  10.308  22.180  0.00  0.00    +0.000 A 
ATOM     26  C   UNL     1       0.339  10.952  20.952  0.00  0.00    +0.000 A 
ATOM     27  C   UNL     1       0.930  10.277  19.886  0.00  0.00    +0.000 A 
BRANCH  27  28
ATOM     28  O   UNL     1       1.089  10.820  18.644  0.00  0.00    +0.000 OA
BRANCH  28  29
ATOM     29  C   UNL     1       1.268  12.225  18.567  0.00  0.00    +0.000 C 
ATOM     30  F   UNL     1       2.578  12.515  18.782  0.00  0.00    +0.000 F 
ENDBRANCH  28  29
ENDBRANCH  27  28
ENDBRANCH  19  22
ENDBRANCH   5  18
TORSDOF 7
ENDMDL
MODEL 3
REMARK VINA RESULT:      -8.3      1.876      2.242
REMARK  Name = 
REMARK  8 active torsions:
REMARK  status: ('A' for Active; 'I' for Inactive)
REMARK    1  A    between atoms: C_1  and  N_2
REMARK    2  A    between atoms: C_6  and  C_7
REMARK    3  A    between atoms: C_7  and  C_8
REMARK    4  A    between atoms: C_8  and  C_9
REMARK    5  A    between atoms: C_13  and  N_14
REMARK    6  A    between atoms: C_15  and  C_17
REMARK    7  A    between atoms: C_22  and  O_23
REMARK    8  A    between atoms: O_23  and  C_24
REMARK                            x       y       z     vdW  Elec       q    Type
REMARK                         _______ _______ _______ _____ _____    ______ ____
ROOT
ATOM      1  C   UNL     1       4.941   5.461  17.588  0.00  0.00    +0.000 A 
ATOM      2  C   UNL     1       4.264   4.227  17.517  0.00  0.00    +0.000 A 
ATOM      3  C   UNL     1       2.886   4.138  17.685  0.00  0.00    +0.000 A 
ATOM      4  C   UNL     1       2.141   5.287  17.937  0.00  0.00    +0.000 A 
ATOM      5  C   UNL     1       2.768   6.529  18.027  0.00  0.00    +0.000 A 
ATOM      6  C   UNL     1       4.149   6.604  17.835  0.00  0.00    +0.000 A 
ENDROOT
BRANCH   1   7
ATOM      7  C   UNL     1       6.533   5.552  17.409  0.00  0.00    +0.000 C 
ATOM      8  C   UNL     1       7.164   6.956  17.197  0.00  0.00    +0.000 C 
ATOM      9  O   UNL     1       7.929   6.868  18.417  0.00  0.00    +0.000 OA
ATOM     10  C   UNL     1       7.349   5.591  18.736  0.00  0.00    +0.000 C 
BRANCH   7  11
ATOM     11  C   UNL     1       7.037   4.444  16.465  0.00  0.00    +0.000 C 
BRANCH  11  17
ATOM     12  C   UNL     1       5.363   3.610  13.874  0.00  0.00    +0.000 C 
ATOM     13  N   UNL     1       6.529   4.451  13.945  0.00  0.00    +0.000 N 
ATOM     14  C   UNL     1       7.165   4.982  12.862  0.00  0.00    +0.000 A 
ATOM     15  N   UNL     1       8.181   5.706  13.261  0.00  0.00    +0.000 NA
ATOM     16  N   UNL     1       8.227   5.637  14.630  0.00  0.00    +0.000 NA
ATOM     17  C   UNL     1       7.242   4.866  15.049  0.00  0.00    +0.000 A 
ENDBRANCH  11  17
ENDBRANCH   7  11
ENDBRANCH   1   7
BRANCH   5  18
ATOM     18  N   UNL     1       2.084   7.722  18.336  0.00  0.00    +0.000 N 
ATOM     19  C   UNL     1       1.720   8.174  19.595  0.00  0.00    +0.000 C 
ATOM     20  O   UNL     1       1.889   7.567  20.645  0.00  0.00    +0.000 OA
ATOM     21  H   UNL     1       1.866   8.361  17.574  0.00  0.00    +0.000 HD
BRANCH  19  22
ATOM     22  C   UNL     1       1.083   9.536  19.586  0.00  0.00    +0.000 A 
ATOM     23  N   UNL     1       1.608  10.413  18.674  0.00  0.00    +0.000 NA
ATOM     24  C   UNL     1       1.126  11.672  18.708  0.00  0.00    +0.000 A 
ATOM     25  C   UNL     1       0.129  12.089  19.576  0.00  0.00    +0.000 A 
ATOM     26  C   UNL     1      -0.424  11.163  20.459  0.00  0.00    +0.000 A 
ATOM     27  C   UNL     1       0.045   9.851  20.471  0.00  0.00    +0.000 A 
BRANCH  27  28
ATOM     28  O   UNL     1      -0.417   8.892  21.323  0.00  0.00    +0.000 OA
BRANCH  28  29
ATOM     29  C   UNL     1      -0.444   9.208  22.705  0.00  0.00    +0.000 C 
ATOM     30  F   UNL     1       0.828   9.423  23.133  0.00  0.00    +0.000 F 
ENDBRANCH  28  29
ENDBRANCH  27  28
ENDBRANCH  19  22
ENDBRANCH   5  18
TORSDOF 7
ENDMDL
MODEL 4
REMARK VINA RESULT:      -8.2      2.844      3.953
REMARK  Name = 
REMARK  8 active torsions:
REMARK  status: ('A' for Active; 'I' for Inactive)
REMARK    1  A    between atoms: C_1  and  N_2
REMARK    2  A    between atoms: C_6  and  C_7
REMARK    3  A    between atoms: C_7  and  C_8
REMARK    4  A    between atoms: C_8  and  C_9
REMARK    5  A    between atoms: C_13  and  N_14
REMARK    6  A    between atoms: C_15  and  C_17
REMARK    7  A    between atoms: C_22  and  O_23
REMARK    8  A    between atoms: O_23  and  C_24
REMARK                            x       y       z     vdW  Elec       q    Type
REMARK                         _______ _______ _______ _____ _____    ______ ____
ROOT
ATOM      1  C   UNL     1       3.026   5.327  19.087  0.00  0.00    +0.000 A 
ATOM      2  C   UNL     1       2.418   4.689  20.187  0.00  0.00    +0.000 A 
ATOM      3  C   UNL     1       1.567   5.372  21.050  0.00  0.00    +0.000 A 
ATOM      4  C   UNL     1       1.303   6.723  20.840  0.00  0.00    +0.000 A 
ATOM      5  C   UNL     1       1.891   7.400  19.774  0.00  0.00    +0.000 A 
ATOM      6  C   UNL     1       2.726   6.695  18.905  0.00  0.00    +0.000 A 
ENDROOT
BRANCH   1   7
ATOM      7  C   UNL     1       4.019   4.535  18.107  0.00  0.00    +0.000 C 
ATOM      8  C   UNL     1       4.494   3.120  18.538  0.00  0.00    +0.000 C 
ATOM      9  O   UNL     1       3.867   2.491  17.400  0.00  0.00    +0.000 OA
ATOM     10  C   UNL     1       3.326   3.747  16.955  0.00  0.00    +0.000 C 
BRANCH   7  11
ATOM     11  C   UNL     1       5.117   5.473  17.572  0.00  0.00    +0.000 C 
BRANCH  11  17
ATOM     12  C   UNL     1       7.515   7.568  17.312  0.00  0.00    +0.000 C 
ATOM     13  N   UNL     1       7.314   6.572  18.330  0.00  0.00    +0.000 N 
ATOM     14  C   UNL     1       8.192   6.311  19.340  0.00  0.00    +0.000 A 
ATOM     15  N   UNL     1       7.715   5.360  20.103  0.00  0.00    +0.000 NA
ATOM     16  N   UNL     1       6.509   4.972  19.576  0.00  0.00    +0.000 NA
ATOM     17  C   UNL     1       6.269   5.688  18.495  0.00  0.00    +0.000 A 
ENDBRANCH  11  17
ENDBRANCH   7  11
ENDBRANCH   1   7
BRANCH   5  18
ATOM     18  N   UNL     1       1.714   8.778  19.538  0.00  0.00    +0.000 N 
ATOM     19  C   UNL     1       1.771   9.430  18.316  0.00  0.00    +0.000 C 
ATOM     20  O   UNL     1       2.046   8.907  17.242  0.00  0.00    +0.000 OA
ATOM     21  H   UNL     1       1.469   9.372  20.327  0.00  0.00    +0.000 HD
BRANCH  19  22
ATOM     22  C   UNL     1       1.443  10.895  18.397  0.00  0.00    +0.000 A 
ATOM     23  N   UNL     1       2.470  11.735  18.056  0.00  0.00    +0.000 NA
ATOM     24  C   UNL     1       2.240  13.055  18.213  0.00  0.00    +0.000 A 
ATOM     25  C   UNL     1       1.036  13.578  18.656  0.00  0.00    +0.000 A 
ATOM     26  C   UNL     1      -0.010  12.703  18.947  0.00  0.00    +0.000 A 
ATOM     27  C   UNL     1       0.179  11.329  18.811  0.00  0.00    +0.000 A 
BRANCH  27  28
ATOM     28  O   UNL     1      -0.779  10.403  19.104  0.00  0.00    +0.000 OA
BRANCH  28  29
ATOM     29  C   UNL     1      -1.836  10.243  18.173  0.00  0.00    +0.000 C 
ATOM     30  F   UNL     1      -1.310   9.967  16.951  0.00  0.00    +0.000 F 
ENDBRANCH  28  29
ENDBRANCH  27  28
ENDBRANCH  19  22
ENDBRANCH   5  18
TORSDOF 7
ENDMDL
MODEL 5
REMARK VINA RESULT:      -8.1      2.042      2.614
REMARK  Name = 
REMARK  8 active torsions:
REMARK  status: ('A' for Active; 'I' for Inactive)
REMARK    1  A    between atoms: C_1  and  N_2
REMARK    2  A    between atoms: C_6  and  C_7
REMARK    3  A    between atoms: C_7  and  C_8
REMARK    4  A    between atoms: C_8  and  C_9
REMARK    5  A    between atoms: C_13  and  N_14
REMARK    6  A    between atoms: C_15  and  C_17
REMARK    7  A    between atoms: C_22  and  O_23
REMARK    8  A    between atoms: O_23  and  C_24
REMARK                            x       y       z     vdW  Elec       q    Type
REMARK                         _______ _______ _______ _____ _____    ______ ____
ROOT
ATOM      1  C   UNL     1       5.400   5.451  18.623  0.00  0.00    +0.000 A 
ATOM      2  C   UNL     1       4.918   4.201  19.062  0.00  0.00    +0.000 A 
ATOM      3  C   UNL     1       3.601   4.031  19.481  0.00  0.00    +0.000 A 
ATOM      4  C   UNL     1       2.727   5.115  19.479  0.00  0.00    +0.000 A 
ATOM      5  C   UNL     1       3.162   6.372  19.064  0.00  0.00    +0.000 A 
ATOM      6  C   UNL     1       4.479   6.521  18.627  0.00  0.00    +0.000 A 
ENDROOT
BRANCH   1   7
ATOM      7  C   UNL     1       6.923   5.640  18.157  0.00  0.00    +0.000 C 
ATOM      8  C   UNL     1       7.373   7.052  17.690  0.00  0.00    +0.000 C 
ATOM      9  O   UNL     1       8.336   7.171  18.758  0.00  0.00    +0.000 OA
ATOM     10  C   UNL     1       7.942   5.901  19.307  0.00  0.00    +0.000 C 
BRANCH   7  11
ATOM     11  C   UNL     1       7.367   4.468  17.262  0.00  0.00    +0.000 C 
BRANCH  11  17
ATOM     12  C   UNL     1       4.784   3.292  15.795  0.00  0.00    +0.000 C 
ATOM     13  N   UNL     1       5.876   4.027  15.214  0.00  0.00    +0.000 N 
ATOM     14  C   UNL     1       6.015   4.281  13.882  0.00  0.00    +0.000 A 
ATOM     15  N   UNL     1       7.104   4.979  13.679  0.00  0.00    +0.000 NA
ATOM     16  N   UNL     1       7.704   5.174  14.897  0.00  0.00    +0.000 NA
ATOM     17  C   UNL     1       6.977   4.587  15.827  0.00  0.00    +0.000 A 
ENDBRANCH  11  17
ENDBRANCH   7  11
ENDBRANCH   1   7
BRANCH   5  18
ATOM     18  N   UNL     1       2.347   7.523  19.091  0.00  0.00    +0.000 N 
ATOM     19  C   UNL     1       1.675   8.044  20.186  0.00  0.00    +0.000 C 
ATOM     20  O   UNL     1       1.639   7.544  21.304  0.00  0.00    +0.000 OA
ATOM     21  H   UNL     1       2.267   8.074  18.239  0.00  0.00    +0.000 HD
BRANCH  19  22
ATOM     22  C   UNL     1       0.967   9.339  19.898  0.00  0.00    +0.000 A 
ATOM     23  N   UNL     1       0.720   9.579  18.572  0.00  0.00    +0.000 NA
ATOM     24  C   UNL     1       0.175  10.776  18.271  0.00  0.00    +0.000 A 
ATOM     25  C   UNL     1      -0.166  11.725  19.222  0.00  0.00    +0.000 A 
ATOM     26  C   UNL     1       0.048  11.434  20.569  0.00  0.00    +0.000 A 
ATOM     27  C   UNL     1       0.617  10.215  20.932  0.00  0.00    +0.000 A 
BRANCH  27  28
ATOM     28  O   UNL     1       0.890   9.864  22.221  0.00  0.00    +0.000 OA
BRANCH  28  29
ATOM     29  C   UNL     1      -0.199   9.818  23.128  0.00  0.00    +0.000 C 
ATOM     30  F   UNL     1      -0.951   8.718  22.859  0.00  0.00    +0.000 F 
ENDBRANCH  28  29
ENDBRANCH  27  28
ENDBRANCH  19  22
ENDBRANCH   5  18
TORSDOF 7
ENDMDL
MODEL 6
REMARK VINA RESULT:      -8.1      3.171      4.357
REMARK  Name = 
REMARK  8 active torsions:
REMARK  status: ('A' for Active; 'I' for Inactive)
REMARK    1  A    between atoms: C_1  and  N_2
REMARK    2  A    between atoms: C_6  and  C_7
REMARK    3  A    between atoms: C_7  and  C_8
REMARK    4  A    between atoms: C_8  and  C_9
REMARK    5  A    between atoms: C_13  and  N_14
REMARK    6  A    between atoms: C_15  and  C_17
REMARK    7  A    between atoms: C_22  and  O_23
REMARK    8  A    between atoms: O_23  and  C_24
REMARK                            x       y       z     vdW  Elec       q    Type
REMARK                         _______ _______ _______ _____ _____    ______ ____
ROOT
ATOM      1  C   UNL     1       3.397   5.951  18.787  0.00  0.00    +0.000 A 
ATOM      2  C   UNL     1       3.104   5.318  20.012  0.00  0.00    +0.000 A 
ATOM      3  C   UNL     1       2.228   5.881  20.935  0.00  0.00    +0.000 A 
ATOM      4  C   UNL     1       1.622   7.104  20.661  0.00  0.00    +0.000 A 
ATOM      5  C   UNL     1       1.890   7.773  19.468  0.00  0.00    +0.000 A 
ATOM      6  C   UNL     1       2.755   7.184  18.543  0.00  0.00    +0.000 A 
ENDROOT
BRANCH   1   7
ATOM      7  C   UNL     1       4.420   5.301  17.736  0.00  0.00    +0.000 C 
ATOM      8  C   UNL     1       5.362   6.255  16.950  0.00  0.00    +0.000 C 
ATOM      9  O   UNL     1       6.547   5.667  17.524  0.00  0.00    +0.000 OA
ATOM     10  C   UNL     1       5.759   4.786  18.344  0.00  0.00    +0.000 C 
BRANCH   7  11
ATOM     11  C   UNL     1       3.722   4.214  16.899  0.00  0.00    +0.000 C 
BRANCH  11  17
ATOM     12  C   UNL     1       3.875   1.655  18.807  0.00  0.00    +0.000 C 
ATOM     13  N   UNL     1       2.704   2.370  18.374  0.00  0.00    +0.000 N 
ATOM     14  C   UNL     1       1.423   2.004  18.665  0.00  0.00    +0.000 A 
ATOM     15  N   UNL     1       0.589   2.862  18.135  0.00  0.00    +0.000 NA
ATOM     16  N   UNL     1       1.331   3.803  17.467  0.00  0.00    +0.000 NA
ATOM     17  C   UNL     1       2.609   3.501  17.592  0.00  0.00    +0.000 A 
ENDBRANCH  11  17
ENDBRANCH   7  11
ENDBRANCH   1   7
BRANCH   5  18
ATOM     18  N   UNL     1       1.357   9.039  19.152  0.00  0.00    +0.000 N 
ATOM     19  C   UNL     1       1.031  10.053  20.039  0.00  0.00    +0.000 C 
ATOM     20  O   UNL     1       1.103   9.981  21.260  0.00  0.00    +0.000 OA
ATOM     21  H   UNL     1       1.234   9.276  18.170  0.00  0.00    +0.000 HD
BRANCH  19  22
ATOM     22  C   UNL     1       0.570  11.317  19.369  0.00  0.00    +0.000 A 
ATOM     23  N   UNL     1       1.489  12.333  19.361  0.00  0.00    +0.000 NA
ATOM     24  C   UNL     1       1.073  13.512  18.855  0.00  0.00    +0.000 A 
ATOM     25  C   UNL     1      -0.193  13.719  18.329  0.00  0.00    +0.000 A 
ATOM     26  C   UNL     1      -1.091  12.653  18.302  0.00  0.00    +0.000 A 
ATOM     27  C   UNL     1      -0.714  11.416  18.821  0.00  0.00    +0.000 A 
BRANCH  27  28
ATOM     28  O   UNL     1      -1.540  10.332  18.864  0.00  0.00    +0.000 OA
BRANCH  28  29
ATOM     29  C   UNL     1      -2.281  10.032  17.692  0.00  0.00    +0.000 C 
ATOM     30  F   UNL     1      -1.460   9.426  16.794  0.00  0.00    +0.000 F 
ENDBRANCH  28  29
ENDBRANCH  27  28
ENDBRANCH  19  22
ENDBRANCH   5  18
TORSDOF 7
ENDMDL
MODEL 7
REMARK VINA RESULT:      -8.1      2.966      4.678
REMARK  Name = 
REMARK  8 active torsions:
REMARK  status: ('A' for Active; 'I' for Inactive)
REMARK    1  A    between atoms: C_1  and  N_2
REMARK    2  A    between atoms: C_6  and  C_7
REMARK    3  A    between atoms: C_7  and  C_8
REMARK    4  A    between atoms: C_8  and  C_9
REMARK    5  A    between atoms: C_13  and  N_14
REMARK    6  A    between atoms: C_15  and  C_17
REMARK    7  A    between atoms: C_22  and  O_23
REMARK    8  A    between atoms: O_23  and  C_24
REMARK                            x       y       z     vdW  Elec       q    Type
REMARK                         _______ _______ _______ _____ _____    ______ ____
ROOT
ATOM      1  C   UNL     1       2.526   6.804  18.737  0.00  0.00    +0.000 A 
ATOM      2  C   UNL     1       3.142   7.390  17.613  0.00  0.00    +0.000 A 
ATOM      3  C   UNL     1       2.924   8.721  17.270  0.00  0.00    +0.000 A 
ATOM      4  C   UNL     1       2.073   9.507  18.043  0.00  0.00    +0.000 A 
ATOM      5  C   UNL     1       1.433   8.968  19.157  0.00  0.00    +0.000 A 
ATOM      6  C   UNL     1       1.679   7.637  19.500  0.00  0.00    +0.000 A 
ENDROOT
BRANCH   1   7
ATOM      7  C   UNL     1       2.771   5.265  19.115  0.00  0.00    +0.000 C 
ATOM      8  C   UNL     1       2.796   4.878  20.619  0.00  0.00    +0.000 C 
ATOM      9  O   UNL     1       1.645   4.018  20.485  0.00  0.00    +0.000 OA
ATOM     10  C   UNL     1       1.498   4.366  19.097  0.00  0.00    +0.000 C 
BRANCH   7  11
ATOM     11  C   UNL     1       3.899   4.667  18.253  0.00  0.00    +0.000 C 
BRANCH  11  17
ATOM     12  C   UNL     1       6.191   5.893  16.394  0.00  0.00    +0.000 C 
ATOM     13  N   UNL     1       6.260   5.577  17.796  0.00  0.00    +0.000 N 
ATOM     14  C   UNL     1       7.384   5.690  18.559  0.00  0.00    +0.000 A 
ATOM     15  N   UNL     1       7.117   5.338  19.791  0.00  0.00    +0.000 NA
ATOM     16  N   UNL     1       5.797   4.968  19.839  0.00  0.00    +0.000 NA
ATOM     17  C   UNL     1       5.278   5.094  18.634  0.00  0.00    +0.000 A 
ENDBRANCH  11  17
ENDBRANCH   7  11
ENDBRANCH   1   7
BRANCH   5  18
ATOM     18  N   UNL     1       0.516   9.689  19.949  0.00  0.00    +0.000 N 
ATOM     19  C   UNL     1       0.369  11.066  20.012  0.00  0.00    +0.000 C 
ATOM     20  O   UNL     1       1.065  11.884  19.422  0.00  0.00    +0.000 OA
ATOM     21  H   UNL     1      -0.154   9.163  20.507  0.00  0.00    +0.000 HD
BRANCH  19  22
ATOM     22  C   UNL     1      -0.768  11.513  20.888  0.00  0.00    +0.000 A 
ATOM     23  N   UNL     1      -1.773  12.175  20.234  0.00  0.00    +0.000 NA
ATOM     24  C   UNL     1      -2.761  12.675  21.005  0.00  0.00    +0.000 A 
ATOM     25  C   UNL     1      -2.814  12.520  22.381  0.00  0.00    +0.000 A 
ATOM     26  C   UNL     1      -1.805  11.797  23.016  0.00  0.00    +0.000 A 
ATOM     27  C   UNL     1      -0.757  11.267  22.265  0.00  0.00    +0.000 A 
BRANCH  27  28
ATOM     28  O   UNL     1       0.286  10.576  22.809  0.00  0.00    +0.000 OA
BRANCH  28  29
ATOM     29  C   UNL     1      -0.015   9.361  23.474  0.00  0.00    +0.000 C 
ATOM     30  F   UNL     1      -0.812   8.605  22.673  0.00  0.00    +0.000 F 
ENDBRANCH  28  29
ENDBRANCH  27  28
ENDBRANCH  19  22
ENDBRANCH   5  18
TORSDOF 7
ENDMDL
MODEL 8
REMARK VINA RESULT:      -8.1      2.707      4.006
REMARK  Name = 
REMARK  8 active torsions:
REMARK  status: ('A' for Active; 'I' for Inactive)
REMARK    1  A    between atoms: C_1  and  N_2
REMARK    2  A    between atoms: C_6  and  C_7
REMARK    3  A    between atoms: C_7  and  C_8
REMARK    4  A    between atoms: C_8  and  C_9
REMARK    5  A    between atoms: C_13  and  N_14
REMARK    6  A    between atoms: C_15  and  C_17
REMARK    7  A    between atoms: C_22  and  O_23
REMARK    8  A    between atoms: O_23  and  C_24
REMARK                            x       y       z     vdW  Elec       q    Type
REMARK                         _______ _______ _______ _____ _____    ______ ____
ROOT
ATOM      1  C   UNL     1       2.802   5.755  18.776  0.00  0.00    +0.000 A 
ATOM      2  C   UNL     1       3.301   6.174  17.526  0.00  0.00    +0.000 A 
ATOM      3  C   UNL     1       3.235   7.504  17.120  0.00  0.00    +0.000 A 
ATOM      4  C   UNL     1       2.658   8.456  17.955  0.00  0.00    +0.000 A 
ATOM      5  C   UNL     1       2.140   8.088  19.195  0.00  0.00    +0.000 A 
ATOM      6  C   UNL     1       2.234   6.753  19.596  0.00  0.00    +0.000 A 
ENDROOT
BRANCH   1   7
ATOM      7  C   UNL     1       2.869   4.217  19.228  0.00  0.00    +0.000 C 
ATOM      8  C   UNL     1       2.544   3.878  20.709  0.00  0.00    +0.000 C 
ATOM      9  O   UNL     1       1.401   3.076  20.343  0.00  0.00    +0.000 OA
ATOM     10  C   UNL     1       1.580   3.387  18.950  0.00  0.00    +0.000 C 
BRANCH   7  11
ATOM     11  C   UNL     1       4.120   3.534  18.645  0.00  0.00    +0.000 C 
BRANCH  11  17
ATOM     12  C   UNL     1       6.267   4.245  16.388  0.00  0.00    +0.000 C 
ATOM     13  N   UNL     1       6.314   4.565  17.790  0.00  0.00    +0.000 N 
ATOM     14  C   UNL     1       7.362   5.183  18.406  0.00  0.00    +0.000 A 
ATOM     15  N   UNL     1       7.094   5.340  19.677  0.00  0.00    +0.000 NA
ATOM     16  N   UNL     1       5.854   4.800  19.909  0.00  0.00    +0.000 NA
ATOM     17  C   UNL     1       5.385   4.315  18.776  0.00  0.00    +0.000 A 
ENDBRANCH  11  17
ENDBRANCH   7  11
ENDBRANCH   1   7
BRANCH   5  18
ATOM     18  N   UNL     1       1.492   8.989  20.064  0.00  0.00    +0.000 N 
ATOM     19  C   UNL     1       0.396   9.786  19.775  0.00  0.00    +0.000 C 
ATOM     20  O   UNL     1      -0.151   9.874  18.682  0.00  0.00    +0.000 OA
ATOM     21  H   UNL     1       1.815   9.042  21.028  0.00  0.00    +0.000 HD
BRANCH  19  22
ATOM     22  C   UNL     1      -0.112  10.567  20.955  0.00  0.00    +0.000 A 
ATOM     23  N   UNL     1      -0.501   9.805  22.026  0.00  0.00    +0.000 NA
ATOM     24  C   UNL     1      -1.052  10.469  23.063  0.00  0.00    +0.000 A 
ATOM     25  C   UNL     1      -1.204  11.846  23.100  0.00  0.00    +0.000 A 
ATOM     26  C   UNL     1      -0.752  12.601  22.018  0.00  0.00    +0.000 A 
ATOM     27  C   UNL     1      -0.183  11.964  20.918  0.00  0.00    +0.000 A 
BRANCH  27  28
ATOM     28  O   UNL     1       0.254  12.623  19.807  0.00  0.00    +0.000 OA
BRANCH  28  29
ATOM     29  C   UNL     1      -0.673  13.466  19.144  0.00  0.00    +0.000 C 
ATOM     30  F   UNL     1      -1.200  12.796  18.085  0.00  0.00    +0.000 F 
ENDBRANCH  28  29
ENDBRANCH  27  28
ENDBRANCH  19  22
ENDBRANCH   5  18
TORSDOF 7
ENDMDL
MODEL 9
REMARK VINA RESULT:      -8.1      3.315      8.809
REMARK  Name = 
REMARK  8 active torsions:
REMARK  status: ('A' for Active; 'I' for Inactive)
REMARK    1  A    between atoms: C_1  and  N_2
REMARK    2  A    between atoms: C_6  and  C_7
REMARK    3  A    between atoms: C_7  and  C_8
REMARK    4  A    between atoms: C_8  and  C_9
REMARK    5  A    between atoms: C_13  and  N_14
REMARK    6  A    between atoms: C_15  and  C_17
REMARK    7  A    between atoms: C_22  and  O_23
REMARK    8  A    between atoms: O_23  and  C_24
REMARK                            x       y       z     vdW  Elec       q    Type
REMARK                         _______ _______ _______ _____ _____    ______ ____
ROOT
ATOM      1  C   UNL     1      -0.375  10.199  20.375  0.00  0.00    +0.000 A 
ATOM      2  C   UNL     1      -0.287  10.533  21.742  0.00  0.00    +0.000 A 
ATOM      3  C   UNL     1       0.560   9.851  22.609  0.00  0.00    +0.000 A 
ATOM      4  C   UNL     1       1.345   8.804  22.132  0.00  0.00    +0.000 A 
ATOM      5  C   UNL     1       1.284   8.430  20.791  0.00  0.00    +0.000 A 
ATOM      6  C   UNL     1       0.444   9.139  19.930  0.00  0.00    +0.000 A 
ENDROOT
BRANCH   1   7
ATOM      7  C   UNL     1      -1.367  10.982  19.387  0.00  0.00    +0.000 C 
ATOM      8  C   UNL     1      -1.996  12.311  19.887  0.00  0.00    +0.000 C 
ATOM      9  O   UNL     1      -1.354  13.083  18.851  0.00  0.00    +0.000 OA
ATOM     10  C   UNL     1      -0.672  11.918  18.353  0.00  0.00    +0.000 C 
BRANCH   7  11
ATOM     11  C   UNL     1      -2.336  10.001  18.702  0.00  0.00    +0.000 C 
BRANCH  11  17
ATOM     12  C   UNL     1      -4.752  11.811  17.654  0.00  0.00    +0.000 C 
ATOM     13  N   UNL     1      -3.776  11.096  16.875  0.00  0.00    +0.000 N 
ATOM     14  C   UNL     1      -3.779  11.021  15.513  0.00  0.00    +0.000 A 
ATOM     15  N   UNL     1      -2.757  10.309  15.110  0.00  0.00    +0.000 NA
ATOM     16  N   UNL     1      -2.077   9.891  16.226  0.00  0.00    +0.000 NA
ATOM     17  C   UNL     1      -2.697  10.349  17.296  0.00  0.00    +0.000 A 
ENDBRANCH  11  17
ENDBRANCH   7  11
ENDBRANCH   1   7
BRANCH   5  18
ATOM     18  N   UNL     1       2.006   7.344  20.255  0.00  0.00    +0.000 N 
ATOM     19  C   UNL     1       2.523   7.237  18.974  0.00  0.00    +0.000 C 
ATOM     20  O   UNL     1       2.380   8.059  18.077  0.00  0.00    +0.000 OA
ATOM     21  H   UNL     1       2.226   6.564  20.871  0.00  0.00    +0.000 HD
BRANCH  19  22
ATOM     22  C   UNL     1       3.325   5.985  18.749  0.00  0.00    +0.000 A 
ATOM     23  N   UNL     1       4.565   6.185  18.202  0.00  0.00    +0.000 NA
ATOM     24  C   UNL     1       5.271   5.077  17.897  0.00  0.00    +0.000 A 
ATOM     25  C   UNL     1       4.820   3.789  18.139  0.00  0.00    +0.000 A 
ATOM     26  C   UNL     1       3.576   3.614  18.744  0.00  0.00    +0.000 A 
ATOM     27  C   UNL     1       2.803   4.727  19.071  0.00  0.00    +0.000 A 
BRANCH  27  28
ATOM     28  O   UNL     1       1.564   4.646  19.634  0.00  0.00    +0.000 OA
BRANCH  28  29
ATOM     29  C   UNL     1       1.413   3.791  20.755  0.00  0.00    +0.000 C 
ATOM     30  F   UNL     1       2.215   4.234  21.760  0.00  0.00    +0.000 F 
ENDBRANCH  28  29
ENDBRANCH  27  28
ENDBRANCH  19  22
ENDBRANCH   5  18
TORSDOF 7
ENDMDL
