MODEL 1
REMARK VINA RESULT:      -8.7      0.000      0.000
REMARK  Name = 
REMARK  5 active torsions:
REMARK  status: ('A' for Active; 'I' for Inactive)
REMARK    1  A    between atoms: C_7  and  C_8
REMARK    2  A    between atoms: N_14  and  C_15
REMARK    3  A    between atoms: C_19  and  C_20
REMARK    4  A    between atoms: C_20  and  C_21
REMARK    5  A    between atoms: C_21  and  C_22
REMARK                            x       y       z     vdW  Elec       q    Type
REMARK                         _______ _______ _______ _____ _____    ______ ____
ROOT
ATOM      1  O   UNL     1       2.586   8.195  17.600  0.00  0.00    +0.000 OA
ATOM      2  C   UNL     1       2.105   8.183  18.716  0.00  0.00    +0.000 C 
ATOM      3  C   UNL     1       1.351   9.325  19.241  0.00  0.00    +0.000 A 
ATOM      4  C   UNL     1       1.083  10.529  18.617  0.00  0.00    +0.000 A 
ATOM      5  C   UNL     1       0.362  11.479  19.335  0.00  0.00    +0.000 A 
ATOM      6  C   UNL     1      -0.058  11.207  20.651  0.00  0.00    +0.000 A 
ATOM      7  C   UNL     1       0.227   9.976  21.275  0.00  0.00    +0.000 A 
ATOM      8  C   UNL     1       0.937   9.033  20.536  0.00  0.00    +0.000 A 
ATOM      9  C   UNL     1       1.387   7.652  20.903  0.00  0.00    +0.000 C 
ATOM     10  N   UNL     1       2.121   7.208  19.719  0.00  0.00    +0.000 N 
ENDROOT
BRANCH  10  11
ATOM     11  C   UNL     1       2.831   5.977  19.673  0.00  0.00    +0.000 A 
ATOM     12  C   UNL     1       2.336   4.827  20.296  0.00  0.00    +0.000 A 
ATOM     13  C   UNL     1       2.993   3.598  20.185  0.00  0.00    +0.000 A 
ATOM     14  C   UNL     1       4.166   3.497  19.443  0.00  0.00    +0.000 A 
ATOM     15  C   UNL     1       4.699   4.630  18.827  0.00  0.00    +0.000 A 
ATOM     16  C   UNL     1       4.035   5.865  18.960  0.00  0.00    +0.000 A 
BRANCH  15  17
ATOM     17  C   UNL     1       5.945   4.522  17.979  0.00  0.00    +0.000 C 
BRANCH  17  18
ATOM     18  C   UNL     1       5.652   4.138  16.529  0.00  0.00    +0.000 C 
BRANCH  18  19
ATOM     19  C   UNL     1       6.584   4.757  15.586  0.00  0.00    +0.000 C 
ATOM     20  N   UNL     1       7.467   5.684  15.573  0.00  0.00    +0.000 NA
ATOM     21  N   UNL     1       7.656   5.446  14.157  0.00  0.00    +0.000 NA
ATOM     22  C   UNL     1       6.764   4.545  14.177  0.00  0.00    +0.000 C 
ENDBRANCH  18  19
ENDBRANCH  17  18
ENDBRANCH  15  17
ENDBRANCH  10  11
BRANCH   7  23
ATOM     23  C   UNL     1      -0.205   9.698  22.691  0.00  0.00    +0.000 C 
ATOM     24  F   UNL     1      -1.038   8.630  22.808  0.00  0.00    +0.000 F 
ATOM     25  F   UNL     1       0.851   9.446  23.510  0.00  0.00    +0.000 F 
ATOM     26  F   UNL     1      -0.864  10.752  23.242  0.00  0.00    +0.000 F 
ENDBRANCH   7  23
TORSDOF 5
ENDMDL
MODEL 2
REMARK VINA RESULT:      -8.7      2.621      3.901
REMARK  Name = 
REMARK  5 active torsions:
REMARK  status: ('A' for Active; 'I' for Inactive)
REMARK    1  A    between atoms: C_7  and  C_8
REMARK    2  A    between atoms: N_14  and  C_15
REMARK    3  A    between atoms: C_19  and  C_20
REMARK    4  A    between atoms: C_20  and  C_21
REMARK    5  A    between atoms: C_21  and  C_22
REMARK                            x       y       z     vdW  Elec       q    Type
REMARK                         _______ _______ _______ _____ _____    ______ ____
ROOT
ATOM      1  O   UNL     1       2.182   9.964  17.179  0.00  0.00    +0.000 OA
ATOM      2  C   UNL     1       1.792   9.542  18.250  0.00  0.00    +0.000 C 
ATOM      3  C   UNL     1       1.094  10.403  19.208  0.00  0.00    +0.000 A 
ATOM      4  C   UNL     1       0.787  11.745  19.081  0.00  0.00    +0.000 A 
ATOM      5  C   UNL     1       0.136  12.359  20.148  0.00  0.00    +0.000 A 
ATOM      6  C   UNL     1      -0.180  11.624  21.306  0.00  0.00    +0.000 A 
ATOM      7  C   UNL     1       0.145  10.257  21.422  0.00  0.00    +0.000 A 
ATOM      8  C   UNL     1       0.784   9.658  20.339  0.00  0.00    +0.000 A 
ATOM      9  C   UNL     1       1.250   8.247  20.149  0.00  0.00    +0.000 C 
ATOM     10  N   UNL     1       1.881   8.273  18.831  0.00  0.00    +0.000 N 
ENDROOT
BRANCH  10  11
ATOM     11  C   UNL     1       2.574   7.156  18.290  0.00  0.00    +0.000 A 
ATOM     12  C   UNL     1       3.890   7.268  17.829  0.00  0.00    +0.000 A 
ATOM     13  C   UNL     1       4.599   6.153  17.371  0.00  0.00    +0.000 A 
ATOM     14  C   UNL     1       4.000   4.897  17.366  0.00  0.00    +0.000 A 
ATOM     15  C   UNL     1       2.681   4.754  17.799  0.00  0.00    +0.000 A 
ATOM     16  C   UNL     1       1.973   5.888  18.244  0.00  0.00    +0.000 A 
BRANCH  15  17
ATOM     17  C   UNL     1       2.038   3.387  17.844  0.00  0.00    +0.000 C 
BRANCH  17  18
ATOM     18  C   UNL     1       1.122   3.195  19.053  0.00  0.00    +0.000 C 
BRANCH  18  19
ATOM     19  C   UNL     1       1.866   2.924  20.283  0.00  0.00    +0.000 C 
ATOM     20  N   UNL     1       3.062   2.643  20.642  0.00  0.00    +0.000 NA
ATOM     21  N   UNL     1       2.596   2.533  22.008  0.00  0.00    +0.000 NA
ATOM     22  C   UNL     1       1.411   2.790  21.639  0.00  0.00    +0.000 C 
ENDBRANCH  18  19
ENDBRANCH  17  18
ENDBRANCH  15  17
ENDBRANCH  10  11
BRANCH   7  23
ATOM     23  C   UNL     1      -0.174   9.481  22.673  0.00  0.00    +0.000 C 
ATOM     24  F   UNL     1      -0.837   8.317  22.439  0.00  0.00    +0.000 F 
ATOM     25  F   UNL     1       0.946   9.146  23.368  0.00  0.00    +0.000 F 
ATOM     26  F   UNL     1      -0.951  10.192  23.533  0.00  0.00    +0.000 F 
ENDBRANCH   7  23
TORSDOF 5
ENDMDL
MODEL 3
REMARK VINA RESULT:      -8.6      1.428      1.691
REMARK  Name = 
REMARK  5 active torsions:
REMARK  status: ('A' for Active; 'I' for Inactive)
REMARK    1  A    between atoms: C_7  and  C_8
REMARK    2  A    between atoms: N_14  and  C_15
REMARK    3  A    between atoms: C_19  and  C_20
REMARK    4  A    between atoms: C_20  and  C_21
REMARK    5  A    between atoms: C_21  and  C_22
REMARK                            x       y       z     vdW  Elec       q    Type
REMARK                         _______ _______ _______ _____ _____    ______ ____
ROOT
ATOM      1  O   UNL     1       2.464   8.838  17.173  0.00  0.00    +0.000 OA
ATOM      2  C   UNL     1       2.030   8.658  18.293  0.00  0.00    +0.000 C 
ATOM      3  C   UNL     1       1.372   9.729  19.045  0.00  0.00    +0.000 A 
ATOM      4  C   UNL     1       1.153  11.037  18.651  0.00  0.00    +0.000 A 
ATOM      5  C   UNL     1       0.524  11.885  19.559  0.00  0.00    +0.000 A 
ATOM      6  C   UNL     1       0.143  11.410  20.828  0.00  0.00    +0.000 A 
ATOM      7  C   UNL     1       0.377  10.076  21.216  0.00  0.00    +0.000 A 
ATOM      8  C   UNL     1       0.996   9.239  20.290  0.00  0.00    +0.000 A 
ATOM      9  C   UNL     1       1.373   7.794  20.391  0.00  0.00    +0.000 C 
ATOM     10  N   UNL     1       2.028   7.524  19.112  0.00  0.00    +0.000 N 
ENDROOT
BRANCH  10  11
ATOM     11  C   UNL     1       2.657   6.283  18.819  0.00  0.00    +0.000 A 
ATOM     12  C   UNL     1       1.993   5.278  18.107  0.00  0.00    +0.000 A 
ATOM     13  C   UNL     1       2.638   4.091  17.751  0.00  0.00    +0.000 A 
ATOM     14  C   UNL     1       3.968   3.884  18.101  0.00  0.00    +0.000 A 
ATOM     15  C   UNL     1       4.654   4.857  18.830  0.00  0.00    +0.000 A 
ATOM     16  C   UNL     1       3.988   6.043  19.196  0.00  0.00    +0.000 A 
BRANCH  15  17
ATOM     17  C   UNL     1       6.114   4.665  19.173  0.00  0.00    +0.000 C 
BRANCH  17  18
ATOM     18  C   UNL     1       7.036   4.791  17.961  0.00  0.00    +0.000 C 
BRANCH  18  19
ATOM     19  C   UNL     1       7.266   6.183  17.574  0.00  0.00    +0.000 C 
ATOM     20  N   UNL     1       7.066   6.948  16.568  0.00  0.00    +0.000 NA
ATOM     21  N   UNL     1       7.738   8.014  17.280  0.00  0.00    +0.000 NA
ATOM     22  C   UNL     1       7.950   7.242  18.263  0.00  0.00    +0.000 C 
ENDBRANCH  18  19
ENDBRANCH  17  18
ENDBRANCH  15  17
ENDBRANCH  10  11
BRANCH   7  23
ATOM     23  C   UNL     1      -0.012   9.580  22.584  0.00  0.00    +0.000 C 
ATOM     24  F   UNL     1      -0.860   8.517  22.559  0.00  0.00    +0.000 F 
ATOM     25  F   UNL     1       1.067   9.186  23.314  0.00  0.00    +0.000 F 
ATOM     26  F   UNL     1      -0.632  10.540  23.321  0.00  0.00    +0.000 F 
ENDBRANCH   7  23
TORSDOF 5
ENDMDL
MODEL 4
REMARK VINA RESULT:      -8.6      1.248      1.799
REMARK  Name = 
REMARK  5 active torsions:
REMARK  status: ('A' for Active; 'I' for Inactive)
REMARK    1  A    between atoms: C_7  and  C_8
REMARK    2  A    between atoms: N_14  and  C_15
REMARK    3  A    between atoms: C_19  and  C_20
REMARK    4  A    between atoms: C_20  and  C_21
REMARK    5  A    between atoms: C_21  and  C_22
REMARK                            x       y       z     vdW  Elec       q    Type
REMARK                         _______ _______ _______ _____ _____    ______ ____
ROOT
ATOM      1  O   UNL     1       2.219   8.955  17.351  0.00  0.00    +0.000 OA
ATOM      2  C   UNL     1       1.832   8.789  18.491  0.00  0.00    +0.000 C 
ATOM      3  C   UNL     1       1.068   9.818  19.201  0.00  0.00    +0.000 A 
ATOM      4  C   UNL     1       0.688  11.066  18.744  0.00  0.00    +0.000 A 
ATOM      5  C   UNL     1      -0.018  11.885  19.621  0.00  0.00    +0.000 A 
ATOM      6  C   UNL     1      -0.315  11.442  20.924  0.00  0.00    +0.000 A 
ATOM      7  C   UNL     1       0.083  10.169  21.377  0.00  0.00    +0.000 A 
ATOM      8  C   UNL     1       0.777   9.358  20.481  0.00  0.00    +0.000 A 
ATOM      9  C   UNL     1       1.325   7.975  20.649  0.00  0.00    +0.000 C 
ATOM     10  N   UNL     1       1.980   7.711  19.369  0.00  0.00    +0.000 N 
ENDROOT
BRANCH  10  11
ATOM     11  C   UNL     1       2.746   6.538  19.127  0.00  0.00    +0.000 A 
ATOM     12  C   UNL     1       2.642   5.416  19.956  0.00  0.00    +0.000 A 
ATOM     13  C   UNL     1       3.334   4.235  19.673  0.00  0.00    +0.000 A 
ATOM     14  C   UNL     1       4.148   4.153  18.548  0.00  0.00    +0.000 A 
ATOM     15  C   UNL     1       4.291   5.261  17.711  0.00  0.00    +0.000 A 
ATOM     16  C   UNL     1       3.600   6.450  18.016  0.00  0.00    +0.000 A 
BRANCH  15  17
ATOM     17  C   UNL     1       5.133   5.168  16.460  0.00  0.00    +0.000 C 
BRANCH  17  18
ATOM     18  C   UNL     1       6.624   4.997  16.751  0.00  0.00    +0.000 C 
BRANCH  18  19
ATOM     19  C   UNL     1       7.233   6.215  17.286  0.00  0.00    +0.000 C 
ATOM     20  N   UNL     1       7.531   7.396  16.892  0.00  0.00    +0.000 NA
ATOM     21  N   UNL     1       8.121   7.650  18.189  0.00  0.00    +0.000 NA
ATOM     22  C   UNL     1       7.842   6.471  18.562  0.00  0.00    +0.000 C 
ENDBRANCH  18  19
ENDBRANCH  17  18
ENDBRANCH  15  17
ENDBRANCH  10  11
BRANCH   7  23
ATOM     23  C   UNL     1      -0.217   9.709  22.780  0.00  0.00    +0.000 C 
ATOM     24  F   UNL     1      -0.951  10.598  23.500  0.00  0.00    +0.000 F 
ATOM     25  F   UNL     1      -0.912   8.540  22.799  0.00  0.00    +0.000 F 
ATOM     26  F   UNL     1       0.915   9.484  23.499  0.00  0.00    +0.000 F 
ENDBRANCH   7  23
TORSDOF 5
ENDMDL
MODEL 5
REMARK VINA RESULT:      -8.6      1.328      1.912
REMARK  Name = 
REMARK  5 active torsions:
REMARK  status: ('A' for Active; 'I' for Inactive)
REMARK    1  A    between atoms: C_7  and  C_8
REMARK    2  A    between atoms: N_14  and  C_15
REMARK    3  A    between atoms: C_19  and  C_20
REMARK    4  A    between atoms: C_20  and  C_21
REMARK    5  A    between atoms: C_21  and  C_22
REMARK                            x       y       z     vdW  Elec       q    Type
REMARK                         _______ _______ _______ _____ _____    ______ ____
ROOT
ATOM      1  O   UNL     1       2.366   8.912  17.255  0.00  0.00    +0.000 OA
ATOM      2  C   UNL     1       1.965   8.743  18.390  0.00  0.00    +0.000 C 
ATOM      3  C   UNL     1       1.257   9.797  19.120  0.00  0.00    +0.000 A 
ATOM      4  C   UNL     1       0.953  11.076  18.690  0.00  0.00    +0.000 A 
ATOM      5  C   UNL     1       0.291  11.914  19.583  0.00  0.00    +0.000 A 
ATOM      6  C   UNL     1      -0.038  11.460  20.875  0.00  0.00    +0.000 A 
ATOM      7  C   UNL     1       0.284  10.155  21.300  0.00  0.00    +0.000 A 
ATOM      8  C   UNL     1       0.934   9.327  20.388  0.00  0.00    +0.000 A 
ATOM      9  C   UNL     1       1.400   7.910  20.526  0.00  0.00    +0.000 C 
ATOM     10  N   UNL     1       2.045   7.638  19.243  0.00  0.00    +0.000 N 
ENDROOT
BRANCH  10  11
ATOM     11  C   UNL     1       2.743   6.428  18.977  0.00  0.00    +0.000 A 
ATOM     12  C   UNL     1       2.539   5.283  19.754  0.00  0.00    +0.000 A 
ATOM     13  C   UNL     1       3.164   4.072  19.444  0.00  0.00    +0.000 A 
ATOM     14  C   UNL     1       4.011   3.983  18.343  0.00  0.00    +0.000 A 
ATOM     15  C   UNL     1       4.253   5.112  17.559  0.00  0.00    +0.000 A 
ATOM     16  C   UNL     1       3.628   6.330  17.891  0.00  0.00    +0.000 A 
BRANCH  15  17
ATOM     17  C   UNL     1       5.131   5.014  16.333  0.00  0.00    +0.000 C 
BRANCH  17  18
ATOM     18  C   UNL     1       6.417   5.832  16.449  0.00  0.00    +0.000 C 
BRANCH  18  19
ATOM     19  C   UNL     1       7.221   5.449  17.610  0.00  0.00    +0.000 C 
ATOM     20  N   UNL     1       7.819   4.414  18.069  0.00  0.00    +0.000 NA
ATOM     21  N   UNL     1       8.179   5.177  19.245  0.00  0.00    +0.000 NA
ATOM     22  C   UNL     1       7.566   6.190  18.792  0.00  0.00    +0.000 C 
ENDBRANCH  18  19
ENDBRANCH  17  18
ENDBRANCH  15  17
ENDBRANCH  10  11
BRANCH   7  23
ATOM     23  C   UNL     1      -0.049   9.681  22.690  0.00  0.00    +0.000 C 
ATOM     24  F   UNL     1       1.043   9.363  23.434  0.00  0.00    +0.000 F 
ATOM     25  F   UNL     1      -0.732  10.619  23.402  0.00  0.00    +0.000 F 
ATOM     26  F   UNL     1      -0.835   8.572  22.680  0.00  0.00    +0.000 F 
ENDBRANCH   7  23
TORSDOF 5
ENDMDL
MODEL 6
REMARK VINA RESULT:      -8.5      1.024      1.386
REMARK  Name = 
REMARK  5 active torsions:
REMARK  status: ('A' for Active; 'I' for Inactive)
REMARK    1  A    between atoms: C_7  and  C_8
REMARK    2  A    between atoms: N_14  and  C_15
REMARK    3  A    between atoms: C_19  and  C_20
REMARK    4  A    between atoms: C_20  and  C_21
REMARK    5  A    between atoms: C_21  and  C_22
REMARK                            x       y       z     vdW  Elec       q    Type
REMARK                         _______ _______ _______ _____ _____    ______ ____
ROOT
ATOM      1  O   UNL     1       2.291   8.913  17.241  0.00  0.00    +0.000 OA
ATOM      2  C   UNL     1       1.895   8.726  18.374  0.00  0.00    +0.000 C 
ATOM      3  C   UNL     1       1.191   9.770  19.124  0.00  0.00    +0.000 A 
ATOM      4  C   UNL     1       0.884  11.054  18.715  0.00  0.00    +0.000 A 
ATOM      5  C   UNL     1       0.226  11.878  19.623  0.00  0.00    +0.000 A 
ATOM      6  C   UNL     1      -0.096  11.405  20.909  0.00  0.00    +0.000 A 
ATOM      7  C   UNL     1       0.228  10.094  21.313  0.00  0.00    +0.000 A 
ATOM      8  C   UNL     1       0.874   9.280  20.386  0.00  0.00    +0.000 A 
ATOM      9  C   UNL     1       1.342   7.862  20.501  0.00  0.00    +0.000 C 
ATOM     10  N   UNL     1       1.981   7.609  19.211  0.00  0.00    +0.000 N 
ENDROOT
BRANCH  10  11
ATOM     11  C   UNL     1       2.678   6.404  18.923  0.00  0.00    +0.000 A 
ATOM     12  C   UNL     1       2.040   5.323  18.305  0.00  0.00    +0.000 A 
ATOM     13  C   UNL     1       2.743   4.168  17.950  0.00  0.00    +0.000 A 
ATOM     14  C   UNL     1       4.107   4.072  18.209  0.00  0.00    +0.000 A 
ATOM     15  C   UNL     1       4.770   5.124  18.844  0.00  0.00    +0.000 A 
ATOM     16  C   UNL     1       4.046   6.276  19.210  0.00  0.00    +0.000 A 
BRANCH  15  17
ATOM     17  C   UNL     1       6.260   5.051  19.085  0.00  0.00    +0.000 C 
BRANCH  17  18
ATOM     18  C   UNL     1       7.057   6.023  18.214  0.00  0.00    +0.000 C 
BRANCH  18  19
ATOM     19  C   UNL     1       6.774   5.859  16.788  0.00  0.00    +0.000 C 
ATOM     20  N   UNL     1       6.146   6.470  15.855  0.00  0.00    +0.000 NA
ATOM     21  N   UNL     1       6.483   5.386  14.956  0.00  0.00    +0.000 NA
ATOM     22  C   UNL     1       7.084   4.779  15.893  0.00  0.00    +0.000 C 
ENDBRANCH  18  19
ENDBRANCH  17  18
ENDBRANCH  15  17
ENDBRANCH  10  11
BRANCH   7  23
ATOM     23  C   UNL     1      -0.098   9.599  22.698  0.00  0.00    +0.000 C 
ATOM     24  F   UNL     1       0.997   9.248  23.424  0.00  0.00    +0.000 F 
ATOM     25  F   UNL     1      -0.757  10.534  23.435  0.00  0.00    +0.000 F 
ATOM     26  F   UNL     1      -0.903   8.504  22.675  0.00  0.00    +0.000 F 
ENDBRANCH   7  23
TORSDOF 5
ENDMDL
MODEL 7
REMARK VINA RESULT:      -8.4      0.881      1.394
REMARK  Name = 
REMARK  5 active torsions:
REMARK  status: ('A' for Active; 'I' for Inactive)
REMARK    1  A    between atoms: C_7  and  C_8
REMARK    2  A    between atoms: N_14  and  C_15
REMARK    3  A    between atoms: C_19  and  C_20
REMARK    4  A    between atoms: C_20  and  C_21
REMARK    5  A    between atoms: C_21  and  C_22
REMARK                            x       y       z     vdW  Elec       q    Type
REMARK                         _______ _______ _______ _____ _____    ______ ____
ROOT
ATOM      1  O   UNL     1       2.644   7.988  17.637  0.00  0.00    +0.000 OA
ATOM      2  C   UNL     1       2.139   8.020  18.742  0.00  0.00    +0.000 C 
ATOM      3  C   UNL     1       1.461   9.218  19.243  0.00  0.00    +0.000 A 
ATOM      4  C   UNL     1       1.295  10.433  18.605  0.00  0.00    +0.000 A 
ATOM      5  C   UNL     1       0.631  11.440  19.301  0.00  0.00    +0.000 A 
ATOM      6  C   UNL     1       0.164  11.210  20.609  0.00  0.00    +0.000 A 
ATOM      7  C   UNL     1       0.345   9.966  21.247  0.00  0.00    +0.000 A 
ATOM      8  C   UNL     1       0.999   8.968  20.530  0.00  0.00    +0.000 A 
ATOM      9  C   UNL     1       1.338   7.561  20.915  0.00  0.00    +0.000 C 
ATOM     10  N   UNL     1       2.062   7.055  19.751  0.00  0.00    +0.000 N 
ENDROOT
BRANCH  10  11
ATOM     11  C   UNL     1       2.680   5.775  19.729  0.00  0.00    +0.000 A 
ATOM     12  C   UNL     1       1.942   4.605  19.937  0.00  0.00    +0.000 A 
ATOM     13  C   UNL     1       2.534   3.342  19.836  0.00  0.00    +0.000 A 
ATOM     14  C   UNL     1       3.885   3.226  19.525  0.00  0.00    +0.000 A 
ATOM     15  C   UNL     1       4.656   4.374  19.332  0.00  0.00    +0.000 A 
ATOM     16  C   UNL     1       4.050   5.640  19.451  0.00  0.00    +0.000 A 
BRANCH  15  17
ATOM     17  C   UNL     1       6.112   4.258  18.944  0.00  0.00    +0.000 C 
BRANCH  17  18
ATOM     18  C   UNL     1       6.339   4.339  17.435  0.00  0.00    +0.000 C 
BRANCH  18  19
ATOM     19  C   UNL     1       6.937   5.609  17.026  0.00  0.00    +0.000 C 
ATOM     20  N   UNL     1       7.391   6.162  15.964  0.00  0.00    +0.000 NA
ATOM     21  N   UNL     1       7.761   7.316  16.756  0.00  0.00    +0.000 NA
ATOM     22  C   UNL     1       7.328   6.751  17.805  0.00  0.00    +0.000 C 
ENDBRANCH  18  19
ENDBRANCH  17  18
ENDBRANCH  15  17
ENDBRANCH  10  11
BRANCH   7  23
ATOM     23  C   UNL     1      -0.137   9.733  22.655  0.00  0.00    +0.000 C 
ATOM     24  F   UNL     1      -0.795  10.796  23.190  0.00  0.00    +0.000 F 
ATOM     25  F   UNL     1      -0.993   8.678  22.737  0.00  0.00    +0.000 F 
ATOM     26  F   UNL     1       0.885   9.454  23.507  0.00  0.00    +0.000 F 
ENDBRANCH   7  23
TORSDOF 5
ENDMDL
MODEL 8
REMARK VINA RESULT:      -8.3      0.983      1.201
REMARK  Name = 
REMARK  5 active torsions:
REMARK  status: ('A' for Active; 'I' for Inactive)
REMARK    1  A    between atoms: C_7  and  C_8
REMARK    2  A    between atoms: N_14  and  C_15
REMARK    3  A    between atoms: C_19  and  C_20
REMARK    4  A    between atoms: C_20  and  C_21
REMARK    5  A    between atoms: C_21  and  C_22
REMARK                            x       y       z     vdW  Elec       q    Type
REMARK                         _______ _______ _______ _____ _____    ______ ____
ROOT
ATOM      1  O   UNL     1       2.108   9.331  17.268  0.00  0.00    +0.000 OA
ATOM      2  C   UNL     1       1.752   9.087  18.404  0.00  0.00    +0.000 C 
ATOM      3  C   UNL     1       0.924  10.024  19.168  0.00  0.00    +0.000 A 
ATOM      4  C   UNL     1       0.447  11.259  18.771  0.00  0.00    +0.000 A 
ATOM      5  C   UNL     1      -0.304  11.985  19.692  0.00  0.00    +0.000 A 
ATOM      6  C   UNL     1      -0.547  11.465  20.977  0.00  0.00    +0.000 A 
ATOM      7  C   UNL     1      -0.050  10.206  21.368  0.00  0.00    +0.000 A 
ATOM      8  C   UNL     1       0.688   9.489  20.429  0.00  0.00    +0.000 A 
ATOM      9  C   UNL     1       1.338   8.144  20.529  0.00  0.00    +0.000 C 
ATOM     10  N   UNL     1       1.991   7.985  19.231  0.00  0.00    +0.000 N 
ENDROOT
BRANCH  10  11
ATOM     11  C   UNL     1       2.837   6.884  18.927  0.00  0.00    +0.000 A 
ATOM     12  C   UNL     1       2.807   5.710  19.689  0.00  0.00    +0.000 A 
ATOM     13  C   UNL     1       3.580   4.598  19.343  0.00  0.00    +0.000 A 
ATOM     14  C   UNL     1       4.404   4.639  18.223  0.00  0.00    +0.000 A 
ATOM     15  C   UNL     1       4.474   5.802  17.454  0.00  0.00    +0.000 A 
ATOM     16  C   UNL     1       3.701   6.921  17.821  0.00  0.00    +0.000 A 
BRANCH  15  17
ATOM     17  C   UNL     1       5.327   5.841  16.207  0.00  0.00    +0.000 C 
BRANCH  17  18
ATOM     18  C   UNL     1       5.761   4.454  15.734  0.00  0.00    +0.000 C 
BRANCH  18  19
ATOM     19  C   UNL     1       6.416   4.487  14.426  0.00  0.00    +0.000 C 
ATOM     20  N   UNL     1       7.301   5.177  13.809  0.00  0.00    +0.000 NA
ATOM     21  N   UNL     1       7.070   4.368  12.631  0.00  0.00    +0.000 NA
ATOM     22  C   UNL     1       6.180   3.705  13.244  0.00  0.00    +0.000 C 
ENDBRANCH  18  19
ENDBRANCH  17  18
ENDBRANCH  15  17
ENDBRANCH  10  11
BRANCH   7  23
ATOM     23  C   UNL     1      -0.294   9.664  22.753  0.00  0.00    +0.000 C 
ATOM     24  F   UNL     1      -0.982   8.491  22.766  0.00  0.00    +0.000 F 
ATOM     25  F   UNL     1       0.866   9.431  23.424  0.00  0.00    +0.000 F 
ATOM     26  F   UNL     1      -1.007  10.529  23.523  0.00  0.00    +0.000 F 
ENDBRANCH   7  23
TORSDOF 5
ENDMDL
MODEL 9
REMARK VINA RESULT:      -8.1      2.431      3.508
REMARK  Name = 
REMARK  5 active torsions:
REMARK  status: ('A' for Active; 'I' for Inactive)
REMARK    1  A    between atoms: C_7  and  C_8
REMARK    2  A    between atoms: N_14  and  C_15
REMARK    3  A    between atoms: C_19  and  C_20
REMARK    4  A    between atoms: C_20  and  C_21
REMARK    5  A    between atoms: C_21  and  C_22
REMARK                            x       y       z     vdW  Elec       q    Type
REMARK                         _______ _______ _______ _____ _____    ______ ____
ROOT
ATOM      1  O   UNL     1       2.020   9.634  17.218  0.00  0.00    +0.000 OA
ATOM      2  C   UNL     1       1.688   9.323  18.345  0.00  0.00    +0.000 C 
ATOM      3  C   UNL     1       0.851  10.199  19.169  0.00  0.00    +0.000 A 
ATOM      4  C   UNL     1       0.339  11.441  18.844  0.00  0.00    +0.000 A 
ATOM      5  C   UNL     1      -0.414  12.100  19.812  0.00  0.00    +0.000 A 
ATOM      6  C   UNL     1      -0.625  11.509  21.072  0.00  0.00    +0.000 A 
ATOM      7  C   UNL     1      -0.092  10.243  21.390  0.00  0.00    +0.000 A 
ATOM      8  C   UNL     1       0.648   9.594  20.404  0.00  0.00    +0.000 A 
ATOM      9  C   UNL     1       1.331   8.262  20.425  0.00  0.00    +0.000 C 
ATOM     10  N   UNL     1       1.967   8.187  19.110  0.00  0.00    +0.000 N 
ENDROOT
BRANCH  10  11
ATOM     11  C   UNL     1       2.834   7.123  18.738  0.00  0.00    +0.000 A 
ATOM     12  C   UNL     1       3.655   7.213  17.609  0.00  0.00    +0.000 A 
ATOM     13  C   UNL     1       4.565   6.202  17.287  0.00  0.00    +0.000 A 
ATOM     14  C   UNL     1       4.670   5.073  18.094  0.00  0.00    +0.000 A 
ATOM     15  C   UNL     1       3.851   4.941  19.216  0.00  0.00    +0.000 A 
ATOM     16  C   UNL     1       2.928   5.961  19.520  0.00  0.00    +0.000 A 
BRANCH  15  17
ATOM     17  C   UNL     1       3.992   3.743  20.126  0.00  0.00    +0.000 C 
BRANCH  17  18
ATOM     18  C   UNL     1       3.702   2.418  19.423  0.00  0.00    +0.000 C 
BRANCH  18  19
ATOM     19  C   UNL     1       2.338   2.350  18.897  0.00  0.00    +0.000 C 
ATOM     20  N   UNL     1       1.743   2.347  17.764  0.00  0.00    +0.000 NA
ATOM     21  N   UNL     1       0.475   2.322  18.461  0.00  0.00    +0.000 NA
ATOM     22  C   UNL     1       1.074   2.348  19.578  0.00  0.00    +0.000 C 
ENDBRANCH  18  19
ENDBRANCH  17  18
ENDBRANCH  15  17
ENDBRANCH  10  11
BRANCH   7  23
ATOM     23  C   UNL     1      -0.300   9.626  22.748  0.00  0.00    +0.000 C 
ATOM     24  F   UNL     1      -1.039  10.396  23.590  0.00  0.00    +0.000 F 
ATOM     25  F   UNL     1      -0.938   8.426  22.674  0.00  0.00    +0.000 F 
ATOM     26  F   UNL     1       0.875   9.387  23.389  0.00  0.00    +0.000 F 
ENDBRANCH   7  23
TORSDOF 5
ENDMDL
