MODEL 1
REMARK VINA RESULT:      -9.8      0.000      0.000
REMARK  Name = 
REMARK  3 active torsions:
REMARK  status: ('A' for Active; 'I' for Inactive)
REMARK    1  A    between atoms: C_2  and  C_21
REMARK    2  A    between atoms: N_3  and  C_4
REMARK    3  A    between atoms: C_4  and  C_5
REMARK                            x       y       z     vdW  Elec       q    Type
REMARK                         _______ _______ _______ _____ _____    ______ ____
ROOT
ATOM      1  C   UNL     1       1.150   9.335  21.231  0.00  0.00    +0.000 C 
ENDROOT
BRANCH   1   2
ATOM      2  C   UNL     1      -0.226   9.768  20.665  0.00  0.00    +0.000 C 
ATOM      3  C   UNL     1      -0.830  10.977  21.473  0.00  0.00    +0.000 C 
ATOM      4  C   UNL     1      -1.133  12.170  20.527  0.00  0.00    +0.000 C 
ATOM      5  C   UNL     1      -2.105  11.653  19.464  0.00  0.00    +0.000 A 
ATOM      6  C   UNL     1      -3.322  12.234  19.126  0.00  0.00    +0.000 A 
ATOM      7  C   UNL     1      -4.036  11.718  18.042  0.00  0.00    +0.000 A 
ATOM      8  C   UNL     1      -3.539  10.629  17.310  0.00  0.00    +0.000 A 
ATOM      9  C   UNL     1      -2.317  10.039  17.646  0.00  0.00    +0.000 A 
ATOM     10  C   UNL     1      -1.600  10.553  18.720  0.00  0.00    +0.000 A 
ATOM     11  C   UNL     1      -0.180  10.147  19.128  0.00  0.00    +0.000 C 
ATOM     12  C   UNL     1       0.663  11.420  19.011  0.00  0.00    +0.000 A 
ATOM     13  C   UNL     1       1.786  11.584  18.213  0.00  0.00    +0.000 A 
ATOM     14  C   UNL     1       2.505  12.775  18.318  0.00  0.00    +0.000 A 
ATOM     15  C   UNL     1       2.091  13.788  19.198  0.00  0.00    +0.000 A 
ATOM     16  C   UNL     1       0.916  13.656  19.943  0.00  0.00    +0.000 A 
ATOM     17  C   UNL     1       0.190  12.482  19.826  0.00  0.00    +0.000 A 
ENDBRANCH   1   2
BRANCH   1  20
ATOM     18  O   UNL     1       2.279   8.141  18.912  0.00  0.00    +0.000 OA
ATOM     19  C   UNL     1       2.059   7.435  19.897  0.00  0.00    +0.000 C 
ATOM     20  N   UNL     1       1.467   7.916  21.044  0.00  0.00    +0.000 N 
ATOM     21  H   UNL     1       1.523   7.349  21.877  0.00  0.00    +0.000 HD
BRANCH  19  22
ATOM     22  C   UNL     1       2.550   6.009  19.941  0.00  0.00    +0.000 A 
ATOM     23  C   UNL     1       1.773   5.036  20.720  0.00  0.00    +0.000 A 
ATOM     24  C   UNL     1       2.125   3.746  20.836  0.00  0.00    +0.000 A 
ATOM     25  C   UNL     1       3.392   3.331  20.209  0.00  0.00    +0.000 A 
ATOM     26  N   UNL     1       3.977   2.182  20.317  0.00  0.00    +0.000 NA
ATOM     27  N   UNL     1       5.142   2.348  19.608  0.00  0.00    +0.000 N 
ATOM     28  C   UNL     1       5.235   3.652  19.116  0.00  0.00    +0.000 A 
ATOM     29  O   UNL     1       6.207   4.137  18.545  0.00  0.00    +0.000 OA
ATOM     30  N   UNL     1       4.069   4.267  19.490  0.00  0.00    +0.000 N 
ATOM     31  C   UNL     1       3.691   5.582  19.354  0.00  0.00    +0.000 A 
ATOM     32  H   UNL     1       5.938   1.739  19.754  0.00  0.00    +0.000 HD
ENDBRANCH  19  22
ENDBRANCH   1  20
TORSDOF 3
ENDMDL
MODEL 2
REMARK VINA RESULT:      -9.7      1.485      1.779
REMARK  Name = 
REMARK  3 active torsions:
REMARK  status: ('A' for Active; 'I' for Inactive)
REMARK    1  A    between atoms: C_2  and  C_21
REMARK    2  A    between atoms: N_3  and  C_4
REMARK    3  A    between atoms: C_4  and  C_5
REMARK                            x       y       z     vdW  Elec       q    Type
REMARK                         _______ _______ _______ _____ _____    ______ ____
ROOT
ATOM      1  C   UNL     1       1.425   8.960  21.008  0.00  0.00    +0.000 C 
ENDROOT
BRANCH   1   2
ATOM      2  C   UNL     1       0.031   9.507  20.612  0.00  0.00    +0.000 C 
ATOM      3  C   UNL     1      -0.429  10.667  21.571  0.00  0.00    +0.000 C 
ATOM      4  C   UNL     1      -0.748  11.953  20.761  0.00  0.00    +0.000 C 
ATOM      5  C   UNL     1      -1.839  11.579  19.754  0.00  0.00    +0.000 A 
ATOM      6  C   UNL     1      -3.046  12.247  19.583  0.00  0.00    +0.000 A 
ATOM      7  C   UNL     1      -3.882  11.863  18.531  0.00  0.00    +0.000 A 
ATOM      8  C   UNL     1      -3.514  10.821  17.667  0.00  0.00    +0.000 A 
ATOM      9  C   UNL     1      -2.303  10.145  17.836  0.00  0.00    +0.000 A 
ATOM     10  C   UNL     1      -1.465  10.527  18.877  0.00  0.00    +0.000 A 
ATOM     11  C   UNL     1      -0.039  10.018  19.115  0.00  0.00    +0.000 C 
ATOM     12  C   UNL     1       0.860  11.254  19.026  0.00  0.00    +0.000 A 
ATOM     13  C   UNL     1       1.915  11.434  18.143  0.00  0.00    +0.000 A 
ATOM     14  C   UNL     1       2.706  12.574  18.279  0.00  0.00    +0.000 A 
ATOM     15  C   UNL     1       2.430  13.524  19.276  0.00  0.00    +0.000 A 
ATOM     16  C   UNL     1       1.321  13.384  20.114  0.00  0.00    +0.000 A 
ATOM     17  C   UNL     1       0.522  12.261  19.968  0.00  0.00    +0.000 A 
ENDBRANCH   1   2
BRANCH   1  20
ATOM     18  O   UNL     1       2.622   7.999  18.616  0.00  0.00    +0.000 OA
ATOM     19  C   UNL     1       2.288   7.189  19.480  0.00  0.00    +0.000 C 
ATOM     20  N   UNL     1       1.655   7.558  20.646  0.00  0.00    +0.000 N 
ATOM     21  H   UNL     1       1.615   6.883  21.396  0.00  0.00    +0.000 HD
BRANCH  19  22
ATOM     22  C   UNL     1       2.675   5.735  19.357  0.00  0.00    +0.000 A 
ATOM     23  C   UNL     1       4.105   5.399  19.371  0.00  0.00    +0.000 A 
ATOM     24  C   UNL     1       4.560   4.141  19.257  0.00  0.00    +0.000 A 
ATOM     25  C   UNL     1       3.565   3.079  19.032  0.00  0.00    +0.000 A 
ATOM     26  N   UNL     1       3.797   1.835  18.761  0.00  0.00    +0.000 NA
ATOM     27  N   UNL     1       2.542   1.307  18.576  0.00  0.00    +0.000 N 
ATOM     28  C   UNL     1       1.568   2.301  18.709  0.00  0.00    +0.000 A 
ATOM     29  O   UNL     1       0.369   2.164  18.487  0.00  0.00    +0.000 OA
ATOM     30  N   UNL     1       2.253   3.440  19.039  0.00  0.00    +0.000 N 
ATOM     31  C   UNL     1       1.791   4.728  19.181  0.00  0.00    +0.000 A 
ATOM     32  H   UNL     1       2.405   0.443  18.068  0.00  0.00    +0.000 HD
ENDBRANCH  19  22
ENDBRANCH   1  20
TORSDOF 3
ENDMDL
MODEL 3
REMARK VINA RESULT:      -9.3      1.850      2.098
REMARK  Name = 
REMARK  3 active torsions:
REMARK  status: ('A' for Active; 'I' for Inactive)
REMARK    1  A    between atoms: C_2  and  C_21
REMARK    2  A    between atoms: N_3  and  C_4
REMARK    3  A    between atoms: C_4  and  C_5
REMARK                            x       y       z     vdW  Elec       q    Type
REMARK                         _______ _______ _______ _____ _____    ______ ____
ROOT
ATOM      1  C   UNL     1       1.306   8.932  20.758  0.00  0.00    +0.000 C 
ENDROOT
BRANCH   1   2
ATOM      2  C   UNL     1      -0.047   9.368  20.144  0.00  0.00    +0.000 C 
ATOM      3  C   UNL     1      -0.770  10.443  21.038  0.00  0.00    +0.000 C 
ATOM      4  C   UNL     1      -1.069  11.726  20.217  0.00  0.00    +0.000 C 
ATOM      5  C   UNL     1      -1.935  11.297  19.030  0.00  0.00    +0.000 A 
ATOM      6  C   UNL     1      -3.155  11.860  18.672  0.00  0.00    +0.000 A 
ATOM      7  C   UNL     1      -3.762  11.446  17.484  0.00  0.00    +0.000 A 
ATOM      8  C   UNL     1      -3.158  10.476  16.670  0.00  0.00    +0.000 A 
ATOM      9  C   UNL     1      -1.933   9.905  17.027  0.00  0.00    +0.000 A 
ATOM     10  C   UNL     1      -1.322  10.318  18.205  0.00  0.00    +0.000 A 
ATOM     11  C   UNL     1       0.086   9.930  18.670  0.00  0.00    +0.000 C 
ATOM     12  C   UNL     1       0.866  11.244  18.766  0.00  0.00    +0.000 A 
ATOM     13  C   UNL     1       2.032  11.553  18.079  0.00  0.00    +0.000 A 
ATOM     14  C   UNL     1       2.677  12.753  18.376  0.00  0.00    +0.000 A 
ATOM     15  C   UNL     1       2.149  13.633  19.334  0.00  0.00    +0.000 A 
ATOM     16  C   UNL     1       0.933  13.362  19.967  0.00  0.00    +0.000 A 
ATOM     17  C   UNL     1       0.281  12.178  19.660  0.00  0.00    +0.000 A 
ENDBRANCH   1   2
BRANCH   1  20
ATOM     18  O   UNL     1       1.539   6.100  20.778  0.00  0.00    +0.000 OA
ATOM     19  C   UNL     1       2.155   6.740  19.927  0.00  0.00    +0.000 C 
ATOM     20  N   UNL     1       2.143   8.116  19.873  0.00  0.00    +0.000 N 
ATOM     21  H   UNL     1       2.479   8.559  19.030  0.00  0.00    +0.000 HD
BRANCH  19  22
ATOM     22  C   UNL     1       2.867   6.030  18.801  0.00  0.00    +0.000 A 
ATOM     23  C   UNL     1       2.462   4.653  18.489  0.00  0.00    +0.000 A 
ATOM     24  C   UNL     1       3.036   3.927  17.517  0.00  0.00    +0.000 A 
ATOM     25  C   UNL     1       4.170   4.532  16.798  0.00  0.00    +0.000 A 
ATOM     26  N   UNL     1       4.942   3.959  15.933  0.00  0.00    +0.000 NA
ATOM     27  N   UNL     1       5.865   4.931  15.633  0.00  0.00    +0.000 N 
ATOM     28  C   UNL     1       5.627   6.083  16.389  0.00  0.00    +0.000 A 
ATOM     29  O   UNL     1       6.347   7.076  16.430  0.00  0.00    +0.000 OA
ATOM     30  N   UNL     1       4.499   5.814  17.117  0.00  0.00    +0.000 N 
ATOM     31  C   UNL     1       3.891   6.563  18.097  0.00  0.00    +0.000 A 
ATOM     32  H   UNL     1       6.761   4.698  15.222  0.00  0.00    +0.000 HD
ENDBRANCH  19  22
ENDBRANCH   1  20
TORSDOF 3
ENDMDL
MODEL 4
REMARK VINA RESULT:      -9.2      3.028      9.221
REMARK  Name = 
REMARK  3 active torsions:
REMARK  status: ('A' for Active; 'I' for Inactive)
REMARK    1  A    between atoms: C_2  and  C_21
REMARK    2  A    between atoms: N_3  and  C_4
REMARK    3  A    between atoms: C_4  and  C_5
REMARK                            x       y       z     vdW  Elec       q    Type
REMARK                         _______ _______ _______ _____ _____    ______ ____
ROOT
ATOM      1  C   UNL     1       2.388   6.477  19.312  0.00  0.00    +0.000 C 
ENDROOT
BRANCH   1   2
ATOM      2  C   UNL     1       3.712   6.308  18.526  0.00  0.00    +0.000 C 
ATOM      3  C   UNL     1       4.868   5.768  19.448  0.00  0.00    +0.000 C 
ATOM      4  C   UNL     1       5.465   4.458  18.868  0.00  0.00    +0.000 C 
ATOM      5  C   UNL     1       5.967   4.789  17.460  0.00  0.00    +0.000 A 
ATOM      6  C   UNL     1       7.243   4.532  16.974  0.00  0.00    +0.000 A 
ATOM      7  C   UNL     1       7.509   4.773  15.624  0.00  0.00    +0.000 A 
ATOM      8  C   UNL     1       6.509   5.272  14.775  0.00  0.00    +0.000 A 
ATOM      9  C   UNL     1       5.225   5.535  15.259  0.00  0.00    +0.000 A 
ATOM     10  C   UNL     1       4.954   5.290  16.600  0.00  0.00    +0.000 A 
ATOM     11  C   UNL     1       3.575   5.360  17.265  0.00  0.00    +0.000 C 
ATOM     12  C   UNL     1       3.301   3.951  17.797  0.00  0.00    +0.000 A 
ATOM     13  C   UNL     1       2.224   3.145  17.456  0.00  0.00    +0.000 A 
ATOM     14  C   UNL     1       2.066   1.933  18.128  0.00  0.00    +0.000 A 
ATOM     15  C   UNL     1       2.983   1.533  19.113  0.00  0.00    +0.000 A 
ATOM     16  C   UNL     1       4.112   2.305  19.399  0.00  0.00    +0.000 A 
ATOM     17  C   UNL     1       4.282   3.501  18.720  0.00  0.00    +0.000 A 
ENDBRANCH   1   2
BRANCH   1  20
ATOM     18  O   UNL     1       1.461   8.579  17.639  0.00  0.00    +0.000 OA
ATOM     19  C   UNL     1       1.600   8.796  18.843  0.00  0.00    +0.000 C 
ATOM     20  N   UNL     1       2.092   7.854  19.719  0.00  0.00    +0.000 N 
ATOM     21  H   UNL     1       1.969   8.019  20.708  0.00  0.00    +0.000 HD
BRANCH  19  22
ATOM     22  C   UNL     1       1.112  10.089  19.450  0.00  0.00    +0.000 A 
ATOM     23  C   UNL     1       1.445  11.343  18.762  0.00  0.00    +0.000 A 
ATOM     24  C   UNL     1       1.071  12.548  19.220  0.00  0.00    +0.000 A 
ATOM     25  C   UNL     1       0.363  12.592  20.511  0.00  0.00    +0.000 A 
ATOM     26  N   UNL     1       0.041  13.645  21.189  0.00  0.00    +0.000 NA
ATOM     27  N   UNL     1      -0.526  13.131  22.330  0.00  0.00    +0.000 N 
ATOM     28  C   UNL     1      -0.484  11.734  22.311  0.00  0.00    +0.000 A 
ATOM     29  O   UNL     1      -0.806  10.994  23.235  0.00  0.00    +0.000 OA
ATOM     30  N   UNL     1       0.068  11.402  21.102  0.00  0.00    +0.000 N 
ATOM     31  C   UNL     1       0.433  10.169  20.616  0.00  0.00    +0.000 A 
ATOM     32  H   UNL     1      -0.604  13.684  23.174  0.00  0.00    +0.000 HD
ENDBRANCH  19  22
ENDBRANCH   1  20
TORSDOF 3
ENDMDL
MODEL 5
REMARK VINA RESULT:      -9.1      1.508      1.581
REMARK  Name = 
REMARK  3 active torsions:
REMARK  status: ('A' for Active; 'I' for Inactive)
REMARK    1  A    between atoms: C_2  and  C_21
REMARK    2  A    between atoms: N_3  and  C_4
REMARK    3  A    between atoms: C_4  and  C_5
REMARK                            x       y       z     vdW  Elec       q    Type
REMARK                         _______ _______ _______ _____ _____    ______ ____
ROOT
ATOM      1  C   UNL     1       1.754   8.926  20.559  0.00  0.00    +0.000 C 
ENDROOT
BRANCH   1   2
ATOM      2  C   UNL     1       0.356   9.311  20.014  0.00  0.00    +0.000 C 
ATOM      3  C   UNL     1      -0.387  10.308  20.978  0.00  0.00    +0.000 C 
ATOM      4  C   UNL     1      -0.787  11.604  20.223  0.00  0.00    +0.000 C 
ATOM      5  C   UNL     1      -1.675  11.175  19.052  0.00  0.00    +0.000 A 
ATOM      6  C   UNL     1      -2.936  11.684  18.762  0.00  0.00    +0.000 A 
ATOM      7  C   UNL     1      -3.566  11.284  17.582  0.00  0.00    +0.000 A 
ATOM      8  C   UNL     1      -2.943  10.382  16.706  0.00  0.00    +0.000 A 
ATOM      9  C   UNL     1      -1.676   9.865  16.994  0.00  0.00    +0.000 A 
ATOM     10  C   UNL     1      -1.042  10.265  18.164  0.00  0.00    +0.000 A 
ATOM     11  C   UNL     1       0.402   9.937  18.560  0.00  0.00    +0.000 C 
ATOM     12  C   UNL     1       1.113  11.287  18.682  0.00  0.00    +0.000 A 
ATOM     13  C   UNL     1       2.233  11.687  17.966  0.00  0.00    +0.000 A 
ATOM     14  C   UNL     1       2.824  12.909  18.289  0.00  0.00    +0.000 A 
ATOM     15  C   UNL     1       2.287  13.720  19.302  0.00  0.00    +0.000 A 
ATOM     16  C   UNL     1       1.113  13.357  19.967  0.00  0.00    +0.000 A 
ATOM     17  C   UNL     1       0.514  12.152  19.635  0.00  0.00    +0.000 A 
ENDBRANCH   1   2
BRANCH   1  20
ATOM     18  O   UNL     1       0.968   6.306  21.327  0.00  0.00    +0.000 OA
ATOM     19  C   UNL     1       1.808   6.437  20.437  0.00  0.00    +0.000 C 
ATOM     20  N   UNL     1       2.287   7.665  20.036  0.00  0.00    +0.000 N 
ATOM     21  H   UNL     1       2.794   7.712  19.165  0.00  0.00    +0.000 HD
BRANCH  19  22
ATOM     22  C   UNL     1       2.272   5.242  19.640  0.00  0.00    +0.000 A 
ATOM     23  C   UNL     1       1.652   5.003  18.330  0.00  0.00    +0.000 A 
ATOM     24  C   UNL     1       1.981   3.966  17.545  0.00  0.00    +0.000 A 
ATOM     25  C   UNL     1       2.954   2.997  18.077  0.00  0.00    +0.000 A 
ATOM     26  N   UNL     1       3.301   1.868  17.547  0.00  0.00    +0.000 NA
ATOM     27  N   UNL     1       4.167   1.334  18.471  0.00  0.00    +0.000 N 
ATOM     28  C   UNL     1       4.280   2.175  19.580  0.00  0.00    +0.000 A 
ATOM     29  O   UNL     1       4.886   1.919  20.616  0.00  0.00    +0.000 OA
ATOM     30  N   UNL     1       3.509   3.269  19.289  0.00  0.00    +0.000 N 
ATOM     31  C   UNL     1       3.185   4.347  20.079  0.00  0.00    +0.000 A 
ATOM     32  H   UNL     1       4.372   0.342  18.487  0.00  0.00    +0.000 HD
ENDBRANCH  19  22
ENDBRANCH   1  20
TORSDOF 3
ENDMDL
MODEL 6
REMARK VINA RESULT:      -9.1      1.313      1.824
REMARK  Name = 
REMARK  3 active torsions:
REMARK  status: ('A' for Active; 'I' for Inactive)
REMARK    1  A    between atoms: C_2  and  C_21
REMARK    2  A    between atoms: N_3  and  C_4
REMARK    3  A    between atoms: C_4  and  C_5
REMARK                            x       y       z     vdW  Elec       q    Type
REMARK                         _______ _______ _______ _____ _____    ______ ____
ROOT
ATOM      1  C   UNL     1       0.908   9.485  21.263  0.00  0.00    +0.000 C 
ENDROOT
BRANCH   1   2
ATOM      2  C   UNL     1      -0.367   9.773  20.432  0.00  0.00    +0.000 C 
ATOM      3  C   UNL     1      -1.162  11.007  21.001  0.00  0.00    +0.000 C 
ATOM      4  C   UNL     1      -1.355  12.088  19.903  0.00  0.00    +0.000 C 
ATOM      5  C   UNL     1      -2.099  11.414  18.747  0.00  0.00    +0.000 A 
ATOM      6  C   UNL     1      -3.265  11.881  18.153  0.00  0.00    +0.000 A 
ATOM      7  C   UNL     1      -3.751  11.223  17.020  0.00  0.00    +0.000 A 
ATOM      8  C   UNL     1      -3.081  10.108  16.495  0.00  0.00    +0.000 A 
ATOM      9  C   UNL     1      -1.909   9.633  17.091  0.00  0.00    +0.000 A 
ATOM     10  C   UNL     1      -1.417  10.288  18.214  0.00  0.00    +0.000 A 
ATOM     11  C   UNL     1      -0.072  10.015  18.895  0.00  0.00    +0.000 C 
ATOM     12  C   UNL     1       0.714  11.325  18.796  0.00  0.00    +0.000 A 
ATOM     13  C   UNL     1       1.950  11.491  18.187  0.00  0.00    +0.000 A 
ATOM     14  C   UNL     1       2.579  12.732  18.294  0.00  0.00    +0.000 A 
ATOM     15  C   UNL     1       1.967  13.790  18.986  0.00  0.00    +0.000 A 
ATOM     16  C   UNL     1       0.688  13.648  19.529  0.00  0.00    +0.000 A 
ATOM     17  C   UNL     1       0.053  12.422  19.409  0.00  0.00    +0.000 A 
ENDBRANCH   1   2
BRANCH   1  20
ATOM     18  O   UNL     1       0.929   6.655  21.002  0.00  0.00    +0.000 OA
ATOM     19  C   UNL     1       1.817   7.308  20.456  0.00  0.00    +0.000 C 
ATOM     20  N   UNL     1       1.917   8.677  20.571  0.00  0.00    +0.000 N 
ATOM     21  H   UNL     1       2.523   9.162  19.926  0.00  0.00    +0.000 HD
BRANCH  19  22
ATOM     22  C   UNL     1       2.789   6.641  19.512  0.00  0.00    +0.000 A 
ATOM     23  C   UNL     1       3.018   7.266  18.203  0.00  0.00    +0.000 A 
ATOM     24  C   UNL     1       3.851   6.751  17.285  0.00  0.00    +0.000 A 
ATOM     25  C   UNL     1       4.492   5.464  17.599  0.00  0.00    +0.000 A 
ATOM     26  N   UNL     1       5.212   4.737  16.807  0.00  0.00    +0.000 NA
ATOM     27  N   UNL     1       5.496   3.624  17.562  0.00  0.00    +0.000 N 
ATOM     28  C   UNL     1       4.878   3.711  18.813  0.00  0.00    +0.000 A 
ATOM     29  O   UNL     1       4.849   2.826  19.662  0.00  0.00    +0.000 OA
ATOM     30  N   UNL     1       4.257   4.932  18.829  0.00  0.00    +0.000 N 
ATOM     31  C   UNL     1       3.421   5.476  19.776  0.00  0.00    +0.000 A 
ATOM     32  H   UNL     1       5.783   2.755  17.131  0.00  0.00    +0.000 HD
ENDBRANCH  19  22
ENDBRANCH   1  20
TORSDOF 3
ENDMDL
MODEL 7
REMARK VINA RESULT:      -9.1      3.103      9.217
REMARK  Name = 
REMARK  3 active torsions:
REMARK  status: ('A' for Active; 'I' for Inactive)
REMARK    1  A    between atoms: C_2  and  C_21
REMARK    2  A    between atoms: N_3  and  C_4
REMARK    3  A    between atoms: C_4  and  C_5
REMARK                            x       y       z     vdW  Elec       q    Type
REMARK                         _______ _______ _______ _____ _____    ______ ____
ROOT
ATOM      1  C   UNL     1       2.631   6.611  19.620  0.00  0.00    +0.000 C 
ENDROOT
BRANCH   1   2
ATOM      2  C   UNL     1       3.870   6.384  18.719  0.00  0.00    +0.000 C 
ATOM      3  C   UNL     1       5.039   5.683  19.508  0.00  0.00    +0.000 C 
ATOM      4  C   UNL     1       5.468   4.371  18.797  0.00  0.00    +0.000 C 
ATOM      5  C   UNL     1       5.890   4.757  17.377  0.00  0.00    +0.000 A 
ATOM      6  C   UNL     1       7.097   4.426  16.773  0.00  0.00    +0.000 A 
ATOM      7  C   UNL     1       7.280   4.739  15.424  0.00  0.00    +0.000 A 
ATOM      8  C   UNL     1       6.269   5.381  14.693  0.00  0.00    +0.000 A 
ATOM      9  C   UNL     1       5.055   5.719  15.297  0.00  0.00    +0.000 A 
ATOM     10  C   UNL     1       4.865   5.403  16.637  0.00  0.00    +0.000 A 
ATOM     11  C   UNL     1       3.552   5.545  17.416  0.00  0.00    +0.000 C 
ATOM     12  C   UNL     1       3.192   4.130  17.877  0.00  0.00    +0.000 A 
ATOM     13  C   UNL     1       2.022   3.446  17.574  0.00  0.00    +0.000 A 
ATOM     14  C   UNL     1       1.805   2.208  18.178  0.00  0.00    +0.000 A 
ATOM     15  C   UNL     1       2.754   1.661  19.056  0.00  0.00    +0.000 A 
ATOM     16  C   UNL     1       3.967   2.310  19.298  0.00  0.00    +0.000 A 
ATOM     17  C   UNL     1       4.194   3.532  18.685  0.00  0.00    +0.000 A 
ENDBRANCH   1   2
BRANCH   1  20
ATOM     18  O   UNL     1       1.175   8.138  21.524  0.00  0.00    +0.000 OA
ATOM     19  C   UNL     1       1.278   8.565  20.374  0.00  0.00    +0.000 C 
ATOM     20  N   UNL     1       1.920   7.869  19.374  0.00  0.00    +0.000 N 
ATOM     21  H   UNL     1       2.160   8.369  18.530  0.00  0.00    +0.000 HD
BRANCH  19  22
ATOM     22  C   UNL     1       0.806   9.956  20.029  0.00  0.00    +0.000 A 
ATOM     23  C   UNL     1       0.007  10.130  18.809  0.00  0.00    +0.000 A 
ATOM     24  C   UNL     1      -0.454  11.323  18.402  0.00  0.00    +0.000 A 
ATOM     25  C   UNL     1      -0.064  12.504  19.190  0.00  0.00    +0.000 A 
ATOM     26  N   UNL     1      -0.283  13.745  18.897  0.00  0.00    +0.000 NA
ATOM     27  N   UNL     1       0.344  14.429  19.911  0.00  0.00    +0.000 N 
ATOM     28  C   UNL     1       0.973  13.539  20.786  0.00  0.00    +0.000 A 
ATOM     29  O   UNL     1       1.706  13.849  21.720  0.00  0.00    +0.000 OA
ATOM     30  N   UNL     1       0.667  12.289  20.317  0.00  0.00    +0.000 N 
ATOM     31  C   UNL     1       1.117  11.061  20.743  0.00  0.00    +0.000 A 
ATOM     32  H   UNL     1       0.604  15.402  19.807  0.00  0.00    +0.000 HD
ENDBRANCH  19  22
ENDBRANCH   1  20
TORSDOF 3
ENDMDL
MODEL 8
REMARK VINA RESULT:      -9.1      3.038      9.130
REMARK  Name = 
REMARK  3 active torsions:
REMARK  status: ('A' for Active; 'I' for Inactive)
REMARK    1  A    between atoms: C_2  and  C_21
REMARK    2  A    between atoms: N_3  and  C_4
REMARK    3  A    between atoms: C_4  and  C_5
REMARK                            x       y       z     vdW  Elec       q    Type
REMARK                         _______ _______ _______ _____ _____    ______ ____
ROOT
ATOM      1  C   UNL     1       2.965   6.519  19.839  0.00  0.00    +0.000 C 
ENDROOT
BRANCH   1   2
ATOM      2  C   UNL     1       4.124   6.286  18.837  0.00  0.00    +0.000 C 
ATOM      3  C   UNL     1       5.288   5.446  19.482  0.00  0.00    +0.000 C 
ATOM      4  C   UNL     1       5.574   4.172  18.642  0.00  0.00    +0.000 C 
ATOM      5  C   UNL     1       5.928   4.647  17.230  0.00  0.00    +0.000 A 
ATOM      6  C   UNL     1       7.066   4.288  16.516  0.00  0.00    +0.000 A 
ATOM      7  C   UNL     1       7.182   4.700  15.187  0.00  0.00    +0.000 A 
ATOM      8  C   UNL     1       6.174   5.467  14.583  0.00  0.00    +0.000 A 
ATOM      9  C   UNL     1       5.029   5.832  15.297  0.00  0.00    +0.000 A 
ATOM     10  C   UNL     1       4.906   5.419  16.618  0.00  0.00    +0.000 A 
ATOM     11  C   UNL     1       3.661   5.581  17.497  0.00  0.00    +0.000 C 
ATOM     12  C   UNL     1       3.231   4.160  17.870  0.00  0.00    +0.000 A 
ATOM     13  C   UNL     1       1.999   3.582  17.599  0.00  0.00    +0.000 A 
ATOM     14  C   UNL     1       1.733   2.315  18.117  0.00  0.00    +0.000 A 
ATOM     15  C   UNL     1       2.697   1.635  18.880  0.00  0.00    +0.000 A 
ATOM     16  C   UNL     1       3.967   2.181  19.085  0.00  0.00    +0.000 A 
ATOM     17  C   UNL     1       4.239   3.432  18.556  0.00  0.00    +0.000 A 
ENDBRANCH   1   2
BRANCH   1  20
ATOM     18  O   UNL     1       1.507   8.142  21.659  0.00  0.00    +0.000 OA
ATOM     19  C   UNL     1       1.448   8.398  20.457  0.00  0.00    +0.000 C 
ATOM     20  N   UNL     1       2.079   7.636  19.499  0.00  0.00    +0.000 N 
ATOM     21  H   UNL     1       2.175   8.026  18.573  0.00  0.00    +0.000 HD
BRANCH  19  22
ATOM     22  C   UNL     1       0.772   9.658  19.974  0.00  0.00    +0.000 A 
ATOM     23  C   UNL     1       0.939  10.880  20.772  0.00  0.00    +0.000 A 
ATOM     24  C   UNL     1       0.372  12.051  20.441  0.00  0.00    +0.000 A 
ATOM     25  C   UNL     1      -0.513  12.066  19.264  0.00  0.00    +0.000 A 
ATOM     26  N   UNL     1      -1.256  13.044  18.859  0.00  0.00    +0.000 NA
ATOM     27  N   UNL     1      -1.922  12.515  17.780  0.00  0.00    +0.000 N 
ATOM     28  C   UNL     1      -1.570  11.175  17.596  0.00  0.00    +0.000 A 
ATOM     29  O   UNL     1      -2.080  10.403  16.790  0.00  0.00    +0.000 OA
ATOM     30  N   UNL     1      -0.625  10.912  18.552  0.00  0.00    +0.000 N 
ATOM     31  C   UNL     1      -0.023   9.721  18.882  0.00  0.00    +0.000 A 
ATOM     32  H   UNL     1      -2.781  12.927  17.438  0.00  0.00    +0.000 HD
ENDBRANCH  19  22
ENDBRANCH   1  20
TORSDOF 3
ENDMDL
MODEL 9
REMARK VINA RESULT:      -9.0      3.081      9.322
REMARK  Name = 
REMARK  3 active torsions:
REMARK  status: ('A' for Active; 'I' for Inactive)
REMARK    1  A    between atoms: C_2  and  C_21
REMARK    2  A    between atoms: N_3  and  C_4
REMARK    3  A    between atoms: C_4  and  C_5
REMARK                            x       y       z     vdW  Elec       q    Type
REMARK                         _______ _______ _______ _____ _____    ______ ____
ROOT
ATOM      1  C   UNL     1       2.433   6.774  19.300  0.00  0.00    +0.000 C 
ENDROOT
BRANCH   1   2
ATOM      2  C   UNL     1       3.734   6.481  18.512  0.00  0.00    +0.000 C 
ATOM      3  C   UNL     1       4.856   5.892  19.445  0.00  0.00    +0.000 C 
ATOM      4  C   UNL     1       5.352   4.522  18.908  0.00  0.00    +0.000 C 
ATOM      5  C   UNL     1       5.864   4.767  17.486  0.00  0.00    +0.000 A 
ATOM      6  C   UNL     1       7.114   4.400  17.001  0.00  0.00    +0.000 A 
ATOM      7  C   UNL     1       7.384   4.575  15.642  0.00  0.00    +0.000 A 
ATOM      8  C   UNL     1       6.416   5.114  14.782  0.00  0.00    +0.000 A 
ATOM      9  C   UNL     1       5.158   5.487  15.265  0.00  0.00    +0.000 A 
ATOM     10  C   UNL     1       4.882   5.309  16.615  0.00  0.00    +0.000 A 
ATOM     11  C   UNL     1       3.518   5.502  17.286  0.00  0.00    +0.000 C 
ATOM     12  C   UNL     1       3.148   4.137  17.870  0.00  0.00    +0.000 A 
ATOM     13  C   UNL     1       2.012   3.399  17.566  0.00  0.00    +0.000 A 
ATOM     14  C   UNL     1       1.773   2.226  18.281  0.00  0.00    +0.000 A 
ATOM     15  C   UNL     1       2.668   1.795  19.273  0.00  0.00    +0.000 A 
ATOM     16  C   UNL     1       3.852   2.493  19.525  0.00  0.00    +0.000 A 
ATOM     17  C   UNL     1       4.102   3.649  18.802  0.00  0.00    +0.000 A 
ENDBRANCH   1   2
BRANCH   1  20
ATOM     18  O   UNL     1       2.293   8.553  17.088  0.00  0.00    +0.000 OA
ATOM     19  C   UNL     1       1.963   8.962  18.201  0.00  0.00    +0.000 C 
ATOM     20  N   UNL     1       2.048   8.188  19.337  0.00  0.00    +0.000 N 
ATOM     21  H   UNL     1       1.557   8.504  20.161  0.00  0.00    +0.000 HD
BRANCH  19  22
ATOM     22  C   UNL     1       1.320  10.318  18.359  0.00  0.00    +0.000 A 
ATOM     23  C   UNL     1       2.197  11.496  18.410  0.00  0.00    +0.000 A 
ATOM     24  C   UNL     1       1.732  12.746  18.559  0.00  0.00    +0.000 A 
ATOM     25  C   UNL     1       0.282  12.910  18.755  0.00  0.00    +0.000 A 
ATOM     26  N   UNL     1      -0.348  14.001  19.051  0.00  0.00    +0.000 NA
ATOM     27  N   UNL     1      -1.652  13.591  19.189  0.00  0.00    +0.000 N 
ATOM     28  C   UNL     1      -1.754  12.210  19.003  0.00  0.00    +0.000 A 
ATOM     29  O   UNL     1      -2.764  11.535  19.175  0.00  0.00    +0.000 OA
ATOM     30  N   UNL     1      -0.489  11.790  18.688  0.00  0.00    +0.000 N 
ATOM     31  C   UNL     1      -0.009  10.514  18.511  0.00  0.00    +0.000 A 
ATOM     32  H   UNL     1      -2.326  14.145  19.702  0.00  0.00    +0.000 HD
ENDBRANCH  19  22
ENDBRANCH   1  20
TORSDOF 3
ENDMDL
