MODEL 1
REMARK VINA RESULT:      -8.3      0.000      0.000
REMARK  Name = 
REMARK  5 active torsions:
REMARK  status: ('A' for Active; 'I' for Inactive)
REMARK    1  A    between atoms: C_1  and  C_2
REMARK    2  A    between atoms: C_4  and  C_5
REMARK    3  A    between atoms: N_7  and  C_8
REMARK    4  A    between atoms: C_8  and  C_9
REMARK    5  A    between atoms: C_19  and  C_20
REMARK                            x       y       z     vdW  Elec       q    Type
REMARK                         _______ _______ _______ _____ _____    ______ ____
ROOT
ATOM      1  C   UNL     1       0.684  10.007  18.582  0.00  0.00    +0.000 C 
ATOM      2  O   UNL     1      -0.278   9.715  17.887  0.00  0.00    +0.000 OA
ATOM      3  N   UNL     1       1.883   9.322  18.572  0.00  0.00    +0.000 N 
ATOM      4  H   UNL     1       2.632   9.567  19.199  0.00  0.00    +0.000 HD
ENDROOT
BRANCH   1   8
ATOM      5  C   UNL     1       1.109  14.931  19.221  0.00  0.00    +0.000 C 
ATOM      6  C   UNL     1       0.825  13.567  19.782  0.00  0.00    +0.000 A 
ATOM      7  C   UNL     1       0.914  12.450  18.962  0.00  0.00    +0.000 A 
ATOM      8  C   UNL     1       0.618  11.177  19.481  0.00  0.00    +0.000 A 
ATOM      9  C   UNL     1       0.209  11.088  20.825  0.00  0.00    +0.000 A 
ATOM     10  C   UNL     1      -0.183  10.117  21.804  0.00  0.00    +0.000 A 
ATOM     11  C   UNL     1      -0.304   8.641  21.751  0.00  0.00    +0.000 C 
ATOM     12  N   UNL     1      -0.473  10.702  22.975  0.00  0.00    +0.000 NA
ATOM     13  O   UNL     1      -0.256  12.047  22.789  0.00  0.00    +0.000 OA
ATOM     14  C   UNL     1       0.151  12.283  21.518  0.00  0.00    +0.000 A 
ATOM     15  N   UNL     1       0.444  13.524  21.075  0.00  0.00    +0.000 NA
ENDBRANCH   1   8
BRANCH   3  16
ATOM     16  C   UNL     1       2.076   8.146  17.766  0.00  0.00    +0.000 C 
BRANCH  16  17
ATOM     17  C   UNL     1       2.354   6.898  18.570  0.00  0.00    +0.000 A 
ATOM     18  C   UNL     1       2.180   6.935  19.974  0.00  0.00    +0.000 A 
ATOM     19  C   UNL     1       1.896   5.770  20.685  0.00  0.00    +0.000 A 
ATOM     20  C   UNL     1       1.793   4.597  19.964  0.00  0.00    +0.000 A 
ATOM     21  C   UNL     1       2.208   4.518  18.628  0.00  0.00    +0.000 A 
ATOM     22  C   UNL     1       2.490   5.664  17.912  0.00  0.00    +0.000 A 
ATOM     23  C   UNL     1       1.982   3.131  18.109  0.00  0.00    +0.000 C 
ATOM     24  C   UNL     1       0.726   2.810  18.921  0.00  0.00    +0.000 C 
ATOM     25  C   UNL     1       1.022   3.360  20.332  0.00  0.00    +0.000 C 
ENDBRANCH  16  17
ENDBRANCH   3  16
TORSDOF 3
ENDMDL
MODEL 2
REMARK VINA RESULT:      -8.0      5.303      7.993
REMARK  Name = 
REMARK  5 active torsions:
REMARK  status: ('A' for Active; 'I' for Inactive)
REMARK    1  A    between atoms: C_1  and  C_2
REMARK    2  A    between atoms: C_4  and  C_5
REMARK    3  A    between atoms: N_7  and  C_8
REMARK    4  A    between atoms: C_8  and  C_9
REMARK    5  A    between atoms: C_19  and  C_20
REMARK                            x       y       z     vdW  Elec       q    Type
REMARK                         _______ _______ _______ _____ _____    ______ ____
ROOT
ATOM      1  C   UNL     1       5.166   4.628  18.680  0.00  0.00    +0.000 C 
ATOM      2  O   UNL     1       6.126   4.538  19.431  0.00  0.00    +0.000 OA
ATOM      3  N   UNL     1       5.253   4.569  17.302  0.00  0.00    +0.000 N 
ATOM      4  H   UNL     1       4.443   4.699  16.719  0.00  0.00    +0.000 HD
ENDROOT
BRANCH   1   8
ATOM      5  C   UNL     1       1.652   7.585  20.614  0.00  0.00    +0.000 C 
ATOM      6  C   UNL     1       2.105   6.224  20.169  0.00  0.00    +0.000 A 
ATOM      7  C   UNL     1       3.392   6.050  19.678  0.00  0.00    +0.000 A 
ATOM      8  C   UNL     1       3.806   4.781  19.233  0.00  0.00    +0.000 A 
ATOM      9  C   UNL     1       2.874   3.728  19.277  0.00  0.00    +0.000 A 
ATOM     10  C   UNL     1       2.762   2.330  18.978  0.00  0.00    +0.000 A 
ATOM     11  C   UNL     1       3.734   1.344  18.450  0.00  0.00    +0.000 C 
ATOM     12  N   UNL     1       1.534   1.873  19.258  0.00  0.00    +0.000 NA
ATOM     13  O   UNL     1       0.836   2.946  19.759  0.00  0.00    +0.000 OA
ATOM     14  C   UNL     1       1.624   4.049  19.776  0.00  0.00    +0.000 A 
ATOM     15  N   UNL     1       1.185   5.240  20.235  0.00  0.00    +0.000 NA
ENDBRANCH   1   8
BRANCH   3  16
ATOM     16  C   UNL     1       6.519   4.452  16.628  0.00  0.00    +0.000 C 
BRANCH  16  17
ATOM     17  C   UNL     1       6.436   4.677  15.138  0.00  0.00    +0.000 A 
ATOM     18  C   UNL     1       7.565   5.195  14.459  0.00  0.00    +0.000 A 
ATOM     19  C   UNL     1       7.759   4.934  13.104  0.00  0.00    +0.000 A 
ATOM     20  C   UNL     1       6.812   4.158  12.465  0.00  0.00    +0.000 A 
ATOM     21  C   UNL     1       5.582   3.860  13.066  0.00  0.00    +0.000 A 
ATOM     22  C   UNL     1       5.377   4.110  14.408  0.00  0.00    +0.000 A 
ATOM     23  C   UNL     1       4.762   3.009  12.145  0.00  0.00    +0.000 C 
ATOM     24  C   UNL     1       5.914   2.243  11.492  0.00  0.00    +0.000 C 
ATOM     25  C   UNL     1       6.998   3.312  11.237  0.00  0.00    +0.000 C 
ENDBRANCH  16  17
ENDBRANCH   3  16
TORSDOF 3
ENDMDL
MODEL 3
REMARK VINA RESULT:      -7.9      3.184      8.050
REMARK  Name = 
REMARK  5 active torsions:
REMARK  status: ('A' for Active; 'I' for Inactive)
REMARK    1  A    between atoms: C_1  and  C_2
REMARK    2  A    between atoms: C_4  and  C_5
REMARK    3  A    between atoms: N_7  and  C_8
REMARK    4  A    between atoms: C_8  and  C_9
REMARK    5  A    between atoms: C_19  and  C_20
REMARK                            x       y       z     vdW  Elec       q    Type
REMARK                         _______ _______ _______ _____ _____    ______ ____
ROOT
ATOM      1  C   UNL     1       2.302   6.857  19.055  0.00  0.00    +0.000 C 
ATOM      2  O   UNL     1       2.252   7.073  17.853  0.00  0.00    +0.000 OA
ATOM      3  N   UNL     1       1.926   7.769  20.022  0.00  0.00    +0.000 N 
ATOM      4  H   UNL     1       2.032   7.567  21.003  0.00  0.00    +0.000 HD
ENDROOT
BRANCH   1   8
ATOM      5  C   UNL     1       1.337   2.690  21.610  0.00  0.00    +0.000 C 
ATOM      6  C   UNL     1       2.281   3.523  20.793  0.00  0.00    +0.000 A 
ATOM      7  C   UNL     1       1.885   4.776  20.343  0.00  0.00    +0.000 A 
ATOM      8  C   UNL     1       2.759   5.543  19.552  0.00  0.00    +0.000 A 
ATOM      9  C   UNL     1       4.008   4.989  19.217  0.00  0.00    +0.000 A 
ATOM     10  C   UNL     1       5.205   5.305  18.494  0.00  0.00    +0.000 A 
ATOM     11  C   UNL     1       5.626   6.510  17.742  0.00  0.00    +0.000 C 
ATOM     12  N   UNL     1       6.084   4.295  18.550  0.00  0.00    +0.000 NA
ATOM     13  O   UNL     1       5.492   3.321  19.319  0.00  0.00    +0.000 OA
ATOM     14  C   UNL     1       4.263   3.726  19.720  0.00  0.00    +0.000 A 
ATOM     15  N   UNL     1       3.471   2.959  20.500  0.00  0.00    +0.000 NA
ENDBRANCH   1   8
BRANCH   3  16
ATOM     16  C   UNL     1       1.491   9.097  19.681  0.00  0.00    +0.000 C 
BRANCH  16  17
ATOM     17  C   UNL     1       0.336   9.591  20.519  0.00  0.00    +0.000 A 
ATOM     18  C   UNL     1       0.273   9.222  21.884  0.00  0.00    +0.000 A 
ATOM     19  C   UNL     1      -0.402  10.022  22.805  0.00  0.00    +0.000 A 
ATOM     20  C   UNL     1      -0.995  11.174  22.329  0.00  0.00    +0.000 A 
ATOM     21  C   UNL     1      -1.147  11.407  20.956  0.00  0.00    +0.000 A 
ATOM     22  C   UNL     1      -0.482  10.624  20.033  0.00  0.00    +0.000 A 
ATOM     23  C   UNL     1      -1.824  12.726  20.738  0.00  0.00    +0.000 C 
ATOM     24  C   UNL     1      -1.242  13.458  21.949  0.00  0.00    +0.000 C 
ATOM     25  C   UNL     1      -1.310  12.427  23.096  0.00  0.00    +0.000 C 
ENDBRANCH  16  17
ENDBRANCH   3  16
TORSDOF 3
ENDMDL
MODEL 4
REMARK VINA RESULT:      -7.8      1.216      2.607
REMARK  Name = 
REMARK  5 active torsions:
REMARK  status: ('A' for Active; 'I' for Inactive)
REMARK    1  A    between atoms: C_1  and  C_2
REMARK    2  A    between atoms: C_4  and  C_5
REMARK    3  A    between atoms: N_7  and  C_8
REMARK    4  A    between atoms: C_8  and  C_9
REMARK    5  A    between atoms: C_19  and  C_20
REMARK                            x       y       z     vdW  Elec       q    Type
REMARK                         _______ _______ _______ _____ _____    ______ ____
ROOT
ATOM      1  C   UNL     1       0.578   9.984  18.908  0.00  0.00    +0.000 C 
ATOM      2  O   UNL     1      -0.222   9.878  17.991  0.00  0.00    +0.000 OA
ATOM      3  N   UNL     1       1.721   9.218  19.032  0.00  0.00    +0.000 N 
ATOM      4  H   UNL     1       2.327   9.304  19.832  0.00  0.00    +0.000 HD
ENDROOT
BRANCH   1   8
ATOM      5  C   UNL     1      -1.651  11.346  23.151  0.00  0.00    +0.000 C 
ATOM      6  C   UNL     1      -0.716  11.655  22.018  0.00  0.00    +0.000 A 
ATOM      7  C   UNL     1      -0.530  10.726  21.002  0.00  0.00    +0.000 A 
ATOM      8  C   UNL     1       0.370  11.002  19.957  0.00  0.00    +0.000 A 
ATOM      9  C   UNL     1       1.079  12.217  19.998  0.00  0.00    +0.000 A 
ATOM     10  C   UNL     1       2.047  12.963  19.249  0.00  0.00    +0.000 A 
ATOM     11  C   UNL     1       2.742  12.691  17.969  0.00  0.00    +0.000 C 
ATOM     12  N   UNL     1       2.337  14.123  19.855  0.00  0.00    +0.000 NA
ATOM     13  O   UNL     1       1.556  14.165  20.986  0.00  0.00    +0.000 OA
ATOM     14  C   UNL     1       0.805  13.040  21.076  0.00  0.00    +0.000 A 
ATOM     15  N   UNL     1      -0.061  12.832  22.090  0.00  0.00    +0.000 NA
ENDBRANCH   1   8
BRANCH   3  16
ATOM     16  C   UNL     1       2.033   8.168  18.098  0.00  0.00    +0.000 C 
BRANCH  16  17
ATOM     17  C   UNL     1       2.333   6.842  18.754  0.00  0.00    +0.000 A 
ATOM     18  C   UNL     1       2.175   6.719  20.155  0.00  0.00    +0.000 A 
ATOM     19  C   UNL     1       1.912   5.479  20.733  0.00  0.00    +0.000 A 
ATOM     20  C   UNL     1       1.813   4.393  19.887  0.00  0.00    +0.000 A 
ATOM     21  C   UNL     1       2.213   4.469  18.546  0.00  0.00    +0.000 A 
ATOM     22  C   UNL     1       2.475   5.692  17.960  0.00  0.00    +0.000 A 
ATOM     23  C   UNL     1       1.996   3.146  17.877  0.00  0.00    +0.000 C 
ATOM     24  C   UNL     1       0.753   2.721  18.660  0.00  0.00    +0.000 C 
ATOM     25  C   UNL     1       1.060   3.113  20.121  0.00  0.00    +0.000 C 
ENDBRANCH  16  17
ENDBRANCH   3  16
TORSDOF 3
ENDMDL
MODEL 5
REMARK VINA RESULT:      -7.8      2.985      5.235
REMARK  Name = 
REMARK  5 active torsions:
REMARK  status: ('A' for Active; 'I' for Inactive)
REMARK    1  A    between atoms: C_1  and  C_2
REMARK    2  A    between atoms: C_4  and  C_5
REMARK    3  A    between atoms: N_7  and  C_8
REMARK    4  A    between atoms: C_8  and  C_9
REMARK    5  A    between atoms: C_19  and  C_20
REMARK                            x       y       z     vdW  Elec       q    Type
REMARK                         _______ _______ _______ _____ _____    ______ ____
ROOT
ATOM      1  C   UNL     1       2.110   5.841  20.301  0.00  0.00    +0.000 C 
ATOM      2  O   UNL     1       2.552   5.342  21.324  0.00  0.00    +0.000 OA
ATOM      3  N   UNL     1       2.063   5.193  19.081  0.00  0.00    +0.000 N 
ATOM      4  H   UNL     1       1.737   5.661  18.251  0.00  0.00    +0.000 HD
ENDROOT
BRANCH   1   8
ATOM      5  C   UNL     1      -0.561   9.320  22.666  0.00  0.00    +0.000 C 
ATOM      6  C   UNL     1       0.256   8.891  21.481  0.00  0.00    +0.000 A 
ATOM      7  C   UNL     1       0.762   7.599  21.421  0.00  0.00    +0.000 A 
ATOM      8  C   UNL     1       1.553   7.208  20.325  0.00  0.00    +0.000 A 
ATOM      9  C   UNL     1       1.828   8.166  19.332  0.00  0.00    +0.000 A 
ATOM     10  C   UNL     1       2.523   8.305  18.085  0.00  0.00    +0.000 A 
ATOM     11  C   UNL     1       3.304   7.347  17.268  0.00  0.00    +0.000 C 
ATOM     12  N   UNL     1       2.402   9.550  17.602  0.00  0.00    +0.000 NA
ATOM     13  O   UNL     1       1.618  10.231  18.502  0.00  0.00    +0.000 OA
ATOM     14  C   UNL     1       1.271   9.417  19.529  0.00  0.00    +0.000 A 
ATOM     15  N   UNL     1       0.490   9.836  20.547  0.00  0.00    +0.000 NA
ENDBRANCH   1   8
BRANCH   3  16
ATOM     16  C   UNL     1       2.599   3.870  18.906  0.00  0.00    +0.000 C 
BRANCH  16  17
ATOM     17  C   UNL     1       3.980   3.850  18.296  0.00  0.00    +0.000 A 
ATOM     18  C   UNL     1       4.110   3.667  16.899  0.00  0.00    +0.000 A 
ATOM     19  C   UNL     1       5.225   4.154  16.220  0.00  0.00    +0.000 A 
ATOM     20  C   UNL     1       6.183   4.813  16.964  0.00  0.00    +0.000 A 
ATOM     21  C   UNL     1       6.178   4.775  18.364  0.00  0.00    +0.000 A 
ATOM     22  C   UNL     1       5.078   4.298  19.050  0.00  0.00    +0.000 A 
ATOM     23  C   UNL     1       7.329   5.572  18.897  0.00  0.00    +0.000 C 
ATOM     24  C   UNL     1       7.369   6.635  17.798  0.00  0.00    +0.000 C 
ATOM     25  C   UNL     1       7.163   5.848  16.486  0.00  0.00    +0.000 C 
ENDBRANCH  16  17
ENDBRANCH   3  16
TORSDOF 3
ENDMDL
MODEL 6
REMARK VINA RESULT:      -7.8      3.299      7.939
REMARK  Name = 
REMARK  5 active torsions:
REMARK  status: ('A' for Active; 'I' for Inactive)
REMARK    1  A    between atoms: C_1  and  C_2
REMARK    2  A    between atoms: C_4  and  C_5
REMARK    3  A    between atoms: N_7  and  C_8
REMARK    4  A    between atoms: C_8  and  C_9
REMARK    5  A    between atoms: C_19  and  C_20
REMARK                            x       y       z     vdW  Elec       q    Type
REMARK                         _______ _______ _______ _____ _____    ______ ____
ROOT
ATOM      1  C   UNL     1       2.531   7.046  18.686  0.00  0.00    +0.000 C 
ATOM      2  O   UNL     1       2.552   7.397  19.856  0.00  0.00    +0.000 OA
ATOM      3  N   UNL     1       2.352   7.910  17.622  0.00  0.00    +0.000 N 
ATOM      4  H   UNL     1       2.290   7.570  16.676  0.00  0.00    +0.000 HD
ENDROOT
BRANCH   1   8
ATOM      5  C   UNL     1       0.810   2.370  18.641  0.00  0.00    +0.000 C 
ATOM      6  C   UNL     1       1.892   3.360  18.316  0.00  0.00    +0.000 A 
ATOM      7  C   UNL     1       1.736   4.694  18.667  0.00  0.00    +0.000 A 
ATOM      8  C   UNL     1       2.735   5.627  18.335  0.00  0.00    +0.000 A 
ATOM      9  C   UNL     1       3.859   5.167  17.623  0.00  0.00    +0.000 A 
ATOM     10  C   UNL     1       5.092   5.642  17.068  0.00  0.00    +0.000 A 
ATOM     11  C   UNL     1       5.729   6.980  17.055  0.00  0.00    +0.000 C 
ATOM     12  N   UNL     1       5.768   4.650  16.472  0.00  0.00    +0.000 NA
ATOM     13  O   UNL     1       5.006   3.518  16.643  0.00  0.00    +0.000 OA
ATOM     14  C   UNL     1       3.874   3.816  17.327  0.00  0.00    +0.000 A 
ATOM     15  N   UNL     1       2.955   2.879  17.640  0.00  0.00    +0.000 NA
ENDBRANCH   1   8
BRANCH   3  16
ATOM     16  C   UNL     1       2.111   9.314  17.820  0.00  0.00    +0.000 C 
BRANCH  16  17
ATOM     17  C   UNL     1       0.771   9.618  18.444  0.00  0.00    +0.000 A 
ATOM     18  C   UNL     1       0.711  10.516  19.536  0.00  0.00    +0.000 A 
ATOM     19  C   UNL     1      -0.453  11.235  19.802  0.00  0.00    +0.000 A 
ATOM     20  C   UNL     1      -1.529  11.032  18.961  0.00  0.00    +0.000 A 
ATOM     21  C   UNL     1      -1.554   9.972  18.045  0.00  0.00    +0.000 A 
ATOM     22  C   UNL     1      -0.407   9.254  17.770  0.00  0.00    +0.000 A 
ATOM     23  C   UNL     1      -2.839   9.998  17.275  0.00  0.00    +0.000 C 
ATOM     24  C   UNL     1      -3.032  11.515  17.249  0.00  0.00    +0.000 C 
ATOM     25  C   UNL     1      -2.660  11.980  18.673  0.00  0.00    +0.000 C 
ENDBRANCH  16  17
ENDBRANCH   3  16
TORSDOF 3
ENDMDL
MODEL 7
REMARK VINA RESULT:      -7.8      5.289      7.470
REMARK  Name = 
REMARK  5 active torsions:
REMARK  status: ('A' for Active; 'I' for Inactive)
REMARK    1  A    between atoms: C_1  and  C_2
REMARK    2  A    between atoms: C_4  and  C_5
REMARK    3  A    between atoms: N_7  and  C_8
REMARK    4  A    between atoms: C_8  and  C_9
REMARK    5  A    between atoms: C_19  and  C_20
REMARK                            x       y       z     vdW  Elec       q    Type
REMARK                         _______ _______ _______ _____ _____    ______ ____
ROOT
ATOM      1  C   UNL     1       4.591   4.605  17.368  0.00  0.00    +0.000 C 
ATOM      2  O   UNL     1       4.229   3.470  17.099  0.00  0.00    +0.000 OA
ATOM      3  N   UNL     1       5.791   5.153  16.958  0.00  0.00    +0.000 N 
ATOM      4  H   UNL     1       6.072   6.076  17.247  0.00  0.00    +0.000 HD
ENDROOT
BRANCH   1   8
ATOM      5  C   UNL     1       2.263   8.987  17.824  0.00  0.00    +0.000 C 
ATOM      6  C   UNL     1       2.584   7.624  18.366  0.00  0.00    +0.000 A 
ATOM      7  C   UNL     1       3.435   6.783  17.661  0.00  0.00    +0.000 A 
ATOM      8  C   UNL     1       3.712   5.495  18.153  0.00  0.00    +0.000 A 
ATOM      9  C   UNL     1       3.082   5.093  19.346  0.00  0.00    +0.000 A 
ATOM     10  C   UNL     1       3.008   3.975  20.240  0.00  0.00    +0.000 A 
ATOM     11  C   UNL     1       3.677   2.652  20.239  0.00  0.00    +0.000 C 
ATOM     12  N   UNL     1       2.175   4.226  21.260  0.00  0.00    +0.000 NA
ATOM     13  O   UNL     1       1.713   5.506  21.063  0.00  0.00    +0.000 OA
ATOM     14  C   UNL     1       2.248   6.027  19.932  0.00  0.00    +0.000 A 
ATOM     15  N   UNL     1       1.966   7.279  19.514  0.00  0.00    +0.000 NA
ENDBRANCH   1   8
BRANCH   3  16
ATOM     16  C   UNL     1       6.756   4.389  16.214  0.00  0.00    +0.000 C 
BRANCH  16  17
ATOM     17  C   UNL     1       6.617   4.530  14.717  0.00  0.00    +0.000 A 
ATOM     18  C   UNL     1       7.604   5.250  14.001  0.00  0.00    +0.000 A 
ATOM     19  C   UNL     1       7.841   4.982  12.654  0.00  0.00    +0.000 A 
ATOM     20  C   UNL     1       7.079   3.995  12.061  0.00  0.00    +0.000 A 
ATOM     21  C   UNL     1       5.946   3.464  12.691  0.00  0.00    +0.000 A 
ATOM     22  C   UNL     1       5.700   3.720  14.026  0.00  0.00    +0.000 A 
ATOM     23  C   UNL     1       5.321   2.421  11.816  0.00  0.00    +0.000 C 
ATOM     24  C   UNL     1       6.607   1.893  11.176  0.00  0.00    +0.000 C 
ATOM     25  C   UNL     1       7.434   3.159  10.864  0.00  0.00    +0.000 C 
ENDBRANCH  16  17
ENDBRANCH   3  16
TORSDOF 3
ENDMDL
MODEL 8
REMARK VINA RESULT:      -7.7      1.329      1.700
REMARK  Name = 
REMARK  5 active torsions:
REMARK  status: ('A' for Active; 'I' for Inactive)
REMARK    1  A    between atoms: C_1  and  C_2
REMARK    2  A    between atoms: C_4  and  C_5
REMARK    3  A    between atoms: N_7  and  C_8
REMARK    4  A    between atoms: C_8  and  C_9
REMARK    5  A    between atoms: C_19  and  C_20
REMARK                            x       y       z     vdW  Elec       q    Type
REMARK                         _______ _______ _______ _____ _____    ______ ____
ROOT
ATOM      1  C   UNL     1       0.222  10.412  18.681  0.00  0.00    +0.000 C 
ATOM      2  O   UNL     1      -0.720  10.080  17.977  0.00  0.00    +0.000 OA
ATOM      3  N   UNL     1       1.489   9.869  18.587  0.00  0.00    +0.000 N 
ATOM      4  H   UNL     1       2.223  10.137  19.223  0.00  0.00    +0.000 HD
ENDROOT
BRANCH   1   8
ATOM      5  C   UNL     1      -0.207  15.263  19.736  0.00  0.00    +0.000 C 
ATOM      6  C   UNL     1      -0.157  13.834  20.193  0.00  0.00    +0.000 A 
ATOM      7  C   UNL     1       0.036  12.818  19.266  0.00  0.00    +0.000 A 
ATOM      8  C   UNL     1       0.051  11.477  19.690  0.00  0.00    +0.000 A 
ATOM      9  C   UNL     1      -0.162  11.212  21.056  0.00  0.00    +0.000 A 
ATOM     10  C   UNL     1      -0.239  10.115  21.975  0.00  0.00    +0.000 A 
ATOM     11  C   UNL     1      -0.087   8.652  21.795  0.00  0.00    +0.000 C 
ATOM     12  N   UNL     1      -0.484  10.545  23.221  0.00  0.00    +0.000 NA
ATOM     13  O   UNL     1      -0.549  11.916  23.142  0.00  0.00    +0.000 OA
ATOM     14  C   UNL     1      -0.356  12.319  21.862  0.00  0.00    +0.000 A 
ATOM     15  N   UNL     1      -0.358  13.623  21.510  0.00  0.00    +0.000 NA
ENDBRANCH   1   8
BRANCH   3  16
ATOM     16  C   UNL     1       1.788   8.803  17.669  0.00  0.00    +0.000 C 
BRANCH  16  17
ATOM     17  C   UNL     1       2.695   7.743  18.246  0.00  0.00    +0.000 A 
ATOM     18  C   UNL     1       2.310   7.086  19.439  0.00  0.00    +0.000 A 
ATOM     19  C   UNL     1       2.773   5.803  19.725  0.00  0.00    +0.000 A 
ATOM     20  C   UNL     1       3.612   5.212  18.802  0.00  0.00    +0.000 A 
ATOM     21  C   UNL     1       4.188   5.947  17.758  0.00  0.00    +0.000 A 
ATOM     22  C   UNL     1       3.737   7.218  17.462  0.00  0.00    +0.000 A 
ATOM     23  C   UNL     1       5.050   5.051  16.922  0.00  0.00    +0.000 C 
ATOM     24  C   UNL     1       4.228   3.770  17.081  0.00  0.00    +0.000 C 
ATOM     25  C   UNL     1       3.832   3.743  18.573  0.00  0.00    +0.000 C 
ENDBRANCH  16  17
ENDBRANCH   3  16
TORSDOF 3
ENDMDL
MODEL 9
REMARK VINA RESULT:      -7.7      2.204      2.871
REMARK  Name = 
REMARK  5 active torsions:
REMARK  status: ('A' for Active; 'I' for Inactive)
REMARK    1  A    between atoms: C_1  and  C_2
REMARK    2  A    between atoms: C_4  and  C_5
REMARK    3  A    between atoms: N_7  and  C_8
REMARK    4  A    between atoms: C_8  and  C_9
REMARK    5  A    between atoms: C_19  and  C_20
REMARK                            x       y       z     vdW  Elec       q    Type
REMARK                         _______ _______ _______ _____ _____    ______ ____
ROOT
ATOM      1  C   UNL     1       0.899  10.031  18.240  0.00  0.00    +0.000 C 
ATOM      2  O   UNL     1       1.787  10.816  18.536  0.00  0.00    +0.000 OA
ATOM      3  N   UNL     1       1.110   8.698  17.946  0.00  0.00    +0.000 N 
ATOM      4  H   UNL     1       0.354   8.098  17.657  0.00  0.00    +0.000 HD
ENDROOT
BRANCH   1   8
ATOM      5  C   UNL     1      -3.561   9.962  16.017  0.00  0.00    +0.000 C 
ATOM      6  C   UNL     1      -2.669  10.442  17.126  0.00  0.00    +0.000 A 
ATOM      7  C   UNL     1      -1.335  10.058  17.155  0.00  0.00    +0.000 A 
ATOM      8  C   UNL     1      -0.508  10.481  18.211  0.00  0.00    +0.000 A 
ATOM      9  C   UNL     1      -1.082  11.267  19.228  0.00  0.00    +0.000 A 
ATOM     10  C   UNL     1      -0.732  11.931  20.449  0.00  0.00    +0.000 A 
ATOM     11  C   UNL     1       0.550  12.062  21.180  0.00  0.00    +0.000 C 
ATOM     12  N   UNL     1      -1.795  12.547  20.985  0.00  0.00    +0.000 NA
ATOM     13  O   UNL     1      -2.841  12.315  20.123  0.00  0.00    +0.000 OA
ATOM     14  C   UNL     1      -2.425  11.560  19.077  0.00  0.00    +0.000 A 
ATOM     15  N   UNL     1      -3.256  11.198  18.077  0.00  0.00    +0.000 NA
ENDBRANCH   1   8
BRANCH   3  16
ATOM     16  C   UNL     1       2.432   8.132  17.907  0.00  0.00    +0.000 C 
BRANCH  16  17
ATOM     17  C   UNL     1       2.566   6.851  18.694  0.00  0.00    +0.000 A 
ATOM     18  C   UNL     1       2.193   6.842  20.059  0.00  0.00    +0.000 A 
ATOM     19  C   UNL     1       1.787   5.661  20.678  0.00  0.00    +0.000 A 
ATOM     20  C   UNL     1       1.765   4.517  19.906  0.00  0.00    +0.000 A 
ATOM     21  C   UNL     1       2.366   4.474  18.641  0.00  0.00    +0.000 A 
ATOM     22  C   UNL     1       2.771   5.637  18.016  0.00  0.00    +0.000 A 
ATOM     23  C   UNL     1       2.189   3.112  18.042  0.00  0.00    +0.000 C 
ATOM     24  C   UNL     1       0.823   2.795  18.653  0.00  0.00    +0.000 C 
ATOM     25  C   UNL     1       0.925   3.288  20.113  0.00  0.00    +0.000 C 
ENDBRANCH  16  17
ENDBRANCH   3  16
TORSDOF 3
ENDMDL
