MODEL 1
REMARK VINA RESULT:      -9.1      0.000      0.000
REMARK  Name = 
REMARK  3 active torsions:
REMARK  status: ('A' for Active; 'I' for Inactive)
REMARK    1  A    between atoms: C_1  and  C_2
REMARK    2  A    between atoms: C_12  and  C_13
REMARK    3  A    between atoms: C_18  and  C_19
REMARK                            x       y       z     vdW  Elec       q    Type
REMARK                         _______ _______ _______ _____ _____    ______ ____
ROOT
ATOM      1  C   UNL     1       5.177   4.922  18.360  0.00  0.00    +0.000 C 
ATOM      2  O   UNL     1       5.620   4.144  19.198  0.00  0.00    +0.000 OA
ATOM      3  N   UNL     1       4.050   5.727  18.629  0.00  0.00    +0.000 N 
ATOM      4  C   UNL     1       3.510   5.625  19.989  0.00  0.00    +0.000 C 
ATOM      5  C   UNL     1       1.988   5.680  19.976  0.00  0.00    +0.000 C 
ATOM      6  C   UNL     1       1.483   6.974  19.307  0.00  0.00    +0.000 C 
ATOM      7  C   UNL     1       2.103   7.081  17.915  0.00  0.00    +0.000 C 
ATOM      8  C   UNL     1       3.626   6.934  17.913  0.00  0.00    +0.000 C 
ENDROOT
BRANCH   1  20
ATOM      9  C   UNL     1       7.646   6.608  17.769  0.00  0.00    +0.000 C 
ATOM     10  C   UNL     1       6.972   5.725  16.763  0.00  0.00    +0.000 A 
ATOM     11  N   UNL     1       7.556   5.769  15.519  0.00  0.00    +0.000 NA
ATOM     12  C   UNL     1       7.060   5.010  14.525  0.00  0.00    +0.000 A 
ATOM     13  C   UNL     1       7.612   5.111  13.262  0.00  0.00    +0.000 A 
ATOM     14  C   UNL     1       7.100   4.363  12.207  0.00  0.00    +0.000 A 
ATOM     15  F   UNL     1       7.634   4.493  10.988  0.00  0.00    +0.000 F 
ATOM     16  C   UNL     1       6.026   3.510  12.397  0.00  0.00    +0.000 A 
ATOM     17  C   UNL     1       5.470   3.373  13.667  0.00  0.00    +0.000 A 
ATOM     18  C   UNL     1       5.987   4.131  14.728  0.00  0.00    +0.000 A 
ATOM     19  C   UNL     1       5.428   4.066  16.021  0.00  0.00    +0.000 A 
ATOM     20  C   UNL     1       5.853   4.924  17.030  0.00  0.00    +0.000 A 
ENDBRANCH   1  20
BRANCH   6  21
ATOM     21  C   UNL     1       1.614   8.146  20.251  0.00  0.00    +0.000 A 
ATOM     22  N   UNL     1       1.768   7.982  21.558  0.00  0.00    +0.000 NA
ATOM     23  N   UNL     1       1.082   8.976  22.206  0.00  0.00    +0.000 NA
ATOM     24  C   UNL     1       0.624   9.794  21.289  0.00  0.00    +0.000 A 
ATOM     25  C   UNL     1      -0.225  10.929  21.344  0.00  0.00    +0.000 A 
ATOM     26  C   UNL     1      -0.305  11.740  20.273  0.00  0.00    +0.000 A 
ATOM     27  C   UNL     1       0.474  11.477  19.071  0.00  0.00    +0.000 A 
ATOM     28  C   UNL     1       1.136  10.310  18.962  0.00  0.00    +0.000 A 
ATOM     29  N   UNL     1       1.148   9.436  20.052  0.00  0.00    +0.000 N 
ENDBRANCH   6  21
TORSDOF 2
ENDMDL
MODEL 2
REMARK VINA RESULT:      -8.8      2.241      3.736
REMARK  Name = 
REMARK  3 active torsions:
REMARK  status: ('A' for Active; 'I' for Inactive)
REMARK    1  A    between atoms: C_1  and  C_2
REMARK    2  A    between atoms: C_12  and  C_13
REMARK    3  A    between atoms: C_18  and  C_19
REMARK                            x       y       z     vdW  Elec       q    Type
REMARK                         _______ _______ _______ _____ _____    ______ ____
ROOT
ATOM      1  C   UNL     1       2.508   6.436  19.755  0.00  0.00    +0.000 C 
ATOM      2  O   UNL     1       2.468   5.798  20.802  0.00  0.00    +0.000 OA
ATOM      3  N   UNL     1       1.922   7.714  19.650  0.00  0.00    +0.000 N 
ATOM      4  C   UNL     1       1.342   8.247  20.888  0.00  0.00    +0.000 C 
ATOM      5  C   UNL     1       0.052   9.005  20.604  0.00  0.00    +0.000 C 
ATOM      6  C   UNL     1       0.291  10.152  19.600  0.00  0.00    +0.000 C 
ATOM      7  C   UNL     1       0.943   9.577  18.344  0.00  0.00    +0.000 C 
ATOM      8  C   UNL     1       2.189   8.736  18.634  0.00  0.00    +0.000 C 
ENDROOT
BRANCH   1  20
ATOM      9  C   UNL     1       1.355   3.936  18.446  0.00  0.00    +0.000 C 
ATOM     10  C   UNL     1       2.628   4.598  18.015  0.00  0.00    +0.000 A 
ATOM     11  N   UNL     1       3.260   3.947  16.981  0.00  0.00    +0.000 NA
ATOM     12  C   UNL     1       4.407   4.445  16.485  0.00  0.00    +0.000 A 
ATOM     13  C   UNL     1       5.068   3.748  15.490  0.00  0.00    +0.000 A 
ATOM     14  C   UNL     1       6.272   4.221  14.980  0.00  0.00    +0.000 A 
ATOM     15  F   UNL     1       6.906   3.519  14.034  0.00  0.00    +0.000 F 
ATOM     16  C   UNL     1       6.836   5.390  15.459  0.00  0.00    +0.000 A 
ATOM     17  C   UNL     1       6.175   6.122  16.443  0.00  0.00    +0.000 A 
ATOM     18  C   UNL     1       4.962   5.641  16.958  0.00  0.00    +0.000 A 
ATOM     19  C   UNL     1       4.279   6.319  17.989  0.00  0.00    +0.000 A 
ATOM     20  C   UNL     1       3.155   5.763  18.590  0.00  0.00    +0.000 A 
ENDBRANCH   1  20
BRANCH   6  21
ATOM     21  C   UNL     1       0.945  11.329  20.283  0.00  0.00    +0.000 A 
ATOM     22  N   UNL     1       0.654  11.668  21.532  0.00  0.00    +0.000 NA
ATOM     23  N   UNL     1       0.672  13.034  21.629  0.00  0.00    +0.000 NA
ATOM     24  C   UNL     1       1.088  13.500  20.476  0.00  0.00    +0.000 A 
ATOM     25  C   UNL     1       1.215  14.813  19.953  0.00  0.00    +0.000 A 
ATOM     26  C   UNL     1       1.933  15.005  18.831  0.00  0.00    +0.000 A 
ATOM     27  C   UNL     1       2.588  13.892  18.158  0.00  0.00    +0.000 A 
ATOM     28  C   UNL     1       2.318  12.635  18.557  0.00  0.00    +0.000 A 
ATOM     29  N   UNL     1       1.506  12.441  19.677  0.00  0.00    +0.000 N 
ENDBRANCH   6  21
TORSDOF 2
ENDMDL
MODEL 3
REMARK VINA RESULT:      -8.0      2.450      4.641
REMARK  Name = 
REMARK  3 active torsions:
REMARK  status: ('A' for Active; 'I' for Inactive)
REMARK    1  A    between atoms: C_1  and  C_2
REMARK    2  A    between atoms: C_12  and  C_13
REMARK    3  A    between atoms: C_18  and  C_19
REMARK                            x       y       z     vdW  Elec       q    Type
REMARK                         _______ _______ _______ _____ _____    ______ ____
ROOT
ATOM      1  C   UNL     1       1.936   7.677  20.099  0.00  0.00    +0.000 C 
ATOM      2  O   UNL     1       2.025   7.444  21.300  0.00  0.00    +0.000 OA
ATOM      3  N   UNL     1       1.232   8.801  19.620  0.00  0.00    +0.000 N 
ATOM      4  C   UNL     1       0.696   9.698  20.649  0.00  0.00    +0.000 C 
ATOM      5  C   UNL     1      -0.673  10.232  20.247  0.00  0.00    +0.000 C 
ATOM      6  C   UNL     1      -0.609  10.966  18.893  0.00  0.00    +0.000 C 
ATOM      7  C   UNL     1       0.002  10.028  17.854  0.00  0.00    +0.000 C 
ATOM      8  C   UNL     1       1.335   9.417  18.293  0.00  0.00    +0.000 C 
ENDROOT
BRANCH   1  20
ATOM      9  C   UNL     1       1.337   4.692  20.260  0.00  0.00    +0.000 C 
ATOM     10  C   UNL     1       2.293   5.305  19.282  0.00  0.00    +0.000 A 
ATOM     11  N   UNL     1       2.913   4.383  18.472  0.00  0.00    +0.000 NA
ATOM     12  C   UNL     1       3.785   4.800  17.536  0.00  0.00    +0.000 A 
ATOM     13  C   UNL     1       4.452   3.861  16.772  0.00  0.00    +0.000 A 
ATOM     14  C   UNL     1       5.382   4.261  15.819  0.00  0.00    +0.000 A 
ATOM     15  F   UNL     1       6.033   3.335  15.106  0.00  0.00    +0.000 F 
ATOM     16  C   UNL     1       5.665   5.601  15.621  0.00  0.00    +0.000 A 
ATOM     17  C   UNL     1       4.986   6.566  16.362  0.00  0.00    +0.000 A 
ATOM     18  C   UNL     1       4.050   6.160  17.324  0.00  0.00    +0.000 A 
ATOM     19  C   UNL     1       3.374   7.095  18.134  0.00  0.00    +0.000 A 
ATOM     20  C   UNL     1       2.556   6.678  19.180  0.00  0.00    +0.000 A 
ENDBRANCH   1  20
BRANCH   6  21
ATOM     21  C   UNL     1      -0.015  12.345  19.064  0.00  0.00    +0.000 A 
ATOM     22  N   UNL     1       1.149  12.680  18.525  0.00  0.00    +0.000 NA
ATOM     23  N   UNL     1       1.807  13.513  19.391  0.00  0.00    +0.000 NA
ATOM     24  C   UNL     1       0.988  13.766  20.384  0.00  0.00    +0.000 A 
ATOM     25  C   UNL     1       1.141  14.472  21.605  0.00  0.00    +0.000 A 
ATOM     26  C   UNL     1       0.043  14.806  22.310  0.00  0.00    +0.000 A 
ATOM     27  C   UNL     1      -1.290  14.466  21.832  0.00  0.00    +0.000 A 
ATOM     28  C   UNL     1      -1.415  13.648  20.770  0.00  0.00    +0.000 A 
ATOM     29  N   UNL     1      -0.265  13.241  20.091  0.00  0.00    +0.000 N 
ENDBRANCH   6  21
TORSDOF 2
ENDMDL
MODEL 4
REMARK VINA RESULT:      -7.8      2.403      4.226
REMARK  Name = 
REMARK  3 active torsions:
REMARK  status: ('A' for Active; 'I' for Inactive)
REMARK    1  A    between atoms: C_1  and  C_2
REMARK    2  A    between atoms: C_12  and  C_13
REMARK    3  A    between atoms: C_18  and  C_19
REMARK                            x       y       z     vdW  Elec       q    Type
REMARK                         _______ _______ _______ _____ _____    ______ ____
ROOT
ATOM      1  C   UNL     1       2.008   6.931  20.057  0.00  0.00    +0.000 C 
ATOM      2  O   UNL     1       1.916   6.421  21.169  0.00  0.00    +0.000 OA
ATOM      3  N   UNL     1       1.474   8.209  19.789  0.00  0.00    +0.000 N 
ATOM      4  C   UNL     1       0.883   8.901  20.940  0.00  0.00    +0.000 C 
ATOM      5  C   UNL     1      -0.369   9.667  20.532  0.00  0.00    +0.000 C 
ATOM      6  C   UNL     1      -0.062  10.680  19.411  0.00  0.00    +0.000 C 
ATOM      7  C   UNL     1       0.600   9.941  18.249  0.00  0.00    +0.000 C 
ATOM      8  C   UNL     1       1.805   9.097  18.671  0.00  0.00    +0.000 C 
ENDROOT
BRANCH   1  20
ATOM      9  C   UNL     1       1.256   4.023  19.540  0.00  0.00    +0.000 C 
ATOM     10  C   UNL     1       2.322   4.761  18.788  0.00  0.00    +0.000 A 
ATOM     11  N   UNL     1       2.966   3.987  17.851  0.00  0.00    +0.000 NA
ATOM     12  C   UNL     1       3.934   4.531  17.093  0.00  0.00    +0.000 A 
ATOM     13  C   UNL     1       4.620   3.728  16.200  0.00  0.00    +0.000 A 
ATOM     14  C   UNL     1       5.647   4.255  15.425  0.00  0.00    +0.000 A 
ATOM     15  F   UNL     1       6.314   3.456  14.584  0.00  0.00    +0.000 F 
ATOM     16  C   UNL     1       6.010   5.586  15.535  0.00  0.00    +0.000 A 
ATOM     17  C   UNL     1       5.316   6.420  16.410  0.00  0.00    +0.000 A 
ATOM     18  C   UNL     1       4.282   5.885  17.192  0.00  0.00    +0.000 A 
ATOM     19  C   UNL     1       3.582   6.675  18.127  0.00  0.00    +0.000 A 
ATOM     20  C   UNL     1       2.658   6.106  18.997  0.00  0.00    +0.000 A 
ENDBRANCH   1  20
BRANCH   6  21
ATOM     21  C   UNL     1       0.620  11.905  19.974  0.00  0.00    +0.000 A 
ATOM     22  N   UNL     1       1.246  11.886  21.143  0.00  0.00    +0.000 NA
ATOM     23  N   UNL     1       1.043  13.088  21.766  0.00  0.00    +0.000 NA
ATOM     24  C   UNL     1       0.402  13.860  20.922  0.00  0.00    +0.000 A 
ATOM     25  C   UNL     1      -0.159  15.159  21.034  0.00  0.00    +0.000 A 
ATOM     26  C   UNL     1      -0.519  15.816  19.915  0.00  0.00    +0.000 A 
ATOM     27  C   UNL     1      -0.331  15.221  18.600  0.00  0.00    +0.000 A 
ATOM     28  C   UNL     1       0.034  13.928  18.513  0.00  0.00    +0.000 A 
ATOM     29  N   UNL     1       0.331  13.229  19.685  0.00  0.00    +0.000 N 
ENDBRANCH   6  21
TORSDOF 2
ENDMDL
MODEL 5
REMARK VINA RESULT:      -7.6      4.074      9.187
REMARK  Name = 
REMARK  3 active torsions:
REMARK  status: ('A' for Active; 'I' for Inactive)
REMARK    1  A    between atoms: C_1  and  C_2
REMARK    2  A    between atoms: C_12  and  C_13
REMARK    3  A    between atoms: C_18  and  C_19
REMARK                            x       y       z     vdW  Elec       q    Type
REMARK                         _______ _______ _______ _____ _____    ______ ____
ROOT
ATOM      1  C   UNL     1       1.780   9.007  18.169  0.00  0.00    +0.000 C 
ATOM      2  O   UNL     1       1.825   9.342  16.990  0.00  0.00    +0.000 OA
ATOM      3  N   UNL     1       2.182   7.721  18.584  0.00  0.00    +0.000 N 
ATOM      4  C   UNL     1       2.725   6.858  17.530  0.00  0.00    +0.000 C 
ATOM      5  C   UNL     1       2.277   5.414  17.722  0.00  0.00    +0.000 C 
ATOM      6  C   UNL     1       2.698   4.881  19.106  0.00  0.00    +0.000 C 
ATOM      7  C   UNL     1       2.165   5.827  20.181  0.00  0.00    +0.000 C 
ATOM      8  C   UNL     1       2.536   7.292  19.941  0.00  0.00    +0.000 C 
ENDROOT
BRANCH   1  20
ATOM      9  C   UNL     1       2.387  11.988  17.971  0.00  0.00    +0.000 C 
ATOM     10  C   UNL     1       1.532  11.375  19.038  0.00  0.00    +0.000 A 
ATOM     11  N   UNL     1       1.065  12.286  19.955  0.00  0.00    +0.000 NA
ATOM     12  C   UNL     1       0.270  11.871  20.958  0.00  0.00    +0.000 A 
ATOM     13  C   UNL     1      -0.140  12.784  21.912  0.00  0.00    +0.000 A 
ATOM     14  C   UNL     1      -0.937  12.378  22.978  0.00  0.00    +0.000 A 
ATOM     15  F   UNL     1      -1.303  13.272  23.903  0.00  0.00    +0.000 F 
ATOM     16  C   UNL     1      -1.328  11.057  23.110  0.00  0.00    +0.000 A 
ATOM     17  C   UNL     1      -0.947  10.125  22.147  0.00  0.00    +0.000 A 
ATOM     18  C   UNL     1      -0.142  10.537  21.075  0.00  0.00    +0.000 A 
ATOM     19  C   UNL     1       0.311   9.623  20.101  0.00  0.00    +0.000 A 
ATOM     20  C   UNL     1       1.222  10.010  19.124  0.00  0.00    +0.000 A 
ENDBRANCH   1  20
BRANCH   6  21
ATOM     21  C   UNL     1       4.167   4.527  19.115  0.00  0.00    +0.000 A 
ATOM     22  N   UNL     1       4.955   4.823  20.139  0.00  0.00    +0.000 NA
ATOM     23  N   UNL     1       6.189   5.167  19.655  0.00  0.00    +0.000 NA
ATOM     24  C   UNL     1       6.169   4.961  18.360  0.00  0.00    +0.000 A 
ATOM     25  C   UNL     1       7.105   5.223  17.326  0.00  0.00    +0.000 A 
ATOM     26  C   UNL     1       6.926   4.650  16.120  0.00  0.00    +0.000 A 
ATOM     27  C   UNL     1       5.800   3.762  15.869  0.00  0.00    +0.000 A 
ATOM     28  C   UNL     1       4.827   3.661  16.795  0.00  0.00    +0.000 A 
ATOM     29  N   UNL     1       4.983   4.322  18.015  0.00  0.00    +0.000 N 
ENDBRANCH   6  21
TORSDOF 2
ENDMDL
MODEL 6
REMARK VINA RESULT:      -7.4      4.244      6.317
REMARK  Name = 
REMARK  3 active torsions:
REMARK  status: ('A' for Active; 'I' for Inactive)
REMARK    1  A    between atoms: C_1  and  C_2
REMARK    2  A    between atoms: C_12  and  C_13
REMARK    3  A    between atoms: C_18  and  C_19
REMARK                            x       y       z     vdW  Elec       q    Type
REMARK                         _______ _______ _______ _____ _____    ______ ____
ROOT
ATOM      1  C   UNL     1       1.374   8.784  20.859  0.00  0.00    +0.000 C 
ATOM      2  O   UNL     1       1.907   8.919  21.955  0.00  0.00    +0.000 OA
ATOM      3  N   UNL     1       0.477   9.748  20.354  0.00  0.00    +0.000 N 
ATOM      4  C   UNL     1       0.296  10.941  21.188  0.00  0.00    +0.000 C 
ATOM      5  C   UNL     1      -1.156  11.403  21.172  0.00  0.00    +0.000 C 
ATOM      6  C   UNL     1      -1.632  11.691  19.734  0.00  0.00    +0.000 C 
ATOM      7  C   UNL     1      -1.383  10.451  18.876  0.00  0.00    +0.000 C 
ATOM      8  C   UNL     1       0.053   9.929  18.962  0.00  0.00    +0.000 C 
ENDROOT
BRANCH   1  20
ATOM      9  C   UNL     1       2.758   8.755  18.143  0.00  0.00    +0.000 C 
ATOM     10  C   UNL     1       2.292   7.525  18.861  0.00  0.00    +0.000 A 
ATOM     11  N   UNL     1       2.516   6.364  18.159  0.00  0.00    +0.000 NA
ATOM     12  C   UNL     1       2.161   5.183  18.696  0.00  0.00    +0.000 A 
ATOM     13  C   UNL     1       2.331   4.029  17.955  0.00  0.00    +0.000 A 
ATOM     14  C   UNL     1       1.944   2.797  18.472  0.00  0.00    +0.000 A 
ATOM     15  F   UNL     1       2.095   1.695  17.729  0.00  0.00    +0.000 F 
ATOM     16  C   UNL     1       1.375   2.701  19.730  0.00  0.00    +0.000 A 
ATOM     17  C   UNL     1       1.218   3.849  20.505  0.00  0.00    +0.000 A 
ATOM     18  C   UNL     1       1.607   5.090  19.980  0.00  0.00    +0.000 A 
ATOM     19  C   UNL     1       1.423   6.286  20.704  0.00  0.00    +0.000 A 
ATOM     20  C   UNL     1       1.679   7.523  20.122  0.00  0.00    +0.000 A 
ENDBRANCH   1  20
BRANCH   6  21
ATOM     21  C   UNL     1      -1.103  13.022  19.255  0.00  0.00    +0.000 A 
ATOM     22  N   UNL     1      -0.170  13.111  18.317  0.00  0.00    +0.000 NA
ATOM     23  N   UNL     1       0.657  14.159  18.623  0.00  0.00    +0.000 NA
ATOM     24  C   UNL     1       0.149  14.762  19.671  0.00  0.00    +0.000 A 
ATOM     25  C   UNL     1       0.605  15.830  20.487  0.00  0.00    +0.000 A 
ATOM     26  C   UNL     1      -0.258  16.424  21.332  0.00  0.00    +0.000 A 
ATOM     27  C   UNL     1      -1.648  15.997  21.410  0.00  0.00    +0.000 A 
ATOM     28  C   UNL     1      -2.025  14.875  20.766  0.00  0.00    +0.000 A 
ATOM     29  N   UNL     1      -1.099  14.219  19.952  0.00  0.00    +0.000 N 
ENDBRANCH   6  21
TORSDOF 2
ENDMDL
MODEL 7
REMARK VINA RESULT:      -7.3      4.415      7.584
REMARK  Name = 
REMARK  3 active torsions:
REMARK  status: ('A' for Active; 'I' for Inactive)
REMARK    1  A    between atoms: C_1  and  C_2
REMARK    2  A    between atoms: C_12  and  C_13
REMARK    3  A    between atoms: C_18  and  C_19
REMARK                            x       y       z     vdW  Elec       q    Type
REMARK                         _______ _______ _______ _____ _____    ______ ____
ROOT
ATOM      1  C   UNL     1      -0.021  10.980  19.365  0.00  0.00    +0.000 C 
ATOM      2  O   UNL     1      -1.159  10.918  18.911  0.00  0.00    +0.000 OA
ATOM      3  N   UNL     1       0.565  12.215  19.711  0.00  0.00    +0.000 N 
ATOM      4  C   UNL     1      -0.301  13.389  19.565  0.00  0.00    +0.000 C 
ATOM      5  C   UNL     1       0.484  14.585  19.041  0.00  0.00    +0.000 C 
ATOM      6  C   UNL     1       1.670  14.920  19.967  0.00  0.00    +0.000 C 
ATOM      7  C   UNL     1       2.525  13.667  20.144  0.00  0.00    +0.000 C 
ATOM      8  C   UNL     1       1.724  12.439  20.582  0.00  0.00    +0.000 C 
ENDROOT
BRANCH   1  20
ATOM      9  C   UNL     1      -0.207   9.169  21.811  0.00  0.00    +0.000 C 
ATOM     10  C   UNL     1       0.650   8.881  20.616  0.00  0.00    +0.000 A 
ATOM     11  N   UNL     1       1.384   7.725  20.736  0.00  0.00    +0.000 NA
ATOM     12  C   UNL     1       2.185   7.338  19.727  0.00  0.00    +0.000 A 
ATOM     13  C   UNL     1       2.969   6.210  19.884  0.00  0.00    +0.000 A 
ATOM     14  C   UNL     1       3.830   5.803  18.870  0.00  0.00    +0.000 A 
ATOM     15  F   UNL     1       4.596   4.723  19.052  0.00  0.00    +0.000 F 
ATOM     16  C   UNL     1       3.927   6.520  17.691  0.00  0.00    +0.000 A 
ATOM     17  C   UNL     1       3.128   7.646  17.500  0.00  0.00    +0.000 A 
ATOM     18  C   UNL     1       2.262   8.055  18.525  0.00  0.00    +0.000 A 
ATOM     19  C   UNL     1       1.470   9.215  18.401  0.00  0.00    +0.000 A 
ATOM     20  C   UNL     1       0.724   9.691  19.474  0.00  0.00    +0.000 A 
ENDBRANCH   1  20
BRANCH   6  21
ATOM     21  C   UNL     1       1.193  15.652  21.199  0.00  0.00    +0.000 A 
ATOM     22  N   UNL     1       1.345  15.151  22.417  0.00  0.00    +0.000 NA
ATOM     23  N   UNL     1       0.245  15.479  23.164  0.00  0.00    +0.000 NA
ATOM     24  C   UNL     1      -0.500  16.272  22.432  0.00  0.00    +0.000 A 
ATOM     25  C   UNL     1      -1.784  16.844  22.627  0.00  0.00    +0.000 A 
ATOM     26  C   UNL     1      -2.185  17.845  21.820  0.00  0.00    +0.000 A 
ATOM     27  C   UNL     1      -1.319  18.353  20.765  0.00  0.00    +0.000 A 
ATOM     28  C   UNL     1      -0.183  17.690  20.475  0.00  0.00    +0.000 A 
ATOM     29  N   UNL     1       0.187  16.603  21.269  0.00  0.00    +0.000 N 
ENDBRANCH   6  21
TORSDOF 2
ENDMDL
MODEL 8
REMARK VINA RESULT:      -7.2      3.728      5.970
REMARK  Name = 
REMARK  3 active torsions:
REMARK  status: ('A' for Active; 'I' for Inactive)
REMARK    1  A    between atoms: C_1  and  C_2
REMARK    2  A    between atoms: C_12  and  C_13
REMARK    3  A    between atoms: C_18  and  C_19
REMARK                            x       y       z     vdW  Elec       q    Type
REMARK                         _______ _______ _______ _____ _____    ______ ____
ROOT
ATOM      1  C   UNL     1       2.127   8.434  18.268  0.00  0.00    +0.000 C 
ATOM      2  O   UNL     1       2.315   8.775  17.105  0.00  0.00    +0.000 OA
ATOM      3  N   UNL     1       1.439   9.265  19.176  0.00  0.00    +0.000 N 
ATOM      4  C   UNL     1       0.904  10.510  18.612  0.00  0.00    +0.000 C 
ATOM      5  C   UNL     1       1.046  11.661  19.600  0.00  0.00    +0.000 C 
ATOM      6  C   UNL     1       0.339  11.342  20.932  0.00  0.00    +0.000 C 
ATOM      7  C   UNL     1       0.876  10.016  21.468  0.00  0.00    +0.000 C 
ATOM      8  C   UNL     1       0.820   8.878  20.447  0.00  0.00    +0.000 C 
ENDROOT
BRANCH   1  20
ATOM      9  C   UNL     1       4.606   7.251  16.948  0.00  0.00    +0.000 C 
ATOM     10  C   UNL     1       3.841   6.581  18.048  0.00  0.00    +0.000 A 
ATOM     11  N   UNL     1       4.343   5.348  18.391  0.00  0.00    +0.000 NA
ATOM     12  C   UNL     1       3.759   4.644  19.378  0.00  0.00    +0.000 A 
ATOM     13  C   UNL     1       4.232   3.378  19.671  0.00  0.00    +0.000 A 
ATOM     14  C   UNL     1       3.628   2.614  20.664  0.00  0.00    +0.000 A 
ATOM     15  F   UNL     1       4.086   1.382  20.916  0.00  0.00    +0.000 F 
ATOM     16  C   UNL     1       2.542   3.098  21.372  0.00  0.00    +0.000 A 
ATOM     17  C   UNL     1       2.065   4.381  21.110  0.00  0.00    +0.000 A 
ATOM     18  C   UNL     1       2.674   5.148  20.107  0.00  0.00    +0.000 A 
ATOM     19  C   UNL     1       2.198   6.432  19.771  0.00  0.00    +0.000 A 
ATOM     20  C   UNL     1       2.716   7.126  18.682  0.00  0.00    +0.000 A 
ENDBRANCH   1  20
BRANCH   6  21
ATOM     21  C   UNL     1      -1.156  11.517  20.796  0.00  0.00    +0.000 A 
ATOM     22  N   UNL     1      -1.739  11.678  19.616  0.00  0.00    +0.000 NA
ATOM     23  N   UNL     1      -2.778  12.559  19.760  0.00  0.00    +0.000 NA
ATOM     24  C   UNL     1      -2.885  12.828  21.039  0.00  0.00    +0.000 A 
ATOM     25  C   UNL     1      -3.697  13.732  21.771  0.00  0.00    +0.000 A 
ATOM     26  C   UNL     1      -3.788  13.597  23.108  0.00  0.00    +0.000 A 
ATOM     27  C   UNL     1      -3.078  12.534  23.805  0.00  0.00    +0.000 A 
ATOM     28  C   UNL     1      -2.177  11.796  23.130  0.00  0.00    +0.000 A 
ATOM     29  N   UNL     1      -2.032  11.997  21.756  0.00  0.00    +0.000 N 
ENDBRANCH   6  21
TORSDOF 2
ENDMDL
MODEL 9
REMARK VINA RESULT:      -7.1      3.613      5.243
REMARK  Name = 
REMARK  3 active torsions:
REMARK  status: ('A' for Active; 'I' for Inactive)
REMARK    1  A    between atoms: C_1  and  C_2
REMARK    2  A    between atoms: C_12  and  C_13
REMARK    3  A    between atoms: C_18  and  C_19
REMARK                            x       y       z     vdW  Elec       q    Type
REMARK                         _______ _______ _______ _____ _____    ______ ____
ROOT
ATOM      1  C   UNL     1       2.405   8.232  17.940  0.00  0.00    +0.000 C 
ATOM      2  O   UNL     1       2.719   8.779  16.888  0.00  0.00    +0.000 OA
ATOM      3  N   UNL     1       1.705   8.926  18.948  0.00  0.00    +0.000 N 
ATOM      4  C   UNL     1       1.317  10.301  18.617  0.00  0.00    +0.000 C 
ATOM      5  C   UNL     1       1.458  11.215  19.827  0.00  0.00    +0.000 C 
ATOM      6  C   UNL     1       0.615  10.703  21.012  0.00  0.00    +0.000 C 
ATOM      7  C   UNL     1       1.002   9.253  21.301  0.00  0.00    +0.000 C 
ATOM      8  C   UNL     1       0.949   8.351  20.066  0.00  0.00    +0.000 C 
ENDROOT
BRANCH   1  20
ATOM      9  C   UNL     1       5.310   7.374  17.601  0.00  0.00    +0.000 C 
ATOM     10  C   UNL     1       4.190   6.434  17.930  0.00  0.00    +0.000 A 
ATOM     11  N   UNL     1       4.589   5.122  18.034  0.00  0.00    +0.000 NA
ATOM     12  C   UNL     1       3.685   4.175  18.342  0.00  0.00    +0.000 A 
ATOM     13  C   UNL     1       4.084   2.852  18.379  0.00  0.00    +0.000 A 
ATOM     14  C   UNL     1       3.165   1.847  18.664  0.00  0.00    +0.000 A 
ATOM     15  F   UNL     1       3.566   0.572  18.672  0.00  0.00    +0.000 F 
ATOM     16  C   UNL     1       1.836   2.148  18.907  0.00  0.00    +0.000 A 
ATOM     17  C   UNL     1       1.417   3.478  18.900  0.00  0.00    +0.000 A 
ATOM     18  C   UNL     1       2.346   4.488  18.610  0.00  0.00    +0.000 A 
ATOM     19  C   UNL     1       1.962   5.843  18.542  0.00  0.00    +0.000 A 
ATOM     20  C   UNL     1       2.855   6.820  18.115  0.00  0.00    +0.000 A 
ENDBRANCH   1  20
BRANCH   6  21
ATOM     21  C   UNL     1      -0.844  11.038  20.810  0.00  0.00    +0.000 A 
ATOM     22  N   UNL     1      -1.382  11.132  19.602  0.00  0.00    +0.000 NA
ATOM     23  N   UNL     1      -2.308  12.141  19.614  0.00  0.00    +0.000 NA
ATOM     24  C   UNL     1      -2.406  12.564  20.852  0.00  0.00    +0.000 A 
ATOM     25  C   UNL     1      -3.116  13.635  21.454  0.00  0.00    +0.000 A 
ATOM     26  C   UNL     1      -3.246  13.663  22.794  0.00  0.00    +0.000 A 
ATOM     27  C   UNL     1      -2.684  12.609  23.627  0.00  0.00    +0.000 A 
ATOM     28  C   UNL     1      -1.867  11.697  23.066  0.00  0.00    +0.000 A 
ATOM     29  N   UNL     1      -1.673  11.724  21.683  0.00  0.00    +0.000 N 
ENDBRANCH   6  21
TORSDOF 2
ENDMDL
