MODEL 1
REMARK VINA RESULT:      -8.4      0.000      0.000
REMARK  Name = 
REMARK  4 active torsions:
REMARK  status: ('A' for Active; 'I' for Inactive)
REMARK    1  A    between atoms: C_1  and  C_2
REMARK    2  A    between atoms: C_4  and  C_5
REMARK    3  A    between atoms: C_9  and  N_10
REMARK    4  A    between atoms: C_11  and  C_13
REMARK                            x       y       z     vdW  Elec       q    Type
REMARK                         _______ _______ _______ _____ _____    ______ ____
ROOT
ATOM      1  N   UNL     1       1.878   8.607  18.760  0.00  0.00    +0.000 N 
ATOM      2  C   UNL     1       2.081   7.528  19.599  0.00  0.00    +0.000 C 
ATOM      3  O   UNL     1       1.781   7.512  20.793  0.00  0.00    +0.000 OA
ATOM      4  H   UNL     1       2.422   8.648  17.913  0.00  0.00    +0.000 HD
ENDROOT
BRANCH   2   5
ATOM      5  C   UNL     1       2.659   6.334  18.957  0.00  0.00    +0.000 A 
ATOM      6  C   UNL     1       3.580   6.297  17.920  0.00  0.00    +0.000 A 
ATOM      7  N   UNL     1       3.758   4.987  17.560  0.00  0.00    +0.000 N 
ATOM      8  C   UNL     1       2.775   4.217  18.130  0.00  0.00    +0.000 A 
ATOM      9  C   UNL     1       2.330   2.928  17.818  0.00  0.00    +0.000 A 
ATOM     10  C   UNL     1       1.327   2.382  18.623  0.00  0.00    +0.000 A 
ATOM     11  C   UNL     1       0.867   3.058  19.751  0.00  0.00    +0.000 A 
ATOM     12  C   UNL     1       1.310   4.354  20.033  0.00  0.00    +0.000 A 
ATOM     13  C   UNL     1       2.219   4.980  19.155  0.00  0.00    +0.000 A 
ATOM     14  H   UNL     1       4.432   4.647  16.887  0.00  0.00    +0.000 HD
ENDBRANCH   2   5
BRANCH   1  19
ATOM     15  C   UNL     1      -1.142  10.747  18.384  0.00  0.00    +0.000 A 
ATOM     16  C   UNL     1      -0.955  11.646  19.446  0.00  0.00    +0.000 A 
ATOM     17  C   UNL     1       0.171  11.563  20.259  0.00  0.00    +0.000 A 
ATOM     18  C   UNL     1       1.126  10.577  20.021  0.00  0.00    +0.000 A 
ATOM     19  C   UNL     1       0.957   9.654  18.986  0.00  0.00    +0.000 A 
ATOM     20  C   UNL     1      -0.196   9.727  18.187  0.00  0.00    +0.000 A 
BRANCH  15  24
ATOM     21  C   UNL     1      -3.856  10.186  14.273  0.00  0.00    +0.000 C 
ATOM     22  C   UNL     1      -3.479  10.599  15.651  0.00  0.00    +0.000 A 
ATOM     23  N   UNL     1      -2.307  10.382  16.212  0.00  0.00    +0.000 NA
ATOM     24  C   UNL     1      -2.306  10.867  17.511  0.00  0.00    +0.000 A 
ATOM     25  C   UNL     1      -3.483  11.494  17.889  0.00  0.00    +0.000 A 
ATOM     26  S   UNL     1      -4.626  11.432  16.621  0.00  0.00    +0.000 S 
ENDBRANCH  15  24
ENDBRANCH   1  19
TORSDOF 3
ENDMDL
MODEL 2
REMARK VINA RESULT:      -8.2      0.856      1.160
REMARK  Name = 
REMARK  4 active torsions:
REMARK  status: ('A' for Active; 'I' for Inactive)
REMARK    1  A    between atoms: C_1  and  C_2
REMARK    2  A    between atoms: C_4  and  C_5
REMARK    3  A    between atoms: C_9  and  N_10
REMARK    4  A    between atoms: C_11  and  C_13
REMARK                            x       y       z     vdW  Elec       q    Type
REMARK                         _______ _______ _______ _____ _____    ______ ____
ROOT
ATOM      1  N   UNL     1       1.863   8.686  18.763  0.00  0.00    +0.000 N 
ATOM      2  C   UNL     1       2.047   7.599  19.595  0.00  0.00    +0.000 C 
ATOM      3  O   UNL     1       1.742   7.578  20.788  0.00  0.00    +0.000 OA
ATOM      4  H   UNL     1       2.412   8.726  17.919  0.00  0.00    +0.000 HD
ENDROOT
BRANCH   2   5
ATOM      5  C   UNL     1       2.613   6.402  18.948  0.00  0.00    +0.000 A 
ATOM      6  C   UNL     1       3.511   6.360  17.890  0.00  0.00    +0.000 A 
ATOM      7  N   UNL     1       3.683   5.048  17.534  0.00  0.00    +0.000 N 
ATOM      8  C   UNL     1       2.715   4.280  18.130  0.00  0.00    +0.000 A 
ATOM      9  C   UNL     1       2.265   2.988  17.836  0.00  0.00    +0.000 A 
ATOM     10  C   UNL     1       1.282   2.446  18.668  0.00  0.00    +0.000 A 
ATOM     11  C   UNL     1       0.846   3.127  19.801  0.00  0.00    +0.000 A 
ATOM     12  C   UNL     1       1.293   4.426  20.066  0.00  0.00    +0.000 A 
ATOM     13  C   UNL     1       2.181   5.048  19.164  0.00  0.00    +0.000 A 
ATOM     14  H   UNL     1       4.343   4.706  16.848  0.00  0.00    +0.000 HD
ENDBRANCH   2   5
BRANCH   1  19
ATOM     15  C   UNL     1      -1.146  10.846  18.414  0.00  0.00    +0.000 A 
ATOM     16  C   UNL     1      -0.933  11.757  19.461  0.00  0.00    +0.000 A 
ATOM     17  C   UNL     1       0.207  11.674  20.255  0.00  0.00    +0.000 A 
ATOM     18  C   UNL     1       1.149  10.678  20.012  0.00  0.00    +0.000 A 
ATOM     19  C   UNL     1       0.954   9.744  18.992  0.00  0.00    +0.000 A 
ATOM     20  C   UNL     1      -0.212   9.816  18.213  0.00  0.00    +0.000 A 
BRANCH  15  24
ATOM     21  C   UNL     1      -5.709  12.252  17.081  0.00  0.00    +0.000 C 
ATOM     22  C   UNL     1      -4.371  11.611  17.009  0.00  0.00    +0.000 A 
ATOM     23  N   UNL     1      -3.469  11.632  17.970  0.00  0.00    +0.000 NA
ATOM     24  C   UNL     1      -2.324  10.965  17.559  0.00  0.00    +0.000 A 
ATOM     25  C   UNL     1      -2.410  10.404  16.295  0.00  0.00    +0.000 A 
ATOM     26  S   UNL     1      -3.924  10.758  15.587  0.00  0.00    +0.000 S 
ENDBRANCH  15  24
ENDBRANCH   1  19
TORSDOF 3
ENDMDL
MODEL 3
REMARK VINA RESULT:      -8.2      4.361      8.407
REMARK  Name = 
REMARK  4 active torsions:
REMARK  status: ('A' for Active; 'I' for Inactive)
REMARK    1  A    between atoms: C_1  and  C_2
REMARK    2  A    between atoms: C_4  and  C_5
REMARK    3  A    between atoms: C_9  and  N_10
REMARK    4  A    between atoms: C_11  and  C_13
REMARK                            x       y       z     vdW  Elec       q    Type
REMARK                         _______ _______ _______ _____ _____    ______ ____
ROOT
ATOM      1  N   UNL     1       1.762   6.989  21.114  0.00  0.00    +0.000 N 
ATOM      2  C   UNL     1       1.315   8.198  20.618  0.00  0.00    +0.000 C 
ATOM      3  O   UNL     1       1.428   8.551  19.444  0.00  0.00    +0.000 OA
ATOM      4  H   UNL     1       1.912   6.919  22.108  0.00  0.00    +0.000 HD
ENDROOT
BRANCH   2   5
ATOM      5  C   UNL     1       0.631   9.063  21.596  0.00  0.00    +0.000 A 
ATOM      6  C   UNL     1      -0.196   8.668  22.638  0.00  0.00    +0.000 A 
ATOM      7  N   UNL     1      -0.705   9.797  23.225  0.00  0.00    +0.000 N 
ATOM      8  C   UNL     1      -0.464  10.882  22.419  0.00  0.00    +0.000 A 
ATOM      9  C   UNL     1      -1.047  12.153  22.401  0.00  0.00    +0.000 A 
ATOM     10  C   UNL     1      -0.548  13.076  21.478  0.00  0.00    +0.000 A 
ATOM     11  C   UNL     1       0.553  12.769  20.682  0.00  0.00    +0.000 A 
ATOM     12  C   UNL     1       1.108  11.486  20.700  0.00  0.00    +0.000 A 
ATOM     13  C   UNL     1       0.532  10.496  21.524  0.00  0.00    +0.000 A 
ATOM     14  H   UNL     1      -1.273   9.821  24.061  0.00  0.00    +0.000 HD
ENDBRANCH   2   5
BRANCH   1  19
ATOM     15  C   UNL     1       3.500   4.629  18.823  0.00  0.00    +0.000 A 
ATOM     16  C   UNL     1       2.624   3.533  18.868  0.00  0.00    +0.000 A 
ATOM     17  C   UNL     1       1.457   3.585  19.624  0.00  0.00    +0.000 A 
ATOM     18  C   UNL     1       1.152   4.735  20.348  0.00  0.00    +0.000 A 
ATOM     19  C   UNL     1       2.016   5.834  20.341  0.00  0.00    +0.000 A 
ATOM     20  C   UNL     1       3.205   5.763  19.598  0.00  0.00    +0.000 A 
BRANCH  15  24
ATOM     21  C   UNL     1       6.203   4.004  14.714  0.00  0.00    +0.000 C 
ATOM     22  C   UNL     1       5.870   4.285  16.135  0.00  0.00    +0.000 A 
ATOM     23  N   UNL     1       4.659   4.230  16.653  0.00  0.00    +0.000 NA
ATOM     24  C   UNL     1       4.702   4.581  17.994  0.00  0.00    +0.000 A 
ATOM     25  C   UNL     1       5.973   4.849  18.477  0.00  0.00    +0.000 A 
ATOM     26  S   UNL     1       7.127   4.711  17.225  0.00  0.00    +0.000 S 
ENDBRANCH  15  24
ENDBRANCH   1  19
TORSDOF 3
ENDMDL
MODEL 4
REMARK VINA RESULT:      -8.2      3.421      8.024
REMARK  Name = 
REMARK  4 active torsions:
REMARK  status: ('A' for Active; 'I' for Inactive)
REMARK    1  A    between atoms: C_1  and  C_2
REMARK    2  A    between atoms: C_4  and  C_5
REMARK    3  A    between atoms: C_9  and  N_10
REMARK    4  A    between atoms: C_11  and  C_13
REMARK                            x       y       z     vdW  Elec       q    Type
REMARK                         _______ _______ _______ _____ _____    ______ ____
ROOT
ATOM      1  N   UNL     1       1.684   8.523  19.715  0.00  0.00    +0.000 N 
ATOM      2  C   UNL     1       1.422   9.248  18.568  0.00  0.00    +0.000 C 
ATOM      3  O   UNL     1       1.885   8.981  17.458  0.00  0.00    +0.000 OA
ATOM      4  H   UNL     1       1.530   8.979  20.601  0.00  0.00    +0.000 HD
ENDROOT
BRANCH   2   5
ATOM      5  C   UNL     1       0.490  10.376  18.738  0.00  0.00    +0.000 A 
ATOM      6  C   UNL     1       0.608  11.442  19.619  0.00  0.00    +0.000 A 
ATOM      7  N   UNL     1      -0.531  12.197  19.524  0.00  0.00    +0.000 N 
ATOM      8  C   UNL     1      -1.489  11.498  18.833  0.00  0.00    +0.000 A 
ATOM      9  C   UNL     1      -2.874  11.679  18.757  0.00  0.00    +0.000 A 
ATOM     10  C   UNL     1      -3.588  10.821  17.916  0.00  0.00    +0.000 A 
ATOM     11  C   UNL     1      -2.930   9.894  17.112  0.00  0.00    +0.000 A 
ATOM     12  C   UNL     1      -1.547   9.715  17.218  0.00  0.00    +0.000 A 
ATOM     13  C   UNL     1      -0.823  10.474  18.161  0.00  0.00    +0.000 A 
ATOM     14  H   UNL     1      -0.692  13.082  19.988  0.00  0.00    +0.000 HD
ENDBRANCH   2   5
BRANCH   1  19
ATOM     15  C   UNL     1       3.757   5.518  18.998  0.00  0.00    +0.000 A 
ATOM     16  C   UNL     1       3.153   4.579  19.849  0.00  0.00    +0.000 A 
ATOM     17  C   UNL     1       2.055   4.928  20.629  0.00  0.00    +0.000 A 
ATOM     18  C   UNL     1       1.547   6.223  20.570  0.00  0.00    +0.000 A 
ATOM     19  C   UNL     1       2.140   7.186  19.749  0.00  0.00    +0.000 A 
ATOM     20  C   UNL     1       3.265   6.834  18.986  0.00  0.00    +0.000 A 
BRANCH  15  24
ATOM     21  C   UNL     1       6.088   3.992  14.897  0.00  0.00    +0.000 C 
ATOM     22  C   UNL     1       5.881   4.442  16.299  0.00  0.00    +0.000 A 
ATOM     23  N   UNL     1       4.711   4.708  16.843  0.00  0.00    +0.000 NA
ATOM     24  C   UNL     1       4.883   5.132  18.152  0.00  0.00    +0.000 A 
ATOM     25  C   UNL     1       6.199   5.127  18.588  0.00  0.00    +0.000 A 
ATOM     26  S   UNL     1       7.242   4.635  17.328  0.00  0.00    +0.000 S 
ENDBRANCH  15  24
ENDBRANCH   1  19
TORSDOF 3
ENDMDL
MODEL 5
REMARK VINA RESULT:      -8.1      3.943      6.357
REMARK  Name = 
REMARK  4 active torsions:
REMARK  status: ('A' for Active; 'I' for Inactive)
REMARK    1  A    between atoms: C_1  and  C_2
REMARK    2  A    between atoms: C_4  and  C_5
REMARK    3  A    between atoms: C_9  and  N_10
REMARK    4  A    between atoms: C_11  and  C_13
REMARK                            x       y       z     vdW  Elec       q    Type
REMARK                         _______ _______ _______ _____ _____    ______ ____
ROOT
ATOM      1  N   UNL     1       4.905   4.673  18.198  0.00  0.00    +0.000 N 
ATOM      2  C   UNL     1       4.788   4.392  16.850  0.00  0.00    +0.000 C 
ATOM      3  O   UNL     1       3.774   3.934  16.322  0.00  0.00    +0.000 OA
ATOM      4  H   UNL     1       5.835   4.739  18.581  0.00  0.00    +0.000 HD
ENDROOT
BRANCH   2   5
ATOM      5  C   UNL     1       5.971   4.721  16.035  0.00  0.00    +0.000 A 
ATOM      6  C   UNL     1       6.943   5.673  16.305  0.00  0.00    +0.000 A 
ATOM      7  N   UNL     1       7.796   5.723  15.234  0.00  0.00    +0.000 N 
ATOM      8  C   UNL     1       7.241   5.049  14.174  0.00  0.00    +0.000 A 
ATOM      9  C   UNL     1       7.541   5.090  12.809  0.00  0.00    +0.000 A 
ATOM     10  C   UNL     1       6.822   4.238  11.967  0.00  0.00    +0.000 A 
ATOM     11  C   UNL     1       5.917   3.315  12.486  0.00  0.00    +0.000 A 
ATOM     12  C   UNL     1       5.615   3.305  13.852  0.00  0.00    +0.000 A 
ATOM     13  C   UNL     1       6.227   4.250  14.701  0.00  0.00    +0.000 A 
ATOM     14  H   UNL     1       8.647   6.267  15.183  0.00  0.00    +0.000 HD
ENDBRANCH   2   5
BRANCH   1  19
ATOM     15  C   UNL     1       2.194   6.432  20.040  0.00  0.00    +0.000 A 
ATOM     16  C   UNL     1       1.624   5.361  20.745  0.00  0.00    +0.000 A 
ATOM     17  C   UNL     1       2.147   4.076  20.634  0.00  0.00    +0.000 A 
ATOM     18  C   UNL     1       3.250   3.846  19.815  0.00  0.00    +0.000 A 
ATOM     19  C   UNL     1       3.826   4.888  19.083  0.00  0.00    +0.000 A 
ATOM     20  C   UNL     1       3.274   6.176  19.179  0.00  0.00    +0.000 A 
BRANCH  15  24
ATOM     21  C   UNL     1       0.894  11.020  18.683  0.00  0.00    +0.000 C 
ATOM     22  C   UNL     1       1.104   9.827  19.544  0.00  0.00    +0.000 A 
ATOM     23  N   UNL     1       1.651   8.695  19.148  0.00  0.00    +0.000 NA
ATOM     24  C   UNL     1       1.664   7.784  20.194  0.00  0.00    +0.000 A 
ATOM     25  C   UNL     1       1.163   8.276  21.389  0.00  0.00    +0.000 A 
ATOM     26  S   UNL     1       0.620   9.884  21.191  0.00  0.00    +0.000 S 
ENDBRANCH  15  24
ENDBRANCH   1  19
TORSDOF 3
ENDMDL
MODEL 6
REMARK VINA RESULT:      -8.0      4.024      6.659
REMARK  Name = 
REMARK  4 active torsions:
REMARK  status: ('A' for Active; 'I' for Inactive)
REMARK    1  A    between atoms: C_1  and  C_2
REMARK    2  A    between atoms: C_4  and  C_5
REMARK    3  A    between atoms: C_9  and  N_10
REMARK    4  A    between atoms: C_11  and  C_13
REMARK                            x       y       z     vdW  Elec       q    Type
REMARK                         _______ _______ _______ _____ _____    ______ ____
ROOT
ATOM      1  N   UNL     1       4.950   4.460  18.142  0.00  0.00    +0.000 N 
ATOM      2  C   UNL     1       4.793   4.348  16.774  0.00  0.00    +0.000 C 
ATOM      3  O   UNL     1       3.741   4.026  16.220  0.00  0.00    +0.000 OA
ATOM      4  H   UNL     1       5.887   4.416  18.510  0.00  0.00    +0.000 HD
ENDROOT
BRANCH   2   5
ATOM      5  C   UNL     1       5.985   4.688  15.976  0.00  0.00    +0.000 A 
ATOM      6  C   UNL     1       6.947   5.645  16.263  0.00  0.00    +0.000 A 
ATOM      7  N   UNL     1       7.813   5.706  15.203  0.00  0.00    +0.000 N 
ATOM      8  C   UNL     1       7.276   5.034  14.133  0.00  0.00    +0.000 A 
ATOM      9  C   UNL     1       7.593   5.083  12.772  0.00  0.00    +0.000 A 
ATOM     10  C   UNL     1       6.891   4.230  11.917  0.00  0.00    +0.000 A 
ATOM     11  C   UNL     1       5.985   3.298  12.420  0.00  0.00    +0.000 A 
ATOM     12  C   UNL     1       5.666   3.280  13.782  0.00  0.00    +0.000 A 
ATOM     13  C   UNL     1       6.261   4.225  14.643  0.00  0.00    +0.000 A 
ATOM     14  H   UNL     1       8.661   6.256  15.166  0.00  0.00    +0.000 HD
ENDBRANCH   2   5
BRANCH   1  19
ATOM     15  C   UNL     1       2.262   6.137  20.092  0.00  0.00    +0.000 A 
ATOM     16  C   UNL     1       1.756   5.050  20.821  0.00  0.00    +0.000 A 
ATOM     17  C   UNL     1       2.315   3.783  20.691  0.00  0.00    +0.000 A 
ATOM     18  C   UNL     1       3.389   3.585  19.828  0.00  0.00    +0.000 A 
ATOM     19  C   UNL     1       3.901   4.643  19.071  0.00  0.00    +0.000 A 
ATOM     20  C   UNL     1       3.313   5.913  19.187  0.00  0.00    +0.000 A 
BRANCH  15  24
ATOM     21  C   UNL     1      -0.041   9.865  22.411  0.00  0.00    +0.000 C 
ATOM     22  C   UNL     1       0.656   9.107  21.339  0.00  0.00    +0.000 A 
ATOM     23  N   UNL     1       1.053   7.854  21.434  0.00  0.00    +0.000 NA
ATOM     24  C   UNL     1       1.695   7.472  20.266  0.00  0.00    +0.000 A 
ATOM     25  C   UNL     1       1.724   8.447  19.282  0.00  0.00    +0.000 A 
ATOM     26  S   UNL     1       0.983   9.881  19.841  0.00  0.00    +0.000 S 
ENDBRANCH  15  24
ENDBRANCH   1  19
TORSDOF 3
ENDMDL
MODEL 7
REMARK VINA RESULT:      -8.0      3.874      7.934
REMARK  Name = 
REMARK  4 active torsions:
REMARK  status: ('A' for Active; 'I' for Inactive)
REMARK    1  A    between atoms: C_1  and  C_2
REMARK    2  A    between atoms: C_4  and  C_5
REMARK    3  A    between atoms: C_9  and  N_10
REMARK    4  A    between atoms: C_11  and  C_13
REMARK                            x       y       z     vdW  Elec       q    Type
REMARK                         _______ _______ _______ _____ _____    ______ ____
ROOT
ATOM      1  N   UNL     1       2.199   7.808  19.454  0.00  0.00    +0.000 N 
ATOM      2  C   UNL     1       1.749   8.794  18.599  0.00  0.00    +0.000 C 
ATOM      3  O   UNL     1       1.953   8.807  17.385  0.00  0.00    +0.000 OA
ATOM      4  H   UNL     1       2.260   8.032  20.435  0.00  0.00    +0.000 HD
ENDROOT
BRANCH   2   5
ATOM      5  C   UNL     1       0.942   9.853  19.231  0.00  0.00    +0.000 A 
ATOM      6  C   UNL     1       0.870  11.190  18.866  0.00  0.00    +0.000 A 
ATOM      7  N   UNL     1       0.091  11.839  19.789  0.00  0.00    +0.000 N 
ATOM      8  C   UNL     1      -0.097  11.029  20.881  0.00  0.00    +0.000 A 
ATOM      9  C   UNL     1      -0.516  11.333  22.180  0.00  0.00    +0.000 A 
ATOM     10  C   UNL     1      -0.661  10.268  23.074  0.00  0.00    +0.000 A 
ATOM     11  C   UNL     1      -0.492   8.951  22.652  0.00  0.00    +0.000 A 
ATOM     12  C   UNL     1      -0.053   8.670  21.355  0.00  0.00    +0.000 A 
ATOM     13  C   UNL     1       0.233   9.736  20.476  0.00  0.00    +0.000 A 
ATOM     14  H   UNL     1      -0.205  12.804  19.735  0.00  0.00    +0.000 HD
ENDBRANCH   2   5
BRANCH   1  19
ATOM     15  C   UNL     1       4.028   5.055  17.746  0.00  0.00    +0.000 A 
ATOM     16  C   UNL     1       3.421   3.936  18.337  0.00  0.00    +0.000 A 
ATOM     17  C   UNL     1       2.399   4.090  19.269  0.00  0.00    +0.000 A 
ATOM     18  C   UNL     1       1.971   5.367  19.623  0.00  0.00    +0.000 A 
ATOM     19  C   UNL     1       2.571   6.500  19.068  0.00  0.00    +0.000 A 
ATOM     20  C   UNL     1       3.620   6.337  18.150  0.00  0.00    +0.000 A 
BRANCH  15  24
ATOM     21  C   UNL     1       6.022   3.743  13.401  0.00  0.00    +0.000 C 
ATOM     22  C   UNL     1       5.920   4.275  14.784  0.00  0.00    +0.000 A 
ATOM     23  N   UNL     1       4.821   4.287  15.511  0.00  0.00    +0.000 NA
ATOM     24  C   UNL     1       5.071   4.883  16.738  0.00  0.00    +0.000 A 
ATOM     25  C   UNL     1       6.388   5.268  16.931  0.00  0.00    +0.000 A 
ATOM     26  S   UNL     1       7.318   4.929  15.539  0.00  0.00    +0.000 S 
ENDBRANCH  15  24
ENDBRANCH   1  19
TORSDOF 3
ENDMDL
MODEL 8
REMARK VINA RESULT:      -7.7      3.308      4.865
REMARK  Name = 
REMARK  4 active torsions:
REMARK  status: ('A' for Active; 'I' for Inactive)
REMARK    1  A    between atoms: C_1  and  C_2
REMARK    2  A    between atoms: C_4  and  C_5
REMARK    3  A    between atoms: C_9  and  N_10
REMARK    4  A    between atoms: C_11  and  C_13
REMARK                            x       y       z     vdW  Elec       q    Type
REMARK                         _______ _______ _______ _____ _____    ______ ____
ROOT
ATOM      1  N   UNL     1       3.093   6.938  19.054  0.00  0.00    +0.000 N 
ATOM      2  C   UNL     1       3.007   5.709  18.429  0.00  0.00    +0.000 C 
ATOM      3  O   UNL     1       1.969   5.239  17.963  0.00  0.00    +0.000 OA
ATOM      4  H   UNL     1       3.879   7.098  19.664  0.00  0.00    +0.000 HD
ENDROOT
BRANCH   2   5
ATOM      5  C   UNL     1       4.280   4.977  18.307  0.00  0.00    +0.000 A 
ATOM      6  C   UNL     1       5.080   4.499  19.335  0.00  0.00    +0.000 A 
ATOM      7  N   UNL     1       6.220   3.982  18.778  0.00  0.00    +0.000 N 
ATOM      8  C   UNL     1       6.306   4.370  17.465  0.00  0.00    +0.000 A 
ATOM      9  C   UNL     1       7.396   4.388  16.588  0.00  0.00    +0.000 A 
ATOM     10  C   UNL     1       7.157   4.799  15.274  0.00  0.00    +0.000 A 
ATOM     11  C   UNL     1       5.865   5.079  14.835  0.00  0.00    +0.000 A 
ATOM     12  C   UNL     1       4.792   5.077  15.733  0.00  0.00    +0.000 A 
ATOM     13  C   UNL     1       5.033   4.799  17.095  0.00  0.00    +0.000 A 
ATOM     14  H   UNL     1       6.949   3.489  19.278  0.00  0.00    +0.000 HD
ENDBRANCH   2   5
BRANCH   1  19
ATOM     15  C   UNL     1       0.699   9.648  19.930  0.00  0.00    +0.000 A 
ATOM     16  C   UNL     1       0.421  10.169  18.657  0.00  0.00    +0.000 A 
ATOM     17  C   UNL     1       0.997   9.612  17.519  0.00  0.00    +0.000 A 
ATOM     18  C   UNL     1       1.860   8.526  17.640  0.00  0.00    +0.000 A 
ATOM     19  C   UNL     1       2.173   8.000  18.896  0.00  0.00    +0.000 A 
ATOM     20  C   UNL     1       1.611   8.584  20.042  0.00  0.00    +0.000 A 
BRANCH  15  24
ATOM     21  C   UNL     1      -1.119  13.166  22.913  0.00  0.00    +0.000 C 
ATOM     22  C   UNL     1      -0.735  11.818  22.418  0.00  0.00    +0.000 A 
ATOM     23  N   UNL     1      -0.117  11.578  21.280  0.00  0.00    +0.000 NA
ATOM     24  C   UNL     1       0.058  10.212  21.115  0.00  0.00    +0.000 A 
ATOM     25  C   UNL     1      -0.396   9.444  22.176  0.00  0.00    +0.000 A 
ATOM     26  S   UNL     1      -1.099  10.438  23.374  0.00  0.00    +0.000 S 
ENDBRANCH  15  24
ENDBRANCH   1  19
TORSDOF 3
ENDMDL
MODEL 9
REMARK VINA RESULT:      -7.7      1.608      2.819
REMARK  Name = 
REMARK  4 active torsions:
REMARK  status: ('A' for Active; 'I' for Inactive)
REMARK    1  A    between atoms: C_1  and  C_2
REMARK    2  A    between atoms: C_4  and  C_5
REMARK    3  A    between atoms: C_9  and  N_10
REMARK    4  A    between atoms: C_11  and  C_13
REMARK                            x       y       z     vdW  Elec       q    Type
REMARK                         _______ _______ _______ _____ _____    ______ ____
ROOT
ATOM      1  N   UNL     1       2.063   8.388  18.158  0.00  0.00    +0.000 N 
ATOM      2  C   UNL     1       2.390   7.255  18.877  0.00  0.00    +0.000 C 
ATOM      3  O   UNL     1       2.226   7.132  20.091  0.00  0.00    +0.000 OA
ATOM      4  H   UNL     1       2.509   8.518  17.263  0.00  0.00    +0.000 HD
ENDROOT
BRANCH   2   5
ATOM      5  C   UNL     1       2.929   6.139  18.078  0.00  0.00    +0.000 A 
ATOM      6  C   UNL     1       2.374   4.879  17.907  0.00  0.00    +0.000 A 
ATOM      7  N   UNL     1       3.257   4.123  17.183  0.00  0.00    +0.000 N 
ATOM      8  C   UNL     1       4.473   4.758  17.134  0.00  0.00    +0.000 A 
ATOM      9  C   UNL     1       5.745   4.269  16.819  0.00  0.00    +0.000 A 
ATOM     10  C   UNL     1       6.800   5.186  16.808  0.00  0.00    +0.000 A 
ATOM     11  C   UNL     1       6.569   6.546  17.003  0.00  0.00    +0.000 A 
ATOM     12  C   UNL     1       5.294   7.010  17.338  0.00  0.00    +0.000 A 
ATOM     13  C   UNL     1       4.240   6.085  17.491  0.00  0.00    +0.000 A 
ATOM     14  H   UNL     1       3.085   3.188  16.835  0.00  0.00    +0.000 HD
ENDBRANCH   2   5
BRANCH   1  19
ATOM     15  C   UNL     1      -0.995  10.506  18.222  0.00  0.00    +0.000 A 
ATOM     16  C   UNL     1      -0.767  11.252  19.389  0.00  0.00    +0.000 A 
ATOM     17  C   UNL     1       0.397  11.077  20.131  0.00  0.00    +0.000 A 
ATOM     18  C   UNL     1       1.350  10.151  19.715  0.00  0.00    +0.000 A 
ATOM     19  C   UNL     1       1.142   9.378  18.569  0.00  0.00    +0.000 A 
ATOM     20  C   UNL     1      -0.047   9.540  17.842  0.00  0.00    +0.000 A 
BRANCH  15  24
ATOM     21  C   UNL     1      -5.530  12.205  17.161  0.00  0.00    +0.000 C 
ATOM     22  C   UNL     1      -4.231  11.500  17.000  0.00  0.00    +0.000 A 
ATOM     23  N   UNL     1      -3.290  11.429  17.919  0.00  0.00    +0.000 NA
ATOM     24  C   UNL     1      -2.200  10.726  17.428  0.00  0.00    +0.000 A 
ATOM     25  C   UNL     1      -2.369  10.231  16.144  0.00  0.00    +0.000 A 
ATOM     26  S   UNL     1      -3.890  10.695  15.521  0.00  0.00    +0.000 S 
ENDBRANCH  15  24
ENDBRANCH   1  19
TORSDOF 3
ENDMDL
