MODEL 1
REMARK VINA RESULT:      -7.3      0.000      0.000
REMARK  Name = 
REMARK  7 active torsions:
REMARK  status: ('A' for Active; 'I' for Inactive)
REMARK    1  A    between atoms: C_1  and  C_2
REMARK    2  A    between atoms: C_2  and  C_3
REMARK    3  A    between atoms: C_6  and  C_8
REMARK    4  A    between atoms: C_11  and  C_12
REMARK    5  A    between atoms: C_15  and  C_16
REMARK    6  A    between atoms: N_20  and  C_21
REMARK    7  A    between atoms: C_21  and  C_22
REMARK                            x       y       z     vdW  Elec       q    Type
REMARK                         _______ _______ _______ _____ _____    ______ ____
ROOT
ATOM      1  C   UNL     1       0.474  12.744  20.670  0.00  0.00    +0.000 C 
ATOM      2  C   UNL     1      -0.315  12.514  19.381  0.00  0.00    +0.000 C 
ATOM      3  C   UNL     1      -0.048  13.660  18.393  0.00  0.00    +0.000 C 
ATOM      4  C   UNL     1      -1.828  12.270  19.576  0.00  0.00    +0.000 C 
ATOM      5  N   UNL     1      -1.691  11.172  18.643  0.00  0.00    +0.000 N 
ATOM      6  C   UNL     1      -2.523  10.552  17.758  0.00  0.00    +0.000 C 
ATOM      7  O   UNL     1      -2.086   9.769  16.915  0.00  0.00    +0.000 OA
ATOM      8  C   UNL     1      -0.234  11.089  18.723  0.00  0.00    +0.000 C 
ENDROOT
BRANCH   6   9
ATOM      9  C   UNL     1      -3.932  10.906  17.785  0.00  0.00    +0.000 A 
ATOM     10  C   UNL     1      -5.051  10.287  18.317  0.00  0.00    +0.000 A 
ATOM     11  C   UNL     1      -6.175  11.118  18.072  0.00  0.00    +0.000 A 
ATOM     12  C   UNL     1      -5.727  12.214  17.369  0.00  0.00    +0.000 A 
ATOM     13  N   UNL     1      -4.384  12.062  17.172  0.00  0.00    +0.000 N 
ATOM     14  H   UNL     1      -3.775  12.697  16.671  0.00  0.00    +0.000 HD
BRANCH  12  15
ATOM     15  C   UNL     1      -6.473  13.328  16.898  0.00  0.00    +0.000 C 
ATOM     16  N   UNL     1      -7.064  14.243  16.501  0.00  0.00    +0.000 NA
ENDBRANCH  12  15
ENDBRANCH   6   9
BRANCH   8  17
ATOM     17  C   UNL     1       0.224   9.967  19.665  0.00  0.00    +0.000 A 
ATOM     18  N   UNL     1      -0.317   9.760  20.851  0.00  0.00    +0.000 NA
ATOM     19  C   UNL     1       0.360   8.704  21.395  0.00  0.00    +0.000 A 
ATOM     20  C   UNL     1       1.349   8.274  20.545  0.00  0.00    +0.000 A 
ATOM     21  N   UNL     1       1.246   9.075  19.436  0.00  0.00    +0.000 N 
BRANCH  21  22
ATOM     22  C   UNL     1       2.158   9.041  18.300  0.00  0.00    +0.000 C 
BRANCH  22  23
ATOM     23  C   UNL     1       2.701   7.662  18.011  0.00  0.00    +0.000 A 
ATOM     24  C   UNL     1       3.999   7.457  17.516  0.00  0.00    +0.000 A 
ATOM     25  C   UNL     1       4.462   6.169  17.241  0.00  0.00    +0.000 A 
ATOM     26  C   UNL     1       3.646   5.066  17.480  0.00  0.00    +0.000 A 
ATOM     27  C   UNL     1       2.374   5.248  18.015  0.00  0.00    +0.000 A 
ATOM     28  C   UNL     1       1.906   6.536  18.287  0.00  0.00    +0.000 A 
ENDBRANCH  22  23
ENDBRANCH  21  22
ENDBRANCH   8  17
TORSDOF 5
ENDMDL
MODEL 2
REMARK VINA RESULT:      -7.0      1.253      1.456
REMARK  Name = 
REMARK  7 active torsions:
REMARK  status: ('A' for Active; 'I' for Inactive)
REMARK    1  A    between atoms: C_1  and  C_2
REMARK    2  A    between atoms: C_2  and  C_3
REMARK    3  A    between atoms: C_6  and  C_8
REMARK    4  A    between atoms: C_11  and  C_12
REMARK    5  A    between atoms: C_15  and  C_16
REMARK    6  A    between atoms: N_20  and  C_21
REMARK    7  A    between atoms: C_21  and  C_22
REMARK                            x       y       z     vdW  Elec       q    Type
REMARK                         _______ _______ _______ _____ _____    ______ ____
ROOT
ATOM      1  C   UNL     1       1.064  12.493  20.630  0.00  0.00    +0.000 C 
ATOM      2  C   UNL     1       0.305  12.305  19.317  0.00  0.00    +0.000 C 
ATOM      3  C   UNL     1       0.667  13.432  18.337  0.00  0.00    +0.000 C 
ATOM      4  C   UNL     1      -1.225  12.148  19.465  0.00  0.00    +0.000 C 
ATOM      5  N   UNL     1      -1.121  11.042  18.538  0.00  0.00    +0.000 N 
ATOM      6  C   UNL     1      -1.959  10.467  17.627  0.00  0.00    +0.000 C 
ATOM      7  O   UNL     1      -1.540   9.658  16.799  0.00  0.00    +0.000 OA
ATOM      8  C   UNL     1       0.326  10.876  18.663  0.00  0.00    +0.000 C 
ENDROOT
BRANCH   6   9
ATOM      9  C   UNL     1      -3.346  10.900  17.610  0.00  0.00    +0.000 A 
ATOM     10  C   UNL     1      -4.119  11.557  16.667  0.00  0.00    +0.000 A 
ATOM     11  C   UNL     1      -5.434  11.686  17.185  0.00  0.00    +0.000 A 
ATOM     12  C   UNL     1      -5.432  11.133  18.446  0.00  0.00    +0.000 A 
ATOM     13  N   UNL     1      -4.165  10.693  18.706  0.00  0.00    +0.000 N 
ATOM     14  H   UNL     1      -3.846  10.256  19.562  0.00  0.00    +0.000 HD
BRANCH  12  15
ATOM     15  C   UNL     1      -6.512  11.018  19.362  0.00  0.00    +0.000 C 
ATOM     16  N   UNL     1      -7.407  10.926  20.094  0.00  0.00    +0.000 NA
ENDBRANCH  12  15
ENDBRANCH   6   9
BRANCH   8  17
ATOM     17  C   UNL     1       0.689   9.732  19.620  0.00  0.00    +0.000 A 
ATOM     18  N   UNL     1       0.222   9.651  20.852  0.00  0.00    +0.000 NA
ATOM     19  C   UNL     1       0.779   8.526  21.393  0.00  0.00    +0.000 A 
ATOM     20  C   UNL     1       1.622   7.923  20.493  0.00  0.00    +0.000 A 
ATOM     21  N   UNL     1       1.548   8.690  19.358  0.00  0.00    +0.000 N 
BRANCH  21  22
ATOM     22  C   UNL     1       2.350   8.479  18.160  0.00  0.00    +0.000 C 
BRANCH  22  23
ATOM     23  C   UNL     1       2.835   7.058  18.007  0.00  0.00    +0.000 A 
ATOM     24  C   UNL     1       4.197   6.739  17.893  0.00  0.00    +0.000 A 
ATOM     25  C   UNL     1       4.608   5.415  17.734  0.00  0.00    +0.000 A 
ATOM     26  C   UNL     1       3.669   4.388  17.711  0.00  0.00    +0.000 A 
ATOM     27  C   UNL     1       2.317   4.681  17.870  0.00  0.00    +0.000 A 
ATOM     28  C   UNL     1       1.902   6.005  18.025  0.00  0.00    +0.000 A 
ENDBRANCH  22  23
ENDBRANCH  21  22
ENDBRANCH   8  17
TORSDOF 5
ENDMDL
MODEL 3
REMARK VINA RESULT:      -7.0      2.989      8.335
REMARK  Name = 
REMARK  7 active torsions:
REMARK  status: ('A' for Active; 'I' for Inactive)
REMARK    1  A    between atoms: C_1  and  C_2
REMARK    2  A    between atoms: C_2  and  C_3
REMARK    3  A    between atoms: C_6  and  C_8
REMARK    4  A    between atoms: C_11  and  C_12
REMARK    5  A    between atoms: C_15  and  C_16
REMARK    6  A    between atoms: N_20  and  C_21
REMARK    7  A    between atoms: C_21  and  C_22
REMARK                            x       y       z     vdW  Elec       q    Type
REMARK                         _______ _______ _______ _____ _____    ______ ____
ROOT
ATOM      1  C   UNL     1       0.341  13.843  18.804  0.00  0.00    +0.000 C 
ATOM      2  C   UNL     1       0.908  12.640  19.557  0.00  0.00    +0.000 C 
ATOM      3  C   UNL     1       2.054  13.091  20.477  0.00  0.00    +0.000 C 
ATOM      4  C   UNL     1       1.329  11.451  18.665  0.00  0.00    +0.000 C 
ATOM      5  N   UNL     1       0.642  10.600  19.612  0.00  0.00    +0.000 N 
ATOM      6  C   UNL     1       0.777   9.304  20.017  0.00  0.00    +0.000 C 
ATOM      7  O   UNL     1       0.188   8.883  21.013  0.00  0.00    +0.000 OA
ATOM      8  C   UNL     1      -0.112  11.672  20.258  0.00  0.00    +0.000 C 
ENDROOT
BRANCH   6   9
ATOM      9  C   UNL     1       1.702   8.455  19.285  0.00  0.00    +0.000 A 
ATOM     10  C   UNL     1       2.221   8.510  18.002  0.00  0.00    +0.000 A 
ATOM     11  C   UNL     1       3.118   7.422  17.841  0.00  0.00    +0.000 A 
ATOM     12  C   UNL     1       3.107   6.706  19.017  0.00  0.00    +0.000 A 
ATOM     13  N   UNL     1       2.229   7.315  19.867  0.00  0.00    +0.000 N 
ATOM     14  H   UNL     1       1.991   7.011  20.803  0.00  0.00    +0.000 HD
BRANCH  12  15
ATOM     15  C   UNL     1       3.844   5.536  19.347  0.00  0.00    +0.000 C 
ATOM     16  N   UNL     1       4.453   4.593  19.634  0.00  0.00    +0.000 NA
ENDBRANCH  12  15
ENDBRANCH   6   9
BRANCH   8  17
ATOM     17  C   UNL     1      -1.551  11.757  19.729  0.00  0.00    +0.000 A 
ATOM     18  N   UNL     1      -1.951  11.140  18.633  0.00  0.00    +0.000 NA
ATOM     19  C   UNL     1      -3.269  11.468  18.475  0.00  0.00    +0.000 A 
ATOM     20  C   UNL     1      -3.677  12.320  19.470  0.00  0.00    +0.000 A 
ATOM     21  N   UNL     1      -2.580  12.489  20.276  0.00  0.00    +0.000 N 
BRANCH  21  22
ATOM     22  C   UNL     1      -2.520  13.391  21.419  0.00  0.00    +0.000 C 
BRANCH  22  23
ATOM     23  C   UNL     1      -3.627  13.163  22.419  0.00  0.00    +0.000 A 
ATOM     24  C   UNL     1      -4.948  13.573  22.180  0.00  0.00    +0.000 A 
ATOM     25  C   UNL     1      -5.943  13.362  23.136  0.00  0.00    +0.000 A 
ATOM     26  C   UNL     1      -5.640  12.719  24.333  0.00  0.00    +0.000 A 
ATOM     27  C   UNL     1      -4.346  12.264  24.567  0.00  0.00    +0.000 A 
ATOM     28  C   UNL     1      -3.347  12.477  23.615  0.00  0.00    +0.000 A 
ENDBRANCH  22  23
ENDBRANCH  21  22
ENDBRANCH   8  17
TORSDOF 5
ENDMDL
MODEL 4
REMARK VINA RESULT:      -7.0      2.986      8.268
REMARK  Name = 
REMARK  7 active torsions:
REMARK  status: ('A' for Active; 'I' for Inactive)
REMARK    1  A    between atoms: C_1  and  C_2
REMARK    2  A    between atoms: C_2  and  C_3
REMARK    3  A    between atoms: C_6  and  C_8
REMARK    4  A    between atoms: C_11  and  C_12
REMARK    5  A    between atoms: C_15  and  C_16
REMARK    6  A    between atoms: N_20  and  C_21
REMARK    7  A    between atoms: C_21  and  C_22
REMARK                            x       y       z     vdW  Elec       q    Type
REMARK                         _______ _______ _______ _____ _____    ______ ____
ROOT
ATOM      1  C   UNL     1      -0.244  14.123  18.869  0.00  0.00    +0.000 C 
ATOM      2  C   UNL     1       0.363  12.931  19.610  0.00  0.00    +0.000 C 
ATOM      3  C   UNL     1       1.457  13.417  20.574  0.00  0.00    +0.000 C 
ATOM      4  C   UNL     1       0.870  11.789  18.703  0.00  0.00    +0.000 C 
ATOM      5  N   UNL     1       0.202  10.879  19.608  0.00  0.00    +0.000 N 
ATOM      6  C   UNL     1       0.393   9.582  19.984  0.00  0.00    +0.000 C 
ATOM      7  O   UNL     1      -0.202   9.106  20.952  0.00  0.00    +0.000 OA
ATOM      8  C   UNL     1      -0.626  11.895  20.256  0.00  0.00    +0.000 C 
ENDROOT
BRANCH   6   9
ATOM      9  C   UNL     1       1.381   8.801  19.261  0.00  0.00    +0.000 A 
ATOM     10  C   UNL     1       1.960   8.937  18.010  0.00  0.00    +0.000 A 
ATOM     11  C   UNL     1       2.901   7.888  17.842  0.00  0.00    +0.000 A 
ATOM     12  C   UNL     1       2.856   7.113  18.980  0.00  0.00    +0.000 A 
ATOM     13  N   UNL     1       1.917   7.650  19.812  0.00  0.00    +0.000 N 
ATOM     14  H   UNL     1       1.643   7.292  20.719  0.00  0.00    +0.000 HD
BRANCH  12  15
ATOM     15  C   UNL     1       3.615   5.952  19.290  0.00  0.00    +0.000 C 
ATOM     16  N   UNL     1       4.245   5.007  19.524  0.00  0.00    +0.000 NA
ENDBRANCH  12  15
ENDBRANCH   6   9
BRANCH   8  17
ATOM     17  C   UNL     1      -2.051  11.920  19.687  0.00  0.00    +0.000 A 
ATOM     18  N   UNL     1      -2.410  11.232  18.618  0.00  0.00    +0.000 NA
ATOM     19  C   UNL     1      -3.729  11.523  18.408  0.00  0.00    +0.000 A 
ATOM     20  C   UNL     1      -4.180  12.423  19.341  0.00  0.00    +0.000 A 
ATOM     21  N   UNL     1      -3.108  12.660  20.164  0.00  0.00    +0.000 N 
BRANCH  21  22
ATOM     22  C   UNL     1      -3.095  13.628  21.254  0.00  0.00    +0.000 C 
BRANCH  22  23
ATOM     23  C   UNL     1      -3.976  13.232  22.414  0.00  0.00    +0.000 A 
ATOM     24  C   UNL     1      -3.456  12.665  23.588  0.00  0.00    +0.000 A 
ATOM     25  C   UNL     1      -4.302  12.293  24.635  0.00  0.00    +0.000 A 
ATOM     26  C   UNL     1      -5.675  12.504  24.534  0.00  0.00    +0.000 A 
ATOM     27  C   UNL     1      -6.202  13.108  23.396  0.00  0.00    +0.000 A 
ATOM     28  C   UNL     1      -5.359  13.478  22.346  0.00  0.00    +0.000 A 
ENDBRANCH  22  23
ENDBRANCH  21  22
ENDBRANCH   8  17
TORSDOF 5
ENDMDL
MODEL 5
REMARK VINA RESULT:      -6.9      2.172      7.773
REMARK  Name = 
REMARK  7 active torsions:
REMARK  status: ('A' for Active; 'I' for Inactive)
REMARK    1  A    between atoms: C_1  and  C_2
REMARK    2  A    between atoms: C_2  and  C_3
REMARK    3  A    between atoms: C_6  and  C_8
REMARK    4  A    between atoms: C_11  and  C_12
REMARK    5  A    between atoms: C_15  and  C_16
REMARK    6  A    between atoms: N_20  and  C_21
REMARK    7  A    between atoms: C_21  and  C_22
REMARK                            x       y       z     vdW  Elec       q    Type
REMARK                         _______ _______ _______ _____ _____    ______ ____
ROOT
ATOM      1  C   UNL     1       0.237  10.407  22.396  0.00  0.00    +0.000 C 
ATOM      2  C   UNL     1       0.260   9.343  21.299  0.00  0.00    +0.000 C 
ATOM      3  C   UNL     1      -0.688   8.191  21.670  0.00  0.00    +0.000 C 
ATOM      4  C   UNL     1       1.664   8.825  20.920  0.00  0.00    +0.000 C 
ATOM      5  N   UNL     1       1.260   8.974  19.539  0.00  0.00    +0.000 N 
ATOM      6  C   UNL     1       1.601   8.367  18.365  0.00  0.00    +0.000 C 
ATOM      7  O   UNL     1       0.936   8.540  17.343  0.00  0.00    +0.000 OA
ATOM      8  C   UNL     1       0.105   9.826  19.812  0.00  0.00    +0.000 C 
ENDROOT
BRANCH   6   9
ATOM      9  C   UNL     1       2.723   7.445  18.377  0.00  0.00    +0.000 A 
ATOM     10  C   UNL     1       3.023   6.331  19.143  0.00  0.00    +0.000 A 
ATOM     11  C   UNL     1       4.253   5.794  18.681  0.00  0.00    +0.000 A 
ATOM     12  C   UNL     1       4.696   6.606  17.661  0.00  0.00    +0.000 A 
ATOM     13  N   UNL     1       3.787   7.614  17.508  0.00  0.00    +0.000 N 
ATOM     14  H   UNL     1       3.846   8.379  16.847  0.00  0.00    +0.000 HD
BRANCH  12  15
ATOM     15  C   UNL     1       5.875   6.480  16.879  0.00  0.00    +0.000 C 
ATOM     16  N   UNL     1       6.845   6.394  16.250  0.00  0.00    +0.000 NA
ENDBRANCH  12  15
ENDBRANCH   6   9
BRANCH   8  17
ATOM     17  C   UNL     1       0.421  11.310  19.578  0.00  0.00    +0.000 A 
ATOM     18  N   UNL     1       1.653  11.770  19.452  0.00  0.00    +0.000 NA
ATOM     19  C   UNL     1       1.534  13.122  19.283  0.00  0.00    +0.000 A 
ATOM     20  C   UNL     1       0.216  13.502  19.334  0.00  0.00    +0.000 A 
ATOM     21  N   UNL     1      -0.490  12.338  19.508  0.00  0.00    +0.000 N 
BRANCH  21  22
ATOM     22  C   UNL     1      -1.932  12.263  19.708  0.00  0.00    +0.000 C 
BRANCH  22  23
ATOM     23  C   UNL     1      -2.683  11.811  18.480  0.00  0.00    +0.000 A 
ATOM     24  C   UNL     1      -2.026  11.418  17.303  0.00  0.00    +0.000 A 
ATOM     25  C   UNL     1      -2.753  11.024  16.178  0.00  0.00    +0.000 A 
ATOM     26  C   UNL     1      -4.145  10.993  16.220  0.00  0.00    +0.000 A 
ATOM     27  C   UNL     1      -4.811  11.333  17.393  0.00  0.00    +0.000 A 
ATOM     28  C   UNL     1      -4.086  11.733  18.519  0.00  0.00    +0.000 A 
ENDBRANCH  22  23
ENDBRANCH  21  22
ENDBRANCH   8  17
TORSDOF 5
ENDMDL
MODEL 6
REMARK VINA RESULT:      -6.9      1.251      1.641
REMARK  Name = 
REMARK  7 active torsions:
REMARK  status: ('A' for Active; 'I' for Inactive)
REMARK    1  A    between atoms: C_1  and  C_2
REMARK    2  A    between atoms: C_2  and  C_3
REMARK    3  A    between atoms: C_6  and  C_8
REMARK    4  A    between atoms: C_11  and  C_12
REMARK    5  A    between atoms: C_15  and  C_16
REMARK    6  A    between atoms: N_20  and  C_21
REMARK    7  A    between atoms: C_21  and  C_22
REMARK                            x       y       z     vdW  Elec       q    Type
REMARK                         _______ _______ _______ _____ _____    ______ ____
ROOT
ATOM      1  C   UNL     1       1.457  12.336  20.569  0.00  0.00    +0.000 C 
ATOM      2  C   UNL     1       0.625  12.207  19.292  0.00  0.00    +0.000 C 
ATOM      3  C   UNL     1       1.038  13.295  18.288  0.00  0.00    +0.000 C 
ATOM      4  C   UNL     1      -0.904  12.182  19.509  0.00  0.00    +0.000 C 
ATOM      5  N   UNL     1      -0.937  11.068  18.587  0.00  0.00    +0.000 N 
ATOM      6  C   UNL     1      -1.861  10.563  17.719  0.00  0.00    +0.000 C 
ATOM      7  O   UNL     1      -1.550   9.718  16.879  0.00  0.00    +0.000 OA
ATOM      8  C   UNL     1       0.495  10.780  18.649  0.00  0.00    +0.000 C 
ENDROOT
BRANCH   6   9
ATOM      9  C   UNL     1      -3.204  11.113  17.760  0.00  0.00    +0.000 A 
ATOM     10  C   UNL     1      -4.246  11.132  16.847  0.00  0.00    +0.000 A 
ATOM     11  C   UNL     1      -5.351  11.785  17.451  0.00  0.00    +0.000 A 
ATOM     12  C   UNL     1      -4.955  12.181  18.709  0.00  0.00    +0.000 A 
ATOM     13  N   UNL     1      -3.654  11.802  18.874  0.00  0.00    +0.000 N 
ATOM     14  H   UNL     1      -3.079  11.969  19.691  0.00  0.00    +0.000 HD
BRANCH  12  15
ATOM     15  C   UNL     1      -5.710  12.867  19.699  0.00  0.00    +0.000 C 
ATOM     16  N   UNL     1      -6.317  13.445  20.499  0.00  0.00    +0.000 NA
ENDBRANCH  12  15
ENDBRANCH   6   9
BRANCH   8  17
ATOM     17  C   UNL     1       0.802   9.613  19.598  0.00  0.00    +0.000 A 
ATOM     18  N   UNL     1       0.269   9.506  20.801  0.00  0.00    +0.000 NA
ATOM     19  C   UNL     1       0.793   8.366  21.346  0.00  0.00    +0.000 A 
ATOM     20  C   UNL     1       1.680   7.780  20.479  0.00  0.00    +0.000 A 
ATOM     21  N   UNL     1       1.671   8.573  19.359  0.00  0.00    +0.000 N 
BRANCH  21  22
ATOM     22  C   UNL     1       2.536   8.385  18.201  0.00  0.00    +0.000 C 
BRANCH  22  23
ATOM     23  C   UNL     1       2.921   6.944  17.970  0.00  0.00    +0.000 A 
ATOM     24  C   UNL     1       1.984   5.901  18.023  0.00  0.00    +0.000 A 
ATOM     25  C   UNL     1       2.379   4.577  17.824  0.00  0.00    +0.000 A 
ATOM     26  C   UNL     1       3.711   4.278  17.546  0.00  0.00    +0.000 A 
ATOM     27  C   UNL     1       4.645   5.304  17.443  0.00  0.00    +0.000 A 
ATOM     28  C   UNL     1       4.253   6.630  17.646  0.00  0.00    +0.000 A 
ENDBRANCH  22  23
ENDBRANCH  21  22
ENDBRANCH   8  17
TORSDOF 5
ENDMDL
MODEL 7
REMARK VINA RESULT:      -6.8      0.901      1.325
REMARK  Name = 
REMARK  7 active torsions:
REMARK  status: ('A' for Active; 'I' for Inactive)
REMARK    1  A    between atoms: C_1  and  C_2
REMARK    2  A    between atoms: C_2  and  C_3
REMARK    3  A    between atoms: C_6  and  C_8
REMARK    4  A    between atoms: C_11  and  C_12
REMARK    5  A    between atoms: C_15  and  C_16
REMARK    6  A    between atoms: N_20  and  C_21
REMARK    7  A    between atoms: C_21  and  C_22
REMARK                            x       y       z     vdW  Elec       q    Type
REMARK                         _______ _______ _______ _____ _____    ______ ____
ROOT
ATOM      1  C   UNL     1       1.733  12.474  20.467  0.00  0.00    +0.000 C 
ATOM      2  C   UNL     1       0.663  12.420  19.377  0.00  0.00    +0.000 C 
ATOM      3  C   UNL     1       0.965  13.470  18.296  0.00  0.00    +0.000 C 
ATOM      4  C   UNL     1      -0.792  12.527  19.884  0.00  0.00    +0.000 C 
ATOM      5  N   UNL     1      -1.097  11.421  19.003  0.00  0.00    +0.000 N 
ATOM      6  C   UNL     1      -2.211  11.000  18.337  0.00  0.00    +0.000 C 
ATOM      7  O   UNL     1      -2.141  10.132  17.465  0.00  0.00    +0.000 OA
ATOM      8  C   UNL     1       0.290  11.010  18.793  0.00  0.00    +0.000 C 
ENDROOT
BRANCH   6   9
ATOM      9  C   UNL     1      -3.470  11.663  18.627  0.00  0.00    +0.000 A 
ATOM     10  C   UNL     1      -4.077  12.064  19.806  0.00  0.00    +0.000 A 
ATOM     11  C   UNL     1      -5.300  12.705  19.479  0.00  0.00    +0.000 A 
ATOM     12  C   UNL     1      -5.433  12.656  18.109  0.00  0.00    +0.000 A 
ATOM     13  N   UNL     1      -4.345  12.000  17.609  0.00  0.00    +0.000 N 
ATOM     14  H   UNL     1      -4.166  11.792  16.634  0.00  0.00    +0.000 HD
BRANCH  12  15
ATOM     15  C   UNL     1      -6.486  13.168  17.304  0.00  0.00    +0.000 C 
ATOM     16  N   UNL     1      -7.345  13.567  16.636  0.00  0.00    +0.000 NA
ENDBRANCH  12  15
ENDBRANCH   6   9
BRANCH   8  17
ATOM     17  C   UNL     1       0.674   9.819  19.682  0.00  0.00    +0.000 A 
ATOM     18  N   UNL     1       0.225   9.669  20.914  0.00  0.00    +0.000 NA
ATOM     19  C   UNL     1       0.797   8.521  21.386  0.00  0.00    +0.000 A 
ATOM     20  C   UNL     1       1.631   7.973  20.444  0.00  0.00    +0.000 A 
ATOM     21  N   UNL     1       1.536   8.799  19.352  0.00  0.00    +0.000 N 
BRANCH  21  22
ATOM     22  C   UNL     1       2.322   8.658  18.133  0.00  0.00    +0.000 C 
BRANCH  22  23
ATOM     23  C   UNL     1       2.828   7.254  17.908  0.00  0.00    +0.000 A 
ATOM     24  C   UNL     1       2.005   6.128  18.060  0.00  0.00    +0.000 A 
ATOM     25  C   UNL     1       2.512   4.842  17.863  0.00  0.00    +0.000 A 
ATOM     26  C   UNL     1       3.841   4.664  17.487  0.00  0.00    +0.000 A 
ATOM     27  C   UNL     1       4.659   5.772  17.285  0.00  0.00    +0.000 A 
ATOM     28  C   UNL     1       4.155   7.059  17.486  0.00  0.00    +0.000 A 
ENDBRANCH  22  23
ENDBRANCH  21  22
ENDBRANCH   8  17
TORSDOF 5
ENDMDL
MODEL 8
REMARK VINA RESULT:      -6.8      2.106      7.788
REMARK  Name = 
REMARK  7 active torsions:
REMARK  status: ('A' for Active; 'I' for Inactive)
REMARK    1  A    between atoms: C_1  and  C_2
REMARK    2  A    between atoms: C_2  and  C_3
REMARK    3  A    between atoms: C_6  and  C_8
REMARK    4  A    between atoms: C_11  and  C_12
REMARK    5  A    between atoms: C_15  and  C_16
REMARK    6  A    between atoms: N_20  and  C_21
REMARK    7  A    between atoms: C_21  and  C_22
REMARK                            x       y       z     vdW  Elec       q    Type
REMARK                         _______ _______ _______ _____ _____    ______ ____
ROOT
ATOM      1  C   UNL     1       0.313  10.474  22.355  0.00  0.00    +0.000 C 
ATOM      2  C   UNL     1       0.282   9.420  21.248  0.00  0.00    +0.000 C 
ATOM      3  C   UNL     1      -0.619   8.248  21.668  0.00  0.00    +0.000 C 
ATOM      4  C   UNL     1       1.668   8.932  20.772  0.00  0.00    +0.000 C 
ATOM      5  N   UNL     1       1.171   9.086  19.422  0.00  0.00    +0.000 N 
ATOM      6  C   UNL     1       1.445   8.496  18.222  0.00  0.00    +0.000 C 
ATOM      7  O   UNL     1       0.711   8.667  17.248  0.00  0.00    +0.000 OA
ATOM      8  C   UNL     1       0.021   9.915  19.779  0.00  0.00    +0.000 C 
ENDROOT
BRANCH   6   9
ATOM      9  C   UNL     1       2.581   7.595  18.151  0.00  0.00    +0.000 A 
ATOM     10  C   UNL     1       3.813   7.675  17.522  0.00  0.00    +0.000 A 
ATOM     11  C   UNL     1       4.545   6.500  17.832  0.00  0.00    +0.000 A 
ATOM     12  C   UNL     1       3.737   5.710  18.618  0.00  0.00    +0.000 A 
ATOM     13  N   UNL     1       2.547   6.360  18.777  0.00  0.00    +0.000 N 
ATOM     14  H   UNL     1       1.742   6.023  19.291  0.00  0.00    +0.000 HD
BRANCH  12  15
ATOM     15  C   UNL     1       4.024   4.439  19.184  0.00  0.00    +0.000 C 
ATOM     16  N   UNL     1       4.240   3.394  19.637  0.00  0.00    +0.000 NA
ENDBRANCH  12  15
ENDBRANCH   6   9
BRANCH   8  17
ATOM     17  C   UNL     1       0.296  11.406  19.541  0.00  0.00    +0.000 A 
ATOM     18  N   UNL     1       1.513  11.901  19.413  0.00  0.00    +0.000 NA
ATOM     19  C   UNL     1       1.356  13.248  19.240  0.00  0.00    +0.000 A 
ATOM     20  C   UNL     1       0.028  13.590  19.289  0.00  0.00    +0.000 A 
ATOM     21  N   UNL     1      -0.645  12.408  19.467  0.00  0.00    +0.000 N 
BRANCH  21  22
ATOM     22  C   UNL     1      -2.084  12.293  19.667  0.00  0.00    +0.000 C 
BRANCH  22  23
ATOM     23  C   UNL     1      -2.821  11.816  18.440  0.00  0.00    +0.000 A 
ATOM     24  C   UNL     1      -4.223  11.753  18.386  0.00  0.00    +0.000 A 
ATOM     25  C   UNL     1      -4.872  11.289  17.241  0.00  0.00    +0.000 A 
ATOM     26  C   UNL     1      -4.134  10.904  16.125  0.00  0.00    +0.000 A 
ATOM     27  C   UNL     1      -2.746  11.005  16.143  0.00  0.00    +0.000 A 
ATOM     28  C   UNL     1      -2.093  11.465  17.290  0.00  0.00    +0.000 A 
ENDBRANCH  22  23
ENDBRANCH  21  22
ENDBRANCH   8  17
TORSDOF 5
ENDMDL
MODEL 9
REMARK VINA RESULT:      -6.7      6.614     10.394
REMARK  Name = 
REMARK  7 active torsions:
REMARK  status: ('A' for Active; 'I' for Inactive)
REMARK    1  A    between atoms: C_1  and  C_2
REMARK    2  A    between atoms: C_2  and  C_3
REMARK    3  A    between atoms: C_6  and  C_8
REMARK    4  A    between atoms: C_11  and  C_12
REMARK    5  A    between atoms: C_15  and  C_16
REMARK    6  A    between atoms: N_20  and  C_21
REMARK    7  A    between atoms: C_21  and  C_22
REMARK                            x       y       z     vdW  Elec       q    Type
REMARK                         _______ _______ _______ _____ _____    ______ ____
ROOT
ATOM      1  C   UNL     1       7.334   7.105  18.528  0.00  0.00    +0.000 C 
ATOM      2  C   UNL     1       7.131   5.779  17.794  0.00  0.00    +0.000 C 
ATOM      3  C   UNL     1       8.108   4.725  18.339  0.00  0.00    +0.000 C 
ATOM      4  C   UNL     1       7.192   5.870  16.253  0.00  0.00    +0.000 C 
ATOM      5  N   UNL     1       6.004   5.045  16.236  0.00  0.00    +0.000 N 
ATOM      6  C   UNL     1       5.466   4.148  15.359  0.00  0.00    +0.000 C 
ATOM      7  O   UNL     1       4.538   3.411  15.691  0.00  0.00    +0.000 OA
ATOM      8  C   UNL     1       5.660   5.249  17.642  0.00  0.00    +0.000 C 
ENDROOT
BRANCH   6   9
ATOM      9  C   UNL     1       6.076   4.032  14.046  0.00  0.00    +0.000 A 
ATOM     10  C   UNL     1       6.841   4.896  13.279  0.00  0.00    +0.000 A 
ATOM     11  C   UNL     1       7.196   4.226  12.080  0.00  0.00    +0.000 A 
ATOM     12  C   UNL     1       6.618   2.977  12.122  0.00  0.00    +0.000 A 
ATOM     13  N   UNL     1       5.919   2.882  13.292  0.00  0.00    +0.000 N 
ATOM     14  H   UNL     1       5.372   2.088  13.601  0.00  0.00    +0.000 HD
BRANCH  12  15
ATOM     15  C   UNL     1       6.688   1.936  11.157  0.00  0.00    +0.000 C 
ATOM     16  N   UNL     1       6.763   1.097  10.361  0.00  0.00    +0.000 NA
ENDBRANCH  12  15
ENDBRANCH   6   9
BRANCH   8  17
ATOM     17  C   UNL     1       4.568   6.314  17.814  0.00  0.00    +0.000 A 
ATOM     18  N   UNL     1       4.473   7.378  17.037  0.00  0.00    +0.000 NA
ATOM     19  C   UNL     1       3.407   8.094  17.507  0.00  0.00    +0.000 A 
ATOM     20  C   UNL     1       2.857   7.479  18.603  0.00  0.00    +0.000 A 
ATOM     21  N   UNL     1       3.593   6.335  18.785  0.00  0.00    +0.000 N 
BRANCH  21  22
ATOM     22  C   UNL     1       3.425   5.406  19.895  0.00  0.00    +0.000 C 
BRANCH  22  23
ATOM     23  C   UNL     1       2.477   4.273  19.587  0.00  0.00    +0.000 A 
ATOM     24  C   UNL     1       1.225   4.153  20.209  0.00  0.00    +0.000 A 
ATOM     25  C   UNL     1       0.381   3.080  19.914  0.00  0.00    +0.000 A 
ATOM     26  C   UNL     1       0.765   2.125  18.976  0.00  0.00    +0.000 A 
ATOM     27  C   UNL     1       1.983   2.254  18.314  0.00  0.00    +0.000 A 
ATOM     28  C   UNL     1       2.831   3.324  18.611  0.00  0.00    +0.000 A 
ENDBRANCH  22  23
ENDBRANCH  21  22
ENDBRANCH   8  17
TORSDOF 5
ENDMDL
