MODEL 1
REMARK VINA RESULT:      -8.5      0.000      0.000
REMARK  Name = 
REMARK  5 active torsions:
REMARK  status: ('A' for Active; 'I' for Inactive)
REMARK    1  A    between atoms: C_1  and  N_2
REMARK    2  A    between atoms: N_2  and  C_25
REMARK    3  A    between atoms: C_3  and  C_5
REMARK    4  A    between atoms: C_9  and  C_10
REMARK    5  A    between atoms: N_12  and  C_13
REMARK                            x       y       z     vdW  Elec       q    Type
REMARK                         _______ _______ _______ _____ _____    ______ ____
ROOT
ATOM      1  C   UNL     1       0.434  11.715  20.261  0.00  0.00    +0.000 A 
ATOM      2  C   UNL     1      -0.450  11.702  21.342  0.00  0.00    +0.000 A 
ATOM      3  C   UNL     1      -0.569  10.563  22.148  0.00  0.00    +0.000 A 
ATOM      4  C   UNL     1       0.110   9.389  21.815  0.00  0.00    +0.000 A 
ATOM      5  C   UNL     1       0.906   9.336  20.673  0.00  0.00    +0.000 A 
ATOM      6  C   UNL     1       1.070  10.501  19.906  0.00  0.00    +0.000 A 
ENDROOT
BRANCH   1   9
ATOM      7  C   UNL     1       2.663  13.730  20.785  0.00  0.00    +0.000 C 
ATOM      8  N   UNL     1       1.702  13.877  19.685  0.00  0.00    +0.000 N 
ATOM      9  C   UNL     1       0.707  12.916  19.380  0.00  0.00    +0.000 C 
ATOM     10  O   UNL     1       0.036  12.917  18.350  0.00  0.00    +0.000 OA
BRANCH   8  11
ATOM     11  C   UNL     1       1.878  15.064  18.845  0.00  0.00    +0.000 A 
ATOM     12  C   UNL     1       2.965  15.211  17.970  0.00  0.00    +0.000 A 
ATOM     13  C   UNL     1       3.156  16.375  17.211  0.00  0.00    +0.000 A 
ATOM     14  C   UNL     1       2.250  17.425  17.288  0.00  0.00    +0.000 A 
ATOM     15  C   UNL     1       1.141  17.298  18.111  0.00  0.00    +0.000 A 
ATOM     16  C   UNL     1       0.955  16.131  18.870  0.00  0.00    +0.000 A 
ENDBRANCH   8  11
ENDBRANCH   1   9
BRANCH   5  17
ATOM     17  C   UNL     1       1.495   8.012  20.271  0.00  0.00    +0.000 C 
ATOM     18  O   UNL     1       1.421   7.087  21.074  0.00  0.00    +0.000 OA
ATOM     19  N   UNL     1       2.099   7.970  19.032  0.00  0.00    +0.000 N 
ATOM     20  H   UNL     1       2.154   8.836  18.512  0.00  0.00    +0.000 HD
BRANCH  19  21
ATOM     21  C   UNL     1       2.698   6.859  18.394  0.00  0.00    +0.000 A 
ATOM     22  C   UNL     1       2.113   5.595  18.299  0.00  0.00    +0.000 A 
ATOM     23  C   UNL     1       2.790   4.537  17.680  0.00  0.00    +0.000 A 
ATOM     24  C   UNL     1       4.054   4.738  17.116  0.00  0.00    +0.000 A 
ATOM     25  C   UNL     1       4.596   6.027  17.127  0.00  0.00    +0.000 A 
ATOM     26  C   UNL     1       3.945   7.071  17.793  0.00  0.00    +0.000 A 
ATOM     27  N   UNL     1       5.724   6.316  16.343  0.00  0.00    +0.000 N 
ATOM     28  C   UNL     1       6.186   5.396  15.435  0.00  0.00    +0.000 C 
ATOM     29  O   UNL     1       6.659   5.721  14.351  0.00  0.00    +0.000 OA
ATOM     30  C   UNL     1       6.162   3.982  15.951  0.00  0.00    +0.000 C 
ATOM     31  C   UNL     1       4.783   3.596  16.459  0.00  0.00    +0.000 C 
ATOM     32  H   UNL     1       5.947   7.283  16.150  0.00  0.00    +0.000 HD
ENDBRANCH  19  21
ENDBRANCH   5  17
TORSDOF 4
ENDMDL
MODEL 2
REMARK VINA RESULT:      -8.4      0.952      1.151
REMARK  Name = 
REMARK  5 active torsions:
REMARK  status: ('A' for Active; 'I' for Inactive)
REMARK    1  A    between atoms: C_1  and  N_2
REMARK    2  A    between atoms: N_2  and  C_25
REMARK    3  A    between atoms: C_3  and  C_5
REMARK    4  A    between atoms: C_9  and  C_10
REMARK    5  A    between atoms: N_12  and  C_13
REMARK                            x       y       z     vdW  Elec       q    Type
REMARK                         _______ _______ _______ _____ _____    ______ ____
ROOT
ATOM      1  C   UNL     1       0.813  11.268  20.989  0.00  0.00    +0.000 A 
ATOM      2  C   UNL     1      -0.282  11.173  21.852  0.00  0.00    +0.000 A 
ATOM      3  C   UNL     1      -0.669   9.933  22.374  0.00  0.00    +0.000 A 
ATOM      4  C   UNL     1      -0.037   8.761  21.954  0.00  0.00    +0.000 A 
ATOM      5  C   UNL     1       0.980   8.813  21.002  0.00  0.00    +0.000 A 
ATOM      6  C   UNL     1       1.404  10.067  20.531  0.00  0.00    +0.000 A 
ENDROOT
BRANCH   1   9
ATOM      7  C   UNL     1      -0.276  12.659  18.503  0.00  0.00    +0.000 C 
ATOM      8  N   UNL     1       0.893  13.151  19.240  0.00  0.00    +0.000 N 
ATOM      9  C   UNL     1       1.370  12.563  20.437  0.00  0.00    +0.000 C 
ATOM     10  O   UNL     1       2.208  13.076  21.176  0.00  0.00    +0.000 OA
BRANCH   8  11
ATOM     11  C   UNL     1       1.515  14.364  18.704  0.00  0.00    +0.000 A 
ATOM     12  C   UNL     1       2.755  14.347  18.047  0.00  0.00    +0.000 A 
ATOM     13  C   UNL     1       3.369  15.520  17.587  0.00  0.00    +0.000 A 
ATOM     14  C   UNL     1       2.750  16.752  17.751  0.00  0.00    +0.000 A 
ATOM     15  C   UNL     1       1.504  16.805  18.359  0.00  0.00    +0.000 A 
ATOM     16  C   UNL     1       0.895  15.627  18.819  0.00  0.00    +0.000 A 
ENDBRANCH   8  11
ENDBRANCH   1   9
BRANCH   5  17
ATOM     17  C   UNL     1       1.527   7.519  20.467  0.00  0.00    +0.000 C 
ATOM     18  O   UNL     1       1.388   6.513  21.155  0.00  0.00    +0.000 OA
ATOM     19  N   UNL     1       2.171   7.592  19.249  0.00  0.00    +0.000 N 
ATOM     20  H   UNL     1       2.280   8.509  18.836  0.00  0.00    +0.000 HD
BRANCH  19  21
ATOM     21  C   UNL     1       2.745   6.536  18.505  0.00  0.00    +0.000 A 
ATOM     22  C   UNL     1       2.113   5.318  18.250  0.00  0.00    +0.000 A 
ATOM     23  C   UNL     1       2.766   4.308  17.532  0.00  0.00    +0.000 A 
ATOM     24  C   UNL     1       4.055   4.516  17.030  0.00  0.00    +0.000 A 
ATOM     25  C   UNL     1       4.649   5.770  17.205  0.00  0.00    +0.000 A 
ATOM     26  C   UNL     1       4.019   6.759  17.968  0.00  0.00    +0.000 A 
ATOM     27  N   UNL     1       5.813   6.096  16.491  0.00  0.00    +0.000 N 
ATOM     28  C   UNL     1       6.267   5.266  15.496  0.00  0.00    +0.000 C 
ATOM     29  O   UNL     1       6.787   5.691  14.471  0.00  0.00    +0.000 OA
ATOM     30  C   UNL     1       6.168   3.806  15.845  0.00  0.00    +0.000 C 
ATOM     31  C   UNL     1       4.759   3.425  16.267  0.00  0.00    +0.000 C 
ATOM     32  H   UNL     1       6.081   7.068  16.417  0.00  0.00    +0.000 HD
ENDBRANCH  19  21
ENDBRANCH   5  17
TORSDOF 4
ENDMDL
MODEL 3
REMARK VINA RESULT:      -8.3      2.204      2.621
REMARK  Name = 
REMARK  5 active torsions:
REMARK  status: ('A' for Active; 'I' for Inactive)
REMARK    1  A    between atoms: C_1  and  N_2
REMARK    2  A    between atoms: N_2  and  C_25
REMARK    3  A    between atoms: C_3  and  C_5
REMARK    4  A    between atoms: C_9  and  C_10
REMARK    5  A    between atoms: N_12  and  C_13
REMARK                            x       y       z     vdW  Elec       q    Type
REMARK                         _______ _______ _______ _____ _____    ______ ____
ROOT
ATOM      1  C   UNL     1       0.588  11.887  21.290  0.00  0.00    +0.000 A 
ATOM      2  C   UNL     1      -0.452  11.941  22.220  0.00  0.00    +0.000 A 
ATOM      3  C   UNL     1      -0.916  10.771  22.835  0.00  0.00    +0.000 A 
ATOM      4  C   UNL     1      -0.421   9.525  22.445  0.00  0.00    +0.000 A 
ATOM      5  C   UNL     1       0.533   9.432  21.433  0.00  0.00    +0.000 A 
ATOM      6  C   UNL     1       1.037  10.614  20.866  0.00  0.00    +0.000 A 
ENDROOT
BRANCH   1   9
ATOM      7  C   UNL     1      -0.278  12.997  18.584  0.00  0.00    +0.000 C 
ATOM      8  N   UNL     1       0.851  13.546  19.342  0.00  0.00    +0.000 N 
ATOM      9  C   UNL     1       1.224  13.094  20.632  0.00  0.00    +0.000 C 
ATOM     10  O   UNL     1       2.024  13.672  21.365  0.00  0.00    +0.000 OA
BRANCH   8  11
ATOM     11  C   UNL     1       1.548  14.672  18.715  0.00  0.00    +0.000 A 
ATOM     12  C   UNL     1       2.774  14.522  18.051  0.00  0.00    +0.000 A 
ATOM     13  C   UNL     1       3.461  15.614  17.502  0.00  0.00    +0.000 A 
ATOM     14  C   UNL     1       2.931  16.895  17.582  0.00  0.00    +0.000 A 
ATOM     15  C   UNL     1       1.699  17.077  18.194  0.00  0.00    +0.000 A 
ATOM     16  C   UNL     1       1.017  15.979  18.744  0.00  0.00    +0.000 A 
ENDBRANCH   8  11
ENDBRANCH   1   9
BRANCH   5  17
ATOM     17  C   UNL     1       0.924   8.066  20.941  0.00  0.00    +0.000 C 
ATOM     18  O   UNL     1       0.343   7.099  21.421  0.00  0.00    +0.000 OA
ATOM     19  N   UNL     1       1.936   8.027  20.005  0.00  0.00    +0.000 N 
ATOM     20  H   UNL     1       2.378   8.905  19.762  0.00  0.00    +0.000 HD
BRANCH  19  21
ATOM     21  C   UNL     1       2.475   6.894  19.354  0.00  0.00    +0.000 A 
ATOM     22  C   UNL     1       2.980   6.899  18.053  0.00  0.00    +0.000 A 
ATOM     23  C   UNL     1       3.465   5.722  17.468  0.00  0.00    +0.000 A 
ATOM     24  C   UNL     1       3.481   4.526  18.192  0.00  0.00    +0.000 A 
ATOM     25  C   UNL     1       3.065   4.543  19.526  0.00  0.00    +0.000 A 
ATOM     26  C   UNL     1       2.530   5.706  20.093  0.00  0.00    +0.000 A 
ATOM     27  N   UNL     1       3.318   3.436  20.351  0.00  0.00    +0.000 N 
ATOM     28  C   UNL     1       4.125   2.417  19.908  0.00  0.00    +0.000 C 
ATOM     29  O   UNL     1       4.890   1.813  20.652  0.00  0.00    +0.000 OA
ATOM     30  C   UNL     1       3.888   2.049  18.469  0.00  0.00    +0.000 C 
ATOM     31  C   UNL     1       3.995   3.261  17.557  0.00  0.00    +0.000 C 
ATOM     32  H   UNL     1       3.258   3.553  21.354  0.00  0.00    +0.000 HD
ENDBRANCH  19  21
ENDBRANCH   5  17
TORSDOF 4
ENDMDL
MODEL 4
REMARK VINA RESULT:      -8.2      1.594      2.126
REMARK  Name = 
REMARK  5 active torsions:
REMARK  status: ('A' for Active; 'I' for Inactive)
REMARK    1  A    between atoms: C_1  and  N_2
REMARK    2  A    between atoms: N_2  and  C_25
REMARK    3  A    between atoms: C_3  and  C_5
REMARK    4  A    between atoms: C_9  and  C_10
REMARK    5  A    between atoms: N_12  and  C_13
REMARK                            x       y       z     vdW  Elec       q    Type
REMARK                         _______ _______ _______ _____ _____    ______ ____
ROOT
ATOM      1  C   UNL     1      -0.064  11.489  20.281  0.00  0.00    +0.000 A 
ATOM      2  C   UNL     1      -0.214  10.950  21.561  0.00  0.00    +0.000 A 
ATOM      3  C   UNL     1       0.414   9.746  21.902  0.00  0.00    +0.000 A 
ATOM      4  C   UNL     1       1.105   9.012  20.937  0.00  0.00    +0.000 A 
ATOM      5  C   UNL     1       1.171   9.467  19.621  0.00  0.00    +0.000 A 
ATOM      6  C   UNL     1       0.592  10.706  19.302  0.00  0.00    +0.000 A 
ENDROOT
BRANCH   1   9
ATOM      7  C   UNL     1       1.406  14.141  20.613  0.00  0.00    +0.000 C 
ATOM      8  N   UNL     1       0.048  14.049  20.063  0.00  0.00    +0.000 N 
ATOM      9  C   UNL     1      -0.623  12.824  19.833  0.00  0.00    +0.000 C 
ATOM     10  O   UNL     1      -1.663  12.714  19.187  0.00  0.00    +0.000 OA
BRANCH   8  11
ATOM     11  C   UNL     1      -0.567  15.322  19.680  0.00  0.00    +0.000 A 
ATOM     12  C   UNL     1      -1.638  15.884  20.391  0.00  0.00    +0.000 A 
ATOM     13  C   UNL     1      -2.258  17.074  19.984  0.00  0.00    +0.000 A 
ATOM     14  C   UNL     1      -1.810  17.755  18.859  0.00  0.00    +0.000 A 
ATOM     15  C   UNL     1      -0.727  17.252  18.154  0.00  0.00    +0.000 A 
ATOM     16  C   UNL     1      -0.111  16.058  18.565  0.00  0.00    +0.000 A 
ENDBRANCH   8  11
ENDBRANCH   1   9
BRANCH   5  17
ATOM     17  C   UNL     1       1.794   8.572  18.585  0.00  0.00    +0.000 C 
ATOM     18  O   UNL     1       1.842   8.983  17.431  0.00  0.00    +0.000 OA
ATOM     19  N   UNL     1       2.232   7.343  19.032  0.00  0.00    +0.000 N 
ATOM     20  H   UNL     1       2.052   7.110  20.000  0.00  0.00    +0.000 HD
BRANCH  19  21
ATOM     21  C   UNL     1       2.879   6.328  18.290  0.00  0.00    +0.000 A 
ATOM     22  C   UNL     1       2.336   5.067  18.041  0.00  0.00    +0.000 A 
ATOM     23  C   UNL     1       3.059   4.104  17.325  0.00  0.00    +0.000 A 
ATOM     24  C   UNL     1       4.328   4.403  16.819  0.00  0.00    +0.000 A 
ATOM     25  C   UNL     1       4.830   5.697  16.988  0.00  0.00    +0.000 A 
ATOM     26  C   UNL     1       4.132   6.641  17.749  0.00  0.00    +0.000 A 
ATOM     27  N   UNL     1       5.966   6.104  16.271  0.00  0.00    +0.000 N 
ATOM     28  C   UNL     1       6.477   5.305  15.277  0.00  0.00    +0.000 C 
ATOM     29  O   UNL     1       6.963   5.763  14.249  0.00  0.00    +0.000 OA
ATOM     30  C   UNL     1       6.485   3.843  15.632  0.00  0.00    +0.000 C 
ATOM     31  C   UNL     1       5.107   3.363  16.058  0.00  0.00    +0.000 C 
ATOM     32  H   UNL     1       6.164   7.093  16.192  0.00  0.00    +0.000 HD
ENDBRANCH  19  21
ENDBRANCH   5  17
TORSDOF 4
ENDMDL
MODEL 5
REMARK VINA RESULT:      -8.2      1.844      2.439
REMARK  Name = 
REMARK  5 active torsions:
REMARK  status: ('A' for Active; 'I' for Inactive)
REMARK    1  A    between atoms: C_1  and  N_2
REMARK    2  A    between atoms: N_2  and  C_25
REMARK    3  A    between atoms: C_3  and  C_5
REMARK    4  A    between atoms: C_9  and  C_10
REMARK    5  A    between atoms: N_12  and  C_13
REMARK                            x       y       z     vdW  Elec       q    Type
REMARK                         _______ _______ _______ _____ _____    ______ ____
ROOT
ATOM      1  C   UNL     1       0.301  11.143  21.115  0.00  0.00    +0.000 A 
ATOM      2  C   UNL     1      -0.199  10.397  22.185  0.00  0.00    +0.000 A 
ATOM      3  C   UNL     1       0.107   9.036  22.305  0.00  0.00    +0.000 A 
ATOM      4  C   UNL     1       0.822   8.381  21.300  0.00  0.00    +0.000 A 
ATOM      5  C   UNL     1       1.232   9.074  20.163  0.00  0.00    +0.000 A 
ATOM      6  C   UNL     1       0.975  10.453  20.080  0.00  0.00    +0.000 A 
ENDROOT
BRANCH   1   9
ATOM      7  C   UNL     1      -1.977  12.372  19.503  0.00  0.00    +0.000 C 
ATOM      8  N   UNL     1      -0.918  13.177  20.121  0.00  0.00    +0.000 N 
ATOM      9  C   UNL     1       0.107  12.634  20.934  0.00  0.00    +0.000 C 
ATOM     10  O   UNL     1       0.872  13.303  21.625  0.00  0.00    +0.000 OA
BRANCH   8  11
ATOM     11  C   UNL     1      -1.020  14.624  19.915  0.00  0.00    +0.000 A 
ATOM     12  C   UNL     1      -1.812  15.446  20.730  0.00  0.00    +0.000 A 
ATOM     13  C   UNL     1      -1.948  16.821  20.491  0.00  0.00    +0.000 A 
ATOM     14  C   UNL     1      -1.277  17.424  19.436  0.00  0.00    +0.000 A 
ATOM     15  C   UNL     1      -0.451  16.651  18.633  0.00  0.00    +0.000 A 
ATOM     16  C   UNL     1      -0.320  15.274  18.876  0.00  0.00    +0.000 A 
ENDBRANCH   8  11
ENDBRANCH   1   9
BRANCH   5  17
ATOM     17  C   UNL     1       1.864   8.298  19.040  0.00  0.00    +0.000 C 
ATOM     18  O   UNL     1       1.929   8.836  17.940  0.00  0.00    +0.000 OA
ATOM     19  N   UNL     1       2.289   7.023  19.351  0.00  0.00    +0.000 N 
ATOM     20  H   UNL     1       2.095   6.684  20.285  0.00  0.00    +0.000 HD
BRANCH  19  21
ATOM     21  C   UNL     1       2.941   6.095  18.508  0.00  0.00    +0.000 A 
ATOM     22  C   UNL     1       2.318   4.992  17.921  0.00  0.00    +0.000 A 
ATOM     23  C   UNL     1       3.045   4.098  17.124  0.00  0.00    +0.000 A 
ATOM     24  C   UNL     1       4.405   4.315  16.878  0.00  0.00    +0.000 A 
ATOM     25  C   UNL     1       5.004   5.470  17.388  0.00  0.00    +0.000 A 
ATOM     26  C   UNL     1       4.292   6.333  18.228  0.00  0.00    +0.000 A 
ATOM     27  N   UNL     1       6.279   5.850  16.941  0.00  0.00    +0.000 N 
ATOM     28  C   UNL     1       6.861   5.199  15.882  0.00  0.00    +0.000 C 
ATOM     29  O   UNL     1       7.556   5.778  15.054  0.00  0.00    +0.000 OA
ATOM     30  C   UNL     1       6.658   3.708  15.913  0.00  0.00    +0.000 C 
ATOM     31  C   UNL     1       5.186   3.347  16.029  0.00  0.00    +0.000 C 
ATOM     32  H   UNL     1       6.589   6.799  17.104  0.00  0.00    +0.000 HD
ENDBRANCH  19  21
ENDBRANCH   5  17
TORSDOF 4
ENDMDL
MODEL 6
REMARK VINA RESULT:      -8.2      2.073      2.633
REMARK  Name = 
REMARK  5 active torsions:
REMARK  status: ('A' for Active; 'I' for Inactive)
REMARK    1  A    between atoms: C_1  and  N_2
REMARK    2  A    between atoms: N_2  and  C_25
REMARK    3  A    between atoms: C_3  and  C_5
REMARK    4  A    between atoms: C_9  and  C_10
REMARK    5  A    between atoms: N_12  and  C_13
REMARK                            x       y       z     vdW  Elec       q    Type
REMARK                         _______ _______ _______ _____ _____    ______ ____
ROOT
ATOM      1  C   UNL     1       0.146  12.086  21.561  0.00  0.00    +0.000 A 
ATOM      2  C   UNL     1      -0.868  11.954  22.513  0.00  0.00    +0.000 A 
ATOM      3  C   UNL     1      -1.142  10.709  23.091  0.00  0.00    +0.000 A 
ATOM      4  C   UNL     1      -0.483   9.562  22.643  0.00  0.00    +0.000 A 
ATOM      5  C   UNL     1       0.449   9.645  21.610  0.00  0.00    +0.000 A 
ATOM      6  C   UNL     1       0.763  10.907  21.080  0.00  0.00    +0.000 A 
ENDROOT
BRANCH   1   9
ATOM      7  C   UNL     1      -0.802  13.068  18.834  0.00  0.00    +0.000 C 
ATOM      8  N   UNL     1       0.185  13.794  19.640  0.00  0.00    +0.000 N 
ATOM      9  C   UNL     1       0.584  13.395  20.939  0.00  0.00    +0.000 C 
ATOM     10  O   UNL     1       1.244  14.092  21.707  0.00  0.00    +0.000 OA
BRANCH   8  11
ATOM     11  C   UNL     1       0.696  15.034  19.049  0.00  0.00    +0.000 A 
ATOM     12  C   UNL     1      -0.116  16.158  18.841  0.00  0.00    +0.000 A 
ATOM     13  C   UNL     1       0.368  17.321  18.223  0.00  0.00    +0.000 A 
ATOM     14  C   UNL     1       1.691  17.403  17.811  0.00  0.00    +0.000 A 
ATOM     15  C   UNL     1       2.536  16.327  18.038  0.00  0.00    +0.000 A 
ATOM     16  C   UNL     1       2.046  15.164  18.656  0.00  0.00    +0.000 A 
ENDBRANCH   8  11
ENDBRANCH   1   9
BRANCH   5  17
ATOM     17  C   UNL     1       1.021   8.368  21.058  0.00  0.00    +0.000 C 
ATOM     18  O   UNL     1       0.784   7.328  21.664  0.00  0.00    +0.000 OA
ATOM     19  N   UNL     1       1.795   8.494  19.923  0.00  0.00    +0.000 N 
ATOM     20  H   UNL     1       1.969   9.430  19.581  0.00  0.00    +0.000 HD
BRANCH  19  21
ATOM     21  C   UNL     1       2.422   7.467  19.181  0.00  0.00    +0.000 A 
ATOM     22  C   UNL     1       3.062   7.659  17.956  0.00  0.00    +0.000 A 
ATOM     23  C   UNL     1       3.630   6.580  17.267  0.00  0.00    +0.000 A 
ATOM     24  C   UNL     1       3.591   5.292  17.812  0.00  0.00    +0.000 A 
ATOM     25  C   UNL     1       3.034   5.118  19.082  0.00  0.00    +0.000 A 
ATOM     26  C   UNL     1       2.419   6.186  19.746  0.00  0.00    +0.000 A 
ATOM     27  N   UNL     1       3.219   3.905  19.765  0.00  0.00    +0.000 N 
ATOM     28  C   UNL     1       4.088   2.963  19.273  0.00  0.00    +0.000 C 
ATOM     29  O   UNL     1       4.780   2.262  20.002  0.00  0.00    +0.000 OA
ATOM     30  C   UNL     1       4.012   2.803  17.778  0.00  0.00    +0.000 C 
ATOM     31  C   UNL     1       4.194   4.132  17.064  0.00  0.00    +0.000 C 
ATOM     32  H   UNL     1       3.050   3.877  20.762  0.00  0.00    +0.000 HD
ENDBRANCH  19  21
ENDBRANCH   5  17
TORSDOF 4
ENDMDL
MODEL 7
REMARK VINA RESULT:      -8.1      3.794      5.439
REMARK  Name = 
REMARK  5 active torsions:
REMARK  status: ('A' for Active; 'I' for Inactive)
REMARK    1  A    between atoms: C_1  and  N_2
REMARK    2  A    between atoms: N_2  and  C_25
REMARK    3  A    between atoms: C_3  and  C_5
REMARK    4  A    between atoms: C_9  and  C_10
REMARK    5  A    between atoms: N_12  and  C_13
REMARK                            x       y       z     vdW  Elec       q    Type
REMARK                         _______ _______ _______ _____ _____    ______ ____
ROOT
ATOM      1  C   UNL     1      -0.984  12.008  18.851  0.00  0.00    +0.000 A 
ATOM      2  C   UNL     1      -0.078  13.060  18.691  0.00  0.00    +0.000 A 
ATOM      3  C   UNL     1       1.283  12.799  18.486  0.00  0.00    +0.000 A 
ATOM      4  C   UNL     1       1.769  11.492  18.550  0.00  0.00    +0.000 A 
ATOM      5  C   UNL     1       0.906  10.433  18.827  0.00  0.00    +0.000 A 
ATOM      6  C   UNL     1      -0.467  10.697  18.969  0.00  0.00    +0.000 A 
ENDROOT
BRANCH   1   9
ATOM      7  C   UNL     1      -3.009  10.762  16.942  0.00  0.00    +0.000 C 
ATOM      8  N   UNL     1      -3.399  11.642  18.049  0.00  0.00    +0.000 N 
ATOM      9  C   UNL     1      -2.483  12.172  18.990  0.00  0.00    +0.000 C 
ATOM     10  O   UNL     1      -2.808  12.732  20.034  0.00  0.00    +0.000 OA
BRANCH   8  11
ATOM     11  C   UNL     1      -4.837  11.890  18.184  0.00  0.00    +0.000 A 
ATOM     12  C   UNL     1      -5.605  12.441  17.147  0.00  0.00    +0.000 A 
ATOM     13  C   UNL     1      -6.969  12.727  17.304  0.00  0.00    +0.000 A 
ATOM     14  C   UNL     1      -7.615  12.452  18.502  0.00  0.00    +0.000 A 
ATOM     15  C   UNL     1      -6.898  11.869  19.536  0.00  0.00    +0.000 A 
ATOM     16  C   UNL     1      -5.532  11.586  19.374  0.00  0.00    +0.000 A 
ENDBRANCH   8  11
ENDBRANCH   1   9
BRANCH   5  17
ATOM     17  C   UNL     1       1.495   9.066  19.037  0.00  0.00    +0.000 C 
ATOM     18  O   UNL     1       1.441   8.588  20.165  0.00  0.00    +0.000 OA
ATOM     19  N   UNL     1       2.076   8.482  17.930  0.00  0.00    +0.000 N 
ATOM     20  H   UNL     1       2.117   9.032  17.082  0.00  0.00    +0.000 HD
BRANCH  19  21
ATOM     21  C   UNL     1       2.670   7.203  17.834  0.00  0.00    +0.000 A 
ATOM     22  C   UNL     1       4.020   6.980  17.559  0.00  0.00    +0.000 A 
ATOM     23  C   UNL     1       4.522   5.677  17.445  0.00  0.00    +0.000 A 
ATOM     24  C   UNL     1       3.683   4.575  17.637  0.00  0.00    +0.000 A 
ATOM     25  C   UNL     1       2.354   4.800  18.006  0.00  0.00    +0.000 A 
ATOM     26  C   UNL     1       1.839   6.100  18.066  0.00  0.00    +0.000 A 
ATOM     27  N   UNL     1       1.566   3.732  18.463  0.00  0.00    +0.000 N 
ATOM     28  C   UNL     1       2.141   2.512  18.720  0.00  0.00    +0.000 C 
ATOM     29  O   UNL     1       1.777   1.794  19.645  0.00  0.00    +0.000 OA
ATOM     30  C   UNL     1       3.162   2.105  17.692  0.00  0.00    +0.000 C 
ATOM     31  C   UNL     1       4.224   3.176  17.505  0.00  0.00    +0.000 C 
ATOM     32  H   UNL     1       0.714   3.937  18.968  0.00  0.00    +0.000 HD
ENDBRANCH  19  21
ENDBRANCH   5  17
TORSDOF 4
ENDMDL
MODEL 8
REMARK VINA RESULT:      -8.1      3.629      5.353
REMARK  Name = 
REMARK  5 active torsions:
REMARK  status: ('A' for Active; 'I' for Inactive)
REMARK    1  A    between atoms: C_1  and  N_2
REMARK    2  A    between atoms: N_2  and  C_25
REMARK    3  A    between atoms: C_3  and  C_5
REMARK    4  A    between atoms: C_9  and  C_10
REMARK    5  A    between atoms: N_12  and  C_13
REMARK                            x       y       z     vdW  Elec       q    Type
REMARK                         _______ _______ _______ _____ _____    ______ ____
ROOT
ATOM      1  C   UNL     1      -0.991  11.811  18.455  0.00  0.00    +0.000 A 
ATOM      2  C   UNL     1      -0.135  12.913  18.517  0.00  0.00    +0.000 A 
ATOM      3  C   UNL     1       1.253  12.732  18.560  0.00  0.00    +0.000 A 
ATOM      4  C   UNL     1       1.795  11.448  18.654  0.00  0.00    +0.000 A 
ATOM      5  C   UNL     1       0.959  10.334  18.714  0.00  0.00    +0.000 A 
ATOM      6  C   UNL     1      -0.429  10.521  18.608  0.00  0.00    +0.000 A 
ENDROOT
BRANCH   1   9
ATOM      7  C   UNL     1      -2.856  12.667  20.712  0.00  0.00    +0.000 C 
ATOM      8  N   UNL     1      -3.347  12.223  19.402  0.00  0.00    +0.000 N 
ATOM      9  C   UNL     1      -2.497  11.892  18.318  0.00  0.00    +0.000 C 
ATOM     10  O   UNL     1      -2.882  11.722  17.163  0.00  0.00    +0.000 OA
BRANCH   8  11
ATOM     11  C   UNL     1      -4.803  12.214  19.241  0.00  0.00    +0.000 A 
ATOM     12  C   UNL     1      -5.491  11.125  18.687  0.00  0.00    +0.000 A 
ATOM     13  C   UNL     1      -6.879  11.148  18.485  0.00  0.00    +0.000 A 
ATOM     14  C   UNL     1      -7.628  12.258  18.850  0.00  0.00    +0.000 A 
ATOM     15  C   UNL     1      -6.988  13.338  19.440  0.00  0.00    +0.000 A 
ATOM     16  C   UNL     1      -5.597  13.311  19.638  0.00  0.00    +0.000 A 
ENDBRANCH   8  11
ENDBRANCH   1   9
BRANCH   5  17
ATOM     17  C   UNL     1       1.579   8.988  18.967  0.00  0.00    +0.000 C 
ATOM     18  O   UNL     1       1.593   8.574  20.121  0.00  0.00    +0.000 OA
ATOM     19  N   UNL     1       2.108   8.349  17.865  0.00  0.00    +0.000 N 
ATOM     20  H   UNL     1       2.095   8.852  16.986  0.00  0.00    +0.000 HD
BRANCH  19  21
ATOM     21  C   UNL     1       2.715   7.074  17.807  0.00  0.00    +0.000 A 
ATOM     22  C   UNL     1       4.077   6.858  17.595  0.00  0.00    +0.000 A 
ATOM     23  C   UNL     1       4.594   5.558  17.517  0.00  0.00    +0.000 A 
ATOM     24  C   UNL     1       3.754   4.452  17.682  0.00  0.00    +0.000 A 
ATOM     25  C   UNL     1       2.408   4.670  17.989  0.00  0.00    +0.000 A 
ATOM     26  C   UNL     1       1.882   5.967  18.013  0.00  0.00    +0.000 A 
ATOM     27  N   UNL     1       1.608   3.601  18.421  0.00  0.00    +0.000 N 
ATOM     28  C   UNL     1       2.180   2.388  18.715  0.00  0.00    +0.000 C 
ATOM     29  O   UNL     1       1.781   1.676  19.630  0.00  0.00    +0.000 OA
ATOM     30  C   UNL     1       3.249   1.979  17.738  0.00  0.00    +0.000 C 
ATOM     31  C   UNL     1       4.311   3.056  17.588  0.00  0.00    +0.000 C 
ATOM     32  H   UNL     1       0.733   3.805  18.886  0.00  0.00    +0.000 HD
ENDBRANCH  19  21
ENDBRANCH   5  17
TORSDOF 4
ENDMDL
MODEL 9
REMARK VINA RESULT:      -8.1      1.343      1.650
REMARK  Name = 
REMARK  5 active torsions:
REMARK  status: ('A' for Active; 'I' for Inactive)
REMARK    1  A    between atoms: C_1  and  N_2
REMARK    2  A    between atoms: N_2  and  C_25
REMARK    3  A    between atoms: C_3  and  C_5
REMARK    4  A    between atoms: C_9  and  C_10
REMARK    5  A    between atoms: N_12  and  C_13
REMARK                            x       y       z     vdW  Elec       q    Type
REMARK                         _______ _______ _______ _____ _____    ______ ____
ROOT
ATOM      1  C   UNL     1       0.184  11.992  19.639  0.00  0.00    +0.000 A 
ATOM      2  C   UNL     1      -0.306  11.474  20.841  0.00  0.00    +0.000 A 
ATOM      3  C   UNL     1       0.052  10.186  21.257  0.00  0.00    +0.000 A 
ATOM      4  C   UNL     1       0.812   9.361  20.426  0.00  0.00    +0.000 A 
ATOM      5  C   UNL     1       1.214   9.809  19.169  0.00  0.00    +0.000 A 
ATOM      6  C   UNL     1       0.904  11.124  18.785  0.00  0.00    +0.000 A 
ENDROOT
BRANCH   1   9
ATOM      7  C   UNL     1       1.612  14.459  20.724  0.00  0.00    +0.000 C 
ATOM      8  N   UNL     1       0.557  14.536  19.707  0.00  0.00    +0.000 N 
ATOM      9  C   UNL     1      -0.067  13.399  19.137  0.00  0.00    +0.000 C 
ATOM     10  O   UNL     1      -0.794  13.431  18.146  0.00  0.00    +0.000 OA
BRANCH   8  11
ATOM     11  C   UNL     1       0.226  15.884  19.238  0.00  0.00    +0.000 A 
ATOM     12  C   UNL     1       1.123  16.662  18.493  0.00  0.00    +0.000 A 
ATOM     13  C   UNL     1       0.819  17.973  18.096  0.00  0.00    +0.000 A 
ATOM     14  C   UNL     1      -0.406  18.541  18.418  0.00  0.00    +0.000 A 
ATOM     15  C   UNL     1      -1.336  17.787  19.118  0.00  0.00    +0.000 A 
ATOM     16  C   UNL     1      -1.025  16.476  19.514  0.00  0.00    +0.000 A 
ENDBRANCH   8  11
ENDBRANCH   1   9
BRANCH   5  17
ATOM     17  C   UNL     1       1.899   8.836  18.248  0.00  0.00    +0.000 C 
ATOM     18  O   UNL     1       2.073   9.179  17.084  0.00  0.00    +0.000 OA
ATOM     19  N   UNL     1       2.243   7.620  18.801  0.00  0.00    +0.000 N 
ATOM     20  H   UNL     1       1.962   7.449  19.758  0.00  0.00    +0.000 HD
BRANCH  19  21
ATOM     21  C   UNL     1       2.918   6.544  18.182  0.00  0.00    +0.000 A 
ATOM     22  C   UNL     1       2.408   5.248  18.080  0.00  0.00    +0.000 A 
ATOM     23  C   UNL     1       3.158   4.228  17.481  0.00  0.00    +0.000 A 
ATOM     24  C   UNL     1       4.421   4.499  16.944  0.00  0.00    +0.000 A 
ATOM     25  C   UNL     1       4.889   5.816  16.961  0.00  0.00    +0.000 A 
ATOM     26  C   UNL     1       4.164   6.824  17.608  0.00  0.00    +0.000 A 
ATOM     27  N   UNL     1       6.016   6.167  16.201  0.00  0.00    +0.000 N 
ATOM     28  C   UNL     1       6.550   5.272  15.307  0.00  0.00    +0.000 C 
ATOM     29  O   UNL     1       7.027   5.619  14.233  0.00  0.00    +0.000 OA
ATOM     30  C   UNL     1       6.594   3.861  15.829  0.00  0.00    +0.000 C 
ATOM     31  C   UNL     1       5.228   3.398  16.308  0.00  0.00    +0.000 C 
ATOM     32  H   UNL     1       6.188   7.144  16.008  0.00  0.00    +0.000 HD
ENDBRANCH  19  21
ENDBRANCH   5  17
TORSDOF 4
ENDMDL
