MODEL 1
REMARK VINA RESULT:      -8.7      0.000      0.000
REMARK  Name = 
REMARK  7 active torsions:
REMARK  status: ('A' for Active; 'I' for Inactive)
REMARK    1  A    between atoms: C_2  and  C_3
REMARK    2  A    between atoms: C_3  and  S_4
REMARK    3  A    between atoms: S_4  and  C_5
REMARK    4  A    between atoms: C_8  and  C_9
REMARK    5  A    between atoms: N_16  and  C_17
REMARK    6  A    between atoms: C_21  and  S_22
REMARK    7  A    between atoms: S_22  and  N_25
REMARK                            x       y       z     vdW  Elec       q    Type
REMARK                         _______ _______ _______ _____ _____    ______ ____
ROOT
ATOM      1  O   UNL     1       8.302   7.331  18.596  0.00  0.00    +0.000 OA
ATOM      2  C   UNL     1       7.753   8.055  17.767  0.00  0.00    +0.000 C 
ATOM      3  N   UNL     1       6.784   7.659  16.853  0.00  0.00    +0.000 N 
ATOM      4  H   UNL     1       6.629   8.280  16.058  0.00  0.00    +0.000 HD
ENDROOT
BRANCH   3   5
ATOM      5  C   UNL     1       6.236   6.359  16.754  0.00  0.00    +0.000 A 
ATOM      6  C   UNL     1       6.942   5.283  16.205  0.00  0.00    +0.000 A 
ATOM      7  C   UNL     1       6.329   4.045  16.008  0.00  0.00    +0.000 A 
ATOM      8  C   UNL     1       5.027   3.839  16.446  0.00  0.00    +0.000 A 
ATOM      9  C   UNL     1       4.361   4.865  17.120  0.00  0.00    +0.000 A 
ATOM     10  C   UNL     1       4.934   6.142  17.222  0.00  0.00    +0.000 A 
BRANCH   9  11
ATOM     11  S   UNL     1       2.751   4.537  17.809  0.00  0.00    +0.000 S 
ATOM     12  O   UNL     1       2.082   5.810  17.970  0.00  0.00    +0.000 OA
ATOM     13  O   UNL     1       2.156   3.467  17.036  0.00  0.00    +0.000 OA
BRANCH  11  14
ATOM     14  N   UNL     1       3.076   3.906  19.347  0.00  0.00    +0.000 NA
ATOM     15  C   UNL     1       2.849   2.481  19.627  0.00  0.00    +0.000 C 
ATOM     16  C   UNL     1       1.714   2.470  20.632  0.00  0.00    +0.000 C 
ATOM     17  C   UNL     1       1.914   3.740  21.441  0.00  0.00    +0.000 C 
ATOM     18  C   UNL     1       2.715   4.689  20.548  0.00  0.00    +0.000 C 
ENDBRANCH  11  14
ENDBRANCH   9  11
ENDBRANCH   3   5
BRANCH   2  19
ATOM     19  C   UNL     1       8.152   9.517  17.659  0.00  0.00    +0.000 C 
BRANCH  19  20
ATOM     20  S   UNL     1       9.162  10.002  19.085  0.00  0.00    +0.000 S 
BRANCH  20  21
ATOM     21  C   UNL     1       9.983  11.364  18.447  0.00  0.00    +0.000 A 
ATOM     22  N   UNL     1      11.130  11.419  17.819  0.00  0.00    +0.000 NA
ATOM     23  N   UNL     1      11.360  12.748  17.525  0.00  0.00    +0.000 NA
ATOM     24  C   UNL     1      10.347  13.470  17.986  0.00  0.00    +0.000 A 
ATOM     25  N   UNL     1       9.458  12.606  18.580  0.00  0.00    +0.000 N 
ATOM     26  H   UNL     1       8.597  12.836  19.044  0.00  0.00    +0.000 HD
BRANCH  24  27
ATOM     27  C   UNL     1      10.163  14.919  17.904  0.00  0.00    +0.000 A 
ATOM     28  C   UNL     1      11.142  15.712  17.278  0.00  0.00    +0.000 A 
ATOM     29  C   UNL     1      10.990  17.100  17.185  0.00  0.00    +0.000 A 
ATOM     30  C   UNL     1       9.860  17.716  17.717  0.00  0.00    +0.000 A 
ATOM     31  C   UNL     1       8.882  16.950  18.344  0.00  0.00    +0.000 A 
ATOM     32  C   UNL     1       9.034  15.564  18.439  0.00  0.00    +0.000 A 
ENDBRANCH  24  27
ENDBRANCH  20  21
ENDBRANCH  19  20
ENDBRANCH   2  19
TORSDOF 7
ENDMDL
MODEL 2
REMARK VINA RESULT:      -8.6      6.964      9.824
REMARK  Name = 
REMARK  7 active torsions:
REMARK  status: ('A' for Active; 'I' for Inactive)
REMARK    1  A    between atoms: C_2  and  C_3
REMARK    2  A    between atoms: C_3  and  S_4
REMARK    3  A    between atoms: S_4  and  C_5
REMARK    4  A    between atoms: C_8  and  C_9
REMARK    5  A    between atoms: N_16  and  C_17
REMARK    6  A    between atoms: C_21  and  S_22
REMARK    7  A    between atoms: S_22  and  N_25
REMARK                            x       y       z     vdW  Elec       q    Type
REMARK                         _______ _______ _______ _____ _____    ______ ____
ROOT
ATOM      1  O   UNL     1       0.511   4.800  20.449  0.00  0.00    +0.000 OA
ATOM      2  C   UNL     1       1.710   4.841  20.719  0.00  0.00    +0.000 C 
ATOM      3  N   UNL     1       2.581   5.878  20.402  0.00  0.00    +0.000 N 
ATOM      4  H   UNL     1       3.577   5.659  20.433  0.00  0.00    +0.000 HD
ENDROOT
BRANCH   3   5
ATOM      5  C   UNL     1       2.219   7.080  19.751  0.00  0.00    +0.000 A 
ATOM      6  C   UNL     1       2.454   7.299  18.389  0.00  0.00    +0.000 A 
ATOM      7  C   UNL     1       2.200   8.541  17.806  0.00  0.00    +0.000 A 
ATOM      8  C   UNL     1       1.617   9.553  18.557  0.00  0.00    +0.000 A 
ATOM      9  C   UNL     1       1.250   9.300  19.881  0.00  0.00    +0.000 A 
ATOM     10  C   UNL     1       1.604   8.090  20.500  0.00  0.00    +0.000 A 
BRANCH   9  11
ATOM     11  S   UNL     1       0.367  10.555  20.784  0.00  0.00    +0.000 S 
ATOM     12  O   UNL     1      -0.608   9.883  21.616  0.00  0.00    +0.000 OA
ATOM     13  O   UNL     1       1.348  11.455  21.354  0.00  0.00    +0.000 OA
BRANCH  11  14
ATOM     14  N   UNL     1      -0.459  11.426  19.590  0.00  0.00    +0.000 NA
ATOM     15  C   UNL     1      -0.659  12.875  19.732  0.00  0.00    +0.000 C 
ATOM     16  C   UNL     1      -2.157  13.036  19.895  0.00  0.00    +0.000 C 
ATOM     17  C   UNL     1      -2.750  11.913  19.061  0.00  0.00    +0.000 C 
ATOM     18  C   UNL     1      -1.663  10.842  18.962  0.00  0.00    +0.000 C 
ENDBRANCH  11  14
ENDBRANCH   9  11
ENDBRANCH   3   5
BRANCH   2  19
ATOM     19  C   UNL     1       2.365   3.671  21.431  0.00  0.00    +0.000 C 
BRANCH  19  20
ATOM     20  S   UNL     1       2.181   2.154  20.456  0.00  0.00    +0.000 S 
BRANCH  20  21
ATOM     21  C   UNL     1       2.572   2.730  18.891  0.00  0.00    +0.000 A 
ATOM     22  N   UNL     1       1.807   2.849  17.837  0.00  0.00    +0.000 NA
ATOM     23  N   UNL     1       2.599   3.345  16.821  0.00  0.00    +0.000 NA
ATOM     24  C   UNL     1       3.831   3.514  17.283  0.00  0.00    +0.000 A 
ATOM     25  N   UNL     1       3.836   3.125  18.601  0.00  0.00    +0.000 N 
ATOM     26  H   UNL     1       4.619   3.109  19.232  0.00  0.00    +0.000 HD
BRANCH  24  27
ATOM     27  C   UNL     1       5.002   4.015  16.564  0.00  0.00    +0.000 A 
ATOM     28  C   UNL     1       5.062   3.899  15.163  0.00  0.00    +0.000 A 
ATOM     29  C   UNL     1       6.170   4.371  14.450  0.00  0.00    +0.000 A 
ATOM     30  C   UNL     1       7.234   4.964  15.126  0.00  0.00    +0.000 A 
ATOM     31  C   UNL     1       7.196   5.085  16.511  0.00  0.00    +0.000 A 
ATOM     32  C   UNL     1       6.090   4.611  17.224  0.00  0.00    +0.000 A 
ENDBRANCH  24  27
ENDBRANCH  20  21
ENDBRANCH  19  20
ENDBRANCH   2  19
TORSDOF 7
ENDMDL
MODEL 3
REMARK VINA RESULT:      -8.6      6.422      9.217
REMARK  Name = 
REMARK  7 active torsions:
REMARK  status: ('A' for Active; 'I' for Inactive)
REMARK    1  A    between atoms: C_2  and  C_3
REMARK    2  A    between atoms: C_3  and  S_4
REMARK    3  A    between atoms: S_4  and  C_5
REMARK    4  A    between atoms: C_8  and  C_9
REMARK    5  A    between atoms: N_16  and  C_17
REMARK    6  A    between atoms: C_21  and  S_22
REMARK    7  A    between atoms: S_22  and  N_25
REMARK                            x       y       z     vdW  Elec       q    Type
REMARK                         _______ _______ _______ _____ _____    ______ ____
ROOT
ATOM      1  O   UNL     1       1.763   8.066  18.126  0.00  0.00    +0.000 OA
ATOM      2  C   UNL     1       1.996   7.630  19.253  0.00  0.00    +0.000 C 
ATOM      3  N   UNL     1       2.586   6.406  19.546  0.00  0.00    +0.000 N 
ATOM      4  H   UNL     1       2.462   6.059  20.498  0.00  0.00    +0.000 HD
ENDROOT
BRANCH   3   5
ATOM      5  C   UNL     1       3.055   5.474  18.591  0.00  0.00    +0.000 A 
ATOM      6  C   UNL     1       2.527   4.184  18.476  0.00  0.00    +0.000 A 
ATOM      7  C   UNL     1       3.095   3.248  17.610  0.00  0.00    +0.000 A 
ATOM      8  C   UNL     1       4.141   3.621  16.777  0.00  0.00    +0.000 A 
ATOM      9  C   UNL     1       4.585   4.946  16.786  0.00  0.00    +0.000 A 
ATOM     10  C   UNL     1       4.090   5.858  17.730  0.00  0.00    +0.000 A 
BRANCH   9  11
ATOM     11  S   UNL     1       5.822   5.446  15.606  0.00  0.00    +0.000 S 
ATOM     12  O   UNL     1       6.024   4.339  14.696  0.00  0.00    +0.000 OA
ATOM     13  O   UNL     1       5.456   6.761  15.121  0.00  0.00    +0.000 OA
BRANCH  11  14
ATOM     14  N   UNL     1       7.228   5.641  16.531  0.00  0.00    +0.000 NA
ATOM     15  C   UNL     1       7.645   4.595  17.475  0.00  0.00    +0.000 C 
ATOM     16  C   UNL     1       7.500   5.239  18.840  0.00  0.00    +0.000 C 
ATOM     17  C   UNL     1       7.816   6.705  18.600  0.00  0.00    +0.000 C 
ATOM     18  C   UNL     1       7.537   6.961  17.119  0.00  0.00    +0.000 C 
ENDBRANCH  11  14
ENDBRANCH   9  11
ENDBRANCH   3   5
BRANCH   2  19
ATOM     19  C   UNL     1       1.598   8.440  20.474  0.00  0.00    +0.000 C 
BRANCH  19  20
ATOM     20  S   UNL     1       0.731   9.952  19.973  0.00  0.00    +0.000 S 
BRANCH  20  21
ATOM     21  C   UNL     1      -0.044  10.378  21.441  0.00  0.00    +0.000 A 
ATOM     22  N   UNL     1      -0.124   9.705  22.560  0.00  0.00    +0.000 NA
ATOM     23  N   UNL     1      -0.868  10.470  23.434  0.00  0.00    +0.000 NA
ATOM     24  C   UNL     1      -1.227  11.591  22.822  0.00  0.00    +0.000 A 
ATOM     25  N   UNL     1      -0.713  11.551  21.549  0.00  0.00    +0.000 N 
ATOM     26  H   UNL     1      -0.822  12.237  20.822  0.00  0.00    +0.000 HD
BRANCH  24  27
ATOM     27  C   UNL     1      -2.022  12.695  23.360  0.00  0.00    +0.000 A 
ATOM     28  C   UNL     1      -3.389  12.504  23.628  0.00  0.00    +0.000 A 
ATOM     29  C   UNL     1      -4.173  13.543  24.143  0.00  0.00    +0.000 A 
ATOM     30  C   UNL     1      -3.603  14.789  24.395  0.00  0.00    +0.000 A 
ATOM     31  C   UNL     1      -2.253  15.000  24.132  0.00  0.00    +0.000 A 
ATOM     32  C   UNL     1      -1.470  13.962  23.616  0.00  0.00    +0.000 A 
ENDBRANCH  24  27
ENDBRANCH  20  21
ENDBRANCH  19  20
ENDBRANCH   2  19
TORSDOF 7
ENDMDL
MODEL 4
REMARK VINA RESULT:      -8.5      6.528      9.288
REMARK  Name = 
REMARK  7 active torsions:
REMARK  status: ('A' for Active; 'I' for Inactive)
REMARK    1  A    between atoms: C_2  and  C_3
REMARK    2  A    between atoms: C_3  and  S_4
REMARK    3  A    between atoms: S_4  and  C_5
REMARK    4  A    between atoms: C_8  and  C_9
REMARK    5  A    between atoms: N_16  and  C_17
REMARK    6  A    between atoms: C_21  and  S_22
REMARK    7  A    between atoms: S_22  and  N_25
REMARK                            x       y       z     vdW  Elec       q    Type
REMARK                         _______ _______ _______ _____ _____    ______ ____
ROOT
ATOM      1  O   UNL     1       2.020   7.681  19.576  0.00  0.00    +0.000 OA
ATOM      2  C   UNL     1       2.288   8.063  18.437  0.00  0.00    +0.000 C 
ATOM      3  N   UNL     1       3.173   7.448  17.559  0.00  0.00    +0.000 N 
ATOM      4  H   UNL     1       3.505   8.015  16.778  0.00  0.00    +0.000 HD
ENDROOT
BRANCH   3   5
ATOM      5  C   UNL     1       3.884   6.253  17.817  0.00  0.00    +0.000 A 
ATOM      6  C   UNL     1       5.258   6.236  18.082  0.00  0.00    +0.000 A 
ATOM      7  C   UNL     1       5.951   5.032  18.208  0.00  0.00    +0.000 A 
ATOM      8  C   UNL     1       5.262   3.827  18.166  0.00  0.00    +0.000 A 
ATOM      9  C   UNL     1       3.870   3.838  18.041  0.00  0.00    +0.000 A 
ATOM     10  C   UNL     1       3.185   5.040  17.805  0.00  0.00    +0.000 A 
BRANCH   9  11
ATOM     11  S   UNL     1       2.985   2.296  18.141  0.00  0.00    +0.000 S 
ATOM     12  O   UNL     1       1.992   2.298  17.089  0.00  0.00    +0.000 OA
ATOM     13  O   UNL     1       3.967   1.236  18.246  0.00  0.00    +0.000 OA
BRANCH  11  14
ATOM     14  N   UNL     1       2.185   2.369  19.632  0.00  0.00    +0.000 NA
ATOM     15  C   UNL     1       0.825   2.919  19.718  0.00  0.00    +0.000 C 
ATOM     16  C   UNL     1       0.981   4.188  20.533  0.00  0.00    +0.000 C 
ATOM     17  C   UNL     1       2.114   3.879  21.497  0.00  0.00    +0.000 C 
ATOM     18  C   UNL     1       2.934   2.766  20.843  0.00  0.00    +0.000 C 
ENDBRANCH  11  14
ENDBRANCH   9  11
ENDBRANCH   3   5
BRANCH   2  19
ATOM     19  C   UNL     1       1.652   9.332  17.896  0.00  0.00    +0.000 C 
BRANCH  19  20
ATOM     20  S   UNL     1       0.671  10.145  19.186  0.00  0.00    +0.000 S 
BRANCH  20  21
ATOM     21  C   UNL     1      -0.836  10.307  18.387  0.00  0.00    +0.000 A 
ATOM     22  N   UNL     1      -1.233   9.786  17.255  0.00  0.00    +0.000 NA
ATOM     23  N   UNL     1      -2.521  10.232  17.040  0.00  0.00    +0.000 NA
ATOM     24  C   UNL     1      -2.876  11.017  18.047  0.00  0.00    +0.000 A 
ATOM     25  N   UNL     1      -1.814  11.081  18.918  0.00  0.00    +0.000 N 
ATOM     26  H   UNL     1      -1.751  11.609  19.771  0.00  0.00    +0.000 HD
BRANCH  24  27
ATOM     27  C   UNL     1      -4.148  11.712  18.243  0.00  0.00    +0.000 A 
ATOM     28  C   UNL     1      -5.060  11.811  17.176  0.00  0.00    +0.000 A 
ATOM     29  C   UNL     1      -6.284  12.470  17.336  0.00  0.00    +0.000 A 
ATOM     30  C   UNL     1      -6.615  13.041  18.563  0.00  0.00    +0.000 A 
ATOM     31  C   UNL     1      -5.725  12.958  19.629  0.00  0.00    +0.000 A 
ATOM     32  C   UNL     1      -4.501  12.302  19.469  0.00  0.00    +0.000 A 
ENDBRANCH  24  27
ENDBRANCH  20  21
ENDBRANCH  19  20
ENDBRANCH   2  19
TORSDOF 7
ENDMDL
MODEL 5
REMARK VINA RESULT:      -8.4      6.539      9.035
REMARK  Name = 
REMARK  7 active torsions:
REMARK  status: ('A' for Active; 'I' for Inactive)
REMARK    1  A    between atoms: C_2  and  C_3
REMARK    2  A    between atoms: C_3  and  S_4
REMARK    3  A    between atoms: S_4  and  C_5
REMARK    4  A    between atoms: C_8  and  C_9
REMARK    5  A    between atoms: N_16  and  C_17
REMARK    6  A    between atoms: C_21  and  S_22
REMARK    7  A    between atoms: S_22  and  N_25
REMARK                            x       y       z     vdW  Elec       q    Type
REMARK                         _______ _______ _______ _____ _____    ______ ____
ROOT
ATOM      1  O   UNL     1       2.131   8.758  17.008  0.00  0.00    +0.000 OA
ATOM      2  C   UNL     1       1.911   8.684  18.216  0.00  0.00    +0.000 C 
ATOM      3  N   UNL     1       2.208   7.600  19.034  0.00  0.00    +0.000 N 
ATOM      4  H   UNL     1       1.725   7.564  19.932  0.00  0.00    +0.000 HD
ENDROOT
BRANCH   3   5
ATOM      5  C   UNL     1       2.854   6.413  18.616  0.00  0.00    +0.000 A 
ATOM      6  C   UNL     1       2.521   5.155  19.128  0.00  0.00    +0.000 A 
ATOM      7  C   UNL     1       3.261   4.021  18.790  0.00  0.00    +0.000 A 
ATOM      8  C   UNL     1       4.285   4.116  17.857  0.00  0.00    +0.000 A 
ATOM      9  C   UNL     1       4.535   5.342  17.235  0.00  0.00    +0.000 A 
ATOM     10  C   UNL     1       3.866   6.503  17.654  0.00  0.00    +0.000 A 
BRANCH   9  11
ATOM     11  S   UNL     1       5.747   5.415  15.932  0.00  0.00    +0.000 S 
ATOM     12  O   UNL     1       5.786   4.112  15.305  0.00  0.00    +0.000 OA
ATOM     13  O   UNL     1       5.488   6.613  15.162  0.00  0.00    +0.000 OA
BRANCH  11  14
ATOM     14  N   UNL     1       7.215   5.663  16.741  0.00  0.00    +0.000 NA
ATOM     15  C   UNL     1       7.658   4.723  17.780  0.00  0.00    +0.000 C 
ATOM     16  C   UNL     1       7.622   5.532  19.062  0.00  0.00    +0.000 C 
ATOM     17  C   UNL     1       7.969   6.945  18.625  0.00  0.00    +0.000 C 
ATOM     18  C   UNL     1       7.604   7.031  17.143  0.00  0.00    +0.000 C 
ENDBRANCH  11  14
ENDBRANCH   9  11
ENDBRANCH   3   5
BRANCH   2  19
ATOM     19  C   UNL     1       1.224   9.836  18.930  0.00  0.00    +0.000 C 
BRANCH  19  20
ATOM     20  S   UNL     1       0.895   9.400  20.659  0.00  0.00    +0.000 S 
BRANCH  20  21
ATOM     21  C   UNL     1       0.474  10.932  21.300  0.00  0.00    +0.000 A 
ATOM     22  N   UNL     1       1.105  12.074  21.199  0.00  0.00    +0.000 NA
ATOM     23  N   UNL     1       0.366  13.002  21.904  0.00  0.00    +0.000 NA
ATOM     24  C   UNL     1      -0.697  12.400  22.421  0.00  0.00    +0.000 A 
ATOM     25  N   UNL     1      -0.646  11.078  22.050  0.00  0.00    +0.000 N 
ATOM     26  H   UNL     1      -1.291  10.347  22.295  0.00  0.00    +0.000 HD
BRANCH  24  27
ATOM     27  C   UNL     1      -1.755  12.989  23.242  0.00  0.00    +0.000 A 
ATOM     28  C   UNL     1      -2.982  12.317  23.385  0.00  0.00    +0.000 A 
ATOM     29  C   UNL     1      -4.010  12.857  24.166  0.00  0.00    +0.000 A 
ATOM     30  C   UNL     1      -3.829  14.078  24.812  0.00  0.00    +0.000 A 
ATOM     31  C   UNL     1      -2.624  14.761  24.679  0.00  0.00    +0.000 A 
ATOM     32  C   UNL     1      -1.597  14.222  23.898  0.00  0.00    +0.000 A 
ENDBRANCH  24  27
ENDBRANCH  20  21
ENDBRANCH  19  20
ENDBRANCH   2  19
TORSDOF 7
ENDMDL
MODEL 6
REMARK VINA RESULT:      -8.3      6.512      9.289
REMARK  Name = 
REMARK  7 active torsions:
REMARK  status: ('A' for Active; 'I' for Inactive)
REMARK    1  A    between atoms: C_2  and  C_3
REMARK    2  A    between atoms: C_3  and  S_4
REMARK    3  A    between atoms: S_4  and  C_5
REMARK    4  A    between atoms: C_8  and  C_9
REMARK    5  A    between atoms: N_16  and  C_17
REMARK    6  A    between atoms: C_21  and  S_22
REMARK    7  A    between atoms: S_22  and  N_25
REMARK                            x       y       z     vdW  Elec       q    Type
REMARK                         _______ _______ _______ _____ _____    ______ ____
ROOT
ATOM      1  O   UNL     1       1.617   4.560  18.822  0.00  0.00    +0.000 OA
ATOM      2  C   UNL     1       2.153   4.911  19.872  0.00  0.00    +0.000 C 
ATOM      3  N   UNL     1       2.517   6.211  20.206  0.00  0.00    +0.000 N 
ATOM      4  H   UNL     1       3.192   6.312  20.965  0.00  0.00    +0.000 HD
ENDROOT
BRANCH   3   5
ATOM      5  C   UNL     1       2.291   7.355  19.406  0.00  0.00    +0.000 A 
ATOM      6  C   UNL     1       2.875   7.520  18.145  0.00  0.00    +0.000 A 
ATOM      7  C   UNL     1       2.733   8.713  17.437  0.00  0.00    +0.000 A 
ATOM      8  C   UNL     1       1.923   9.724  17.937  0.00  0.00    +0.000 A 
ATOM      9  C   UNL     1       1.224   9.515  19.129  0.00  0.00    +0.000 A 
ATOM     10  C   UNL     1       1.451   8.362  19.896  0.00  0.00    +0.000 A 
BRANCH   9  11
ATOM     11  S   UNL     1       0.074  10.758  19.681  0.00  0.00    +0.000 S 
ATOM     12  O   UNL     1      -0.724  10.171  20.735  0.00  0.00    +0.000 OA
ATOM     13  O   UNL     1       0.821  11.980  19.895  0.00  0.00    +0.000 OA
BRANCH  11  14
ATOM     14  N   UNL     1      -0.926  11.027  18.340  0.00  0.00    +0.000 NA
ATOM     15  C   UNL     1      -1.924  12.105  18.363  0.00  0.00    +0.000 C 
ATOM     16  C   UNL     1      -3.258  11.385  18.330  0.00  0.00    +0.000 C 
ATOM     17  C   UNL     1      -2.993  10.138  17.504  0.00  0.00    +0.000 C 
ATOM     18  C   UNL     1      -1.491   9.873  17.608  0.00  0.00    +0.000 C 
ENDBRANCH  11  14
ENDBRANCH   9  11
ENDBRANCH   3   5
BRANCH   2  19
ATOM     19  C   UNL     1       2.505   3.874  20.924  0.00  0.00    +0.000 C 
BRANCH  19  20
ATOM     20  S   UNL     1       3.372   2.474  20.166  0.00  0.00    +0.000 S 
BRANCH  20  21
ATOM     21  C   UNL     1       4.598   3.292  19.293  0.00  0.00    +0.000 A 
ATOM     22  N   UNL     1       5.597   4.007  19.742  0.00  0.00    +0.000 NA
ATOM     23  N   UNL     1       6.289   4.465  18.639  0.00  0.00    +0.000 NA
ATOM     24  C   UNL     1       5.689   4.018  17.543  0.00  0.00    +0.000 A 
ATOM     25  N   UNL     1       4.607   3.270  17.937  0.00  0.00    +0.000 N 
ATOM     26  H   UNL     1       3.933   2.810  17.351  0.00  0.00    +0.000 HD
BRANCH  24  27
ATOM     27  C   UNL     1       6.070   4.252  16.150  0.00  0.00    +0.000 A 
ATOM     28  C   UNL     1       5.383   3.588  15.118  0.00  0.00    +0.000 A 
ATOM     29  C   UNL     1       5.725   3.794  13.777  0.00  0.00    +0.000 A 
ATOM     30  C   UNL     1       6.761   4.666  13.447  0.00  0.00    +0.000 A 
ATOM     31  C   UNL     1       7.456   5.329  14.453  0.00  0.00    +0.000 A 
ATOM     32  C   UNL     1       7.115   5.122  15.793  0.00  0.00    +0.000 A 
ENDBRANCH  24  27
ENDBRANCH  20  21
ENDBRANCH  19  20
ENDBRANCH   2  19
TORSDOF 7
ENDMDL
MODEL 7
REMARK VINA RESULT:      -8.3      6.457      9.927
REMARK  Name = 
REMARK  7 active torsions:
REMARK  status: ('A' for Active; 'I' for Inactive)
REMARK    1  A    between atoms: C_2  and  C_3
REMARK    2  A    between atoms: C_3  and  S_4
REMARK    3  A    between atoms: S_4  and  C_5
REMARK    4  A    between atoms: C_8  and  C_9
REMARK    5  A    between atoms: N_16  and  C_17
REMARK    6  A    between atoms: C_21  and  S_22
REMARK    7  A    between atoms: S_22  and  N_25
REMARK                            x       y       z     vdW  Elec       q    Type
REMARK                         _______ _______ _______ _____ _____    ______ ____
ROOT
ATOM      1  O   UNL     1       0.427   5.018  20.355  0.00  0.00    +0.000 OA
ATOM      2  C   UNL     1       1.610   5.069  20.688  0.00  0.00    +0.000 C 
ATOM      3  N   UNL     1       2.501   6.089  20.376  0.00  0.00    +0.000 N 
ATOM      4  H   UNL     1       3.493   5.870  20.471  0.00  0.00    +0.000 HD
ENDROOT
BRANCH   3   5
ATOM      5  C   UNL     1       2.181   7.263  19.654  0.00  0.00    +0.000 A 
ATOM      6  C   UNL     1       2.473   7.415  18.295  0.00  0.00    +0.000 A 
ATOM      7  C   UNL     1       2.259   8.630  17.644  0.00  0.00    +0.000 A 
ATOM      8  C   UNL     1       1.657   9.683  18.322  0.00  0.00    +0.000 A 
ATOM      9  C   UNL     1       1.234   9.496  19.640  0.00  0.00    +0.000 A 
ATOM     10  C   UNL     1       1.547   8.314  20.329  0.00  0.00    +0.000 A 
BRANCH   9  11
ATOM     11  S   UNL     1       0.329  10.801  20.446  0.00  0.00    +0.000 S 
ATOM     12  O   UNL     1      -1.013  10.795  19.904  0.00  0.00    +0.000 OA
ATOM     13  O   UNL     1       0.566  10.681  21.870  0.00  0.00    +0.000 OA
BRANCH  11  14
ATOM     14  N   UNL     1       1.103  12.220  19.940  0.00  0.00    +0.000 NA
ATOM     15  C   UNL     1       1.362  13.306  20.897  0.00  0.00    +0.000 C 
ATOM     16  C   UNL     1       0.486  14.447  20.419  0.00  0.00    +0.000 C 
ATOM     17  C   UNL     1       0.449  14.287  18.908  0.00  0.00    +0.000 C 
ATOM     18  C   UNL     1       0.756  12.814  18.632  0.00  0.00    +0.000 C 
ENDBRANCH  11  14
ENDBRANCH   9  11
ENDBRANCH   3   5
BRANCH   2  19
ATOM     19  C   UNL     1       2.220   3.929  21.486  0.00  0.00    +0.000 C 
BRANCH  19  20
ATOM     20  S   UNL     1       2.012   2.359  20.604  0.00  0.00    +0.000 S 
BRANCH  20  21
ATOM     21  C   UNL     1       2.432   2.829  19.011  0.00  0.00    +0.000 A 
ATOM     22  N   UNL     1       1.702   2.821  17.925  0.00  0.00    +0.000 NA
ATOM     23  N   UNL     1       2.505   3.277  16.900  0.00  0.00    +0.000 NA
ATOM     24  C   UNL     1       3.708   3.549  17.387  0.00  0.00    +0.000 A 
ATOM     25  N   UNL     1       3.684   3.268  18.732  0.00  0.00    +0.000 N 
ATOM     26  H   UNL     1       4.442   3.346  19.388  0.00  0.00    +0.000 HD
BRANCH  24  27
ATOM     27  C   UNL     1       4.877   4.055  16.668  0.00  0.00    +0.000 A 
ATOM     28  C   UNL     1       5.162   3.576  15.377  0.00  0.00    +0.000 A 
ATOM     29  C   UNL     1       6.274   4.044  14.666  0.00  0.00    +0.000 A 
ATOM     30  C   UNL     1       7.118   4.994  15.237  0.00  0.00    +0.000 A 
ATOM     31  C   UNL     1       6.856   5.477  16.515  0.00  0.00    +0.000 A 
ATOM     32  C   UNL     1       5.747   5.008  17.226  0.00  0.00    +0.000 A 
ENDBRANCH  24  27
ENDBRANCH  20  21
ENDBRANCH  19  20
ENDBRANCH   2  19
TORSDOF 7
ENDMDL
MODEL 8
REMARK VINA RESULT:      -8.2      6.411      8.126
REMARK  Name = 
REMARK  7 active torsions:
REMARK  status: ('A' for Active; 'I' for Inactive)
REMARK    1  A    between atoms: C_2  and  C_3
REMARK    2  A    between atoms: C_3  and  S_4
REMARK    3  A    between atoms: S_4  and  C_5
REMARK    4  A    between atoms: C_8  and  C_9
REMARK    5  A    between atoms: N_16  and  C_17
REMARK    6  A    between atoms: C_21  and  S_22
REMARK    7  A    between atoms: S_22  and  N_25
REMARK                            x       y       z     vdW  Elec       q    Type
REMARK                         _______ _______ _______ _____ _____    ______ ____
ROOT
ATOM      1  O   UNL     1       2.064   7.812  19.559  0.00  0.00    +0.000 OA
ATOM      2  C   UNL     1       2.422   8.246  18.465  0.00  0.00    +0.000 C 
ATOM      3  N   UNL     1       3.343   7.648  17.613  0.00  0.00    +0.000 N 
ATOM      4  H   UNL     1       3.746   8.245  16.890  0.00  0.00    +0.000 HD
ENDROOT
BRANCH   3   5
ATOM      5  C   UNL     1       3.993   6.414  17.847  0.00  0.00    +0.000 A 
ATOM      6  C   UNL     1       5.359   6.324  18.132  0.00  0.00    +0.000 A 
ATOM      7  C   UNL     1       5.993   5.085  18.233  0.00  0.00    +0.000 A 
ATOM      8  C   UNL     1       5.249   3.916  18.146  0.00  0.00    +0.000 A 
ATOM      9  C   UNL     1       3.861   3.997  18.000  0.00  0.00    +0.000 A 
ATOM     10  C   UNL     1       3.238   5.236  17.789  0.00  0.00    +0.000 A 
BRANCH   9  11
ATOM     11  S   UNL     1       2.904   2.496  18.044  0.00  0.00    +0.000 S 
ATOM     12  O   UNL     1       1.862   2.619  17.047  0.00  0.00    +0.000 OA
ATOM     13  O   UNL     1       3.833   1.385  18.026  0.00  0.00    +0.000 OA
BRANCH  11  14
ATOM     14  N   UNL     1       2.182   2.504  19.576  0.00  0.00    +0.000 NA
ATOM     15  C   UNL     1       0.848   3.092  19.764  0.00  0.00    +0.000 C 
ATOM     16  C   UNL     1       1.090   4.303  20.644  0.00  0.00    +0.000 C 
ATOM     17  C   UNL     1       2.258   3.899  21.528  0.00  0.00    +0.000 C 
ATOM     18  C   UNL     1       3.004   2.802  20.768  0.00  0.00    +0.000 C 
ENDBRANCH  11  14
ENDBRANCH   9  11
ENDBRANCH   3   5
BRANCH   2  19
ATOM     19  C   UNL     1       1.868   9.567  17.959  0.00  0.00    +0.000 C 
BRANCH  19  20
ATOM     20  S   UNL     1       0.128   9.746  18.435  0.00  0.00    +0.000 S 
BRANCH  20  21
ATOM     21  C   UNL     1       0.264  10.857  19.732  0.00  0.00    +0.000 A 
ATOM     22  N   UNL     1       1.327  11.465  20.193  0.00  0.00    +0.000 NA
ATOM     23  N   UNL     1       0.913  12.242  21.256  0.00  0.00    +0.000 NA
ATOM     24  C   UNL     1      -0.394  12.083  21.419  0.00  0.00    +0.000 A 
ATOM     25  N   UNL     1      -0.828  11.202  20.458  0.00  0.00    +0.000 N 
ATOM     26  H   UNL     1      -1.761  10.854  20.321  0.00  0.00    +0.000 HD
BRANCH  24  27
ATOM     27  C   UNL     1      -1.259  12.707  22.420  0.00  0.00    +0.000 A 
ATOM     28  C   UNL     1      -2.509  12.135  22.715  0.00  0.00    +0.000 A 
ATOM     29  C   UNL     1      -3.356  12.711  23.669  0.00  0.00    +0.000 A 
ATOM     30  C   UNL     1      -2.966  13.868  24.341  0.00  0.00    +0.000 A 
ATOM     31  C   UNL     1      -1.735  14.452  24.060  0.00  0.00    +0.000 A 
ATOM     32  C   UNL     1      -0.890  13.878  23.106  0.00  0.00    +0.000 A 
ENDBRANCH  24  27
ENDBRANCH  20  21
ENDBRANCH  19  20
ENDBRANCH   2  19
TORSDOF 7
ENDMDL
MODEL 9
REMARK VINA RESULT:      -8.2      1.562      1.824
REMARK  Name = 
REMARK  7 active torsions:
REMARK  status: ('A' for Active; 'I' for Inactive)
REMARK    1  A    between atoms: C_2  and  C_3
REMARK    2  A    between atoms: C_3  and  S_4
REMARK    3  A    between atoms: S_4  and  C_5
REMARK    4  A    between atoms: C_8  and  C_9
REMARK    5  A    between atoms: N_16  and  C_17
REMARK    6  A    between atoms: C_21  and  S_22
REMARK    7  A    between atoms: S_22  and  N_25
REMARK                            x       y       z     vdW  Elec       q    Type
REMARK                         _______ _______ _______ _____ _____    ______ ____
ROOT
ATOM      1  O   UNL     1       8.246   7.096  18.703  0.00  0.00    +0.000 OA
ATOM      2  C   UNL     1       7.777   7.857  17.858  0.00  0.00    +0.000 C 
ATOM      3  N   UNL     1       6.820   7.527  16.905  0.00  0.00    +0.000 N 
ATOM      4  H   UNL     1       6.735   8.159  16.109  0.00  0.00    +0.000 HD
ENDROOT
BRANCH   3   5
ATOM      5  C   UNL     1       6.194   6.264  16.778  0.00  0.00    +0.000 A 
ATOM      6  C   UNL     1       6.833   5.163  16.198  0.00  0.00    +0.000 A 
ATOM      7  C   UNL     1       6.146   3.969  15.974  0.00  0.00    +0.000 A 
ATOM      8  C   UNL     1       4.837   3.829  16.415  0.00  0.00    +0.000 A 
ATOM      9  C   UNL     1       4.235   4.876  17.119  0.00  0.00    +0.000 A 
ATOM     10  C   UNL     1       4.885   6.113  17.249  0.00  0.00    +0.000 A 
BRANCH   9  11
ATOM     11  S   UNL     1       2.613   4.627  17.810  0.00  0.00    +0.000 S 
ATOM     12  O   UNL     1       2.108   5.924  18.205  0.00  0.00    +0.000 OA
ATOM     13  O   UNL     1       1.875   3.780  16.896  0.00  0.00    +0.000 OA
BRANCH  11  14
ATOM     14  N   UNL     1       2.890   3.713  19.208  0.00  0.00    +0.000 NA
ATOM     15  C   UNL     1       2.121   2.485  19.456  0.00  0.00    +0.000 C 
ATOM     16  C   UNL     1       1.282   2.805  20.678  0.00  0.00    +0.000 C 
ATOM     17  C   UNL     1       2.147   3.754  21.490  0.00  0.00    +0.000 C 
ATOM     18  C   UNL     1       3.113   4.400  20.497  0.00  0.00    +0.000 C 
ENDBRANCH  11  14
ENDBRANCH   9  11
ENDBRANCH   3   5
BRANCH   2  19
ATOM     19  C   UNL     1       8.271   9.291  17.775  0.00  0.00    +0.000 C 
BRANCH  19  20
ATOM     20  S   UNL     1       9.061   9.778  19.333  0.00  0.00    +0.000 S 
BRANCH  20  21
ATOM     21  C   UNL     1       9.517  11.389  18.971  0.00  0.00    +0.000 A 
ATOM     22  N   UNL     1       9.546  12.001  17.815  0.00  0.00    +0.000 NA
ATOM     23  N   UNL     1      10.001  13.282  18.052  0.00  0.00    +0.000 NA
ATOM     24  C   UNL     1      10.241  13.417  19.350  0.00  0.00    +0.000 A 
ATOM     25  N   UNL     1       9.941  12.220  19.954  0.00  0.00    +0.000 N 
ATOM     26  H   UNL     1      10.034  11.984  20.927  0.00  0.00    +0.000 HD
BRANCH  24  27
ATOM     27  C   UNL     1      10.736  14.599  20.056  0.00  0.00    +0.000 A 
ATOM     28  C   UNL     1      10.305  14.858  21.369  0.00  0.00    +0.000 A 
ATOM     29  C   UNL     1      10.764  15.980  22.068  0.00  0.00    +0.000 A 
ATOM     30  C   UNL     1      11.658  16.862  21.463  0.00  0.00    +0.000 A 
ATOM     31  C   UNL     1      12.093  16.626  20.163  0.00  0.00    +0.000 A 
ATOM     32  C   UNL     1      11.633  15.505  19.465  0.00  0.00    +0.000 A 
ENDBRANCH  24  27
ENDBRANCH  20  21
ENDBRANCH  19  20
ENDBRANCH   2  19
TORSDOF 7
ENDMDL
