MODEL 1
REMARK VINA RESULT:      -8.9      0.000      0.000
REMARK  Name = 
REMARK  5 active torsions:
REMARK  status: ('A' for Active; 'I' for Inactive)
REMARK    1  A    between atoms: C_2  and  C_3
REMARK    2  A    between atoms: C_3  and  N_4
REMARK    3  A    between atoms: N_18  and  O_19
REMARK    4  A    between atoms: O_19  and  C_20
REMARK    5  A    between atoms: C_20  and  C_21
REMARK                            x       y       z     vdW  Elec       q    Type
REMARK                         _______ _______ _______ _____ _____    ______ ____
ROOT
ATOM      1  N   UNL     1       6.419   5.561  17.752  0.00  0.00    +0.000 N 
ATOM      2  C   UNL     1       5.528   5.252  16.728  0.00  0.00    +0.000 A 
ATOM      3  N   UNL     1       4.343   4.729  16.848  0.00  0.00    +0.000 NA
ATOM      4  C   UNL     1       3.997   4.455  18.176  0.00  0.00    +0.000 A 
ATOM      5  C   UNL     1       4.832   4.702  19.227  0.00  0.00    +0.000 A 
ATOM      6  O   UNL     1       4.260   4.327  20.399  0.00  0.00    +0.000 OA
ATOM      7  C   UNL     1       3.027   3.825  20.067  0.00  0.00    +0.000 A 
ATOM      8  C   UNL     1       2.097   3.311  20.971  0.00  0.00    +0.000 A 
ATOM      9  C   UNL     1       0.894   2.842  20.431  0.00  0.00    +0.000 A 
ATOM     10  C   UNL     1       0.644   2.896  19.055  0.00  0.00    +0.000 A 
ATOM     11  C   UNL     1       1.596   3.418  18.168  0.00  0.00    +0.000 A 
ATOM     12  C   UNL     1       2.816   3.890  18.686  0.00  0.00    +0.000 A 
ATOM     13  C   UNL     1       6.136   5.266  19.089  0.00  0.00    +0.000 A 
ATOM     14  O   UNL     1       6.945   5.462  19.995  0.00  0.00    +0.000 OA
ENDROOT
BRANCH   1  15
ATOM     15  C   UNL     1       7.692   6.192  17.448  0.00  0.00    +0.000 C 
BRANCH  15  17
ATOM     16  O   UNL     1       6.719   8.315  16.900  0.00  0.00    +0.000 OA
ATOM     17  C   UNL     1       7.563   7.707  17.554  0.00  0.00    +0.000 C 
ATOM     18  N   UNL     1       8.493   8.280  18.395  0.00  0.00    +0.000 N 
ATOM     19  H   UNL     1       9.369   7.807  18.612  0.00  0.00    +0.000 HD
BRANCH  18  20
ATOM     20  O   UNL     1       8.460   9.697  18.454  0.00  0.00    +0.000 OA
BRANCH  20  21
ATOM     21  C   UNL     1       9.253  10.155  19.557  0.00  0.00    +0.000 C 
BRANCH  21  22
ATOM     22  C   UNL     1      10.288  11.166  19.120  0.00  0.00    +0.000 A 
ATOM     23  C   UNL     1      10.423  11.554  17.779  0.00  0.00    +0.000 A 
ATOM     24  C   UNL     1      11.373  12.509  17.405  0.00  0.00    +0.000 A 
ATOM     25  C   UNL     1      12.191  13.098  18.368  0.00  0.00    +0.000 A 
ATOM     26  C   UNL     1      12.051  12.741  19.707  0.00  0.00    +0.000 A 
ATOM     27  C   UNL     1      11.101  11.788  20.081  0.00  0.00    +0.000 A 
ENDBRANCH  21  22
ENDBRANCH  20  21
ENDBRANCH  18  20
ENDBRANCH  15  17
ENDBRANCH   1  15
TORSDOF 5
ENDMDL
MODEL 2
REMARK VINA RESULT:      -8.8      1.203      1.561
REMARK  Name = 
REMARK  5 active torsions:
REMARK  status: ('A' for Active; 'I' for Inactive)
REMARK    1  A    between atoms: C_2  and  C_3
REMARK    2  A    between atoms: C_3  and  N_4
REMARK    3  A    between atoms: N_18  and  O_19
REMARK    4  A    between atoms: O_19  and  C_20
REMARK    5  A    between atoms: C_20  and  C_21
REMARK                            x       y       z     vdW  Elec       q    Type
REMARK                         _______ _______ _______ _____ _____    ______ ____
ROOT
ATOM      1  N   UNL     1       6.002   5.950  17.527  0.00  0.00    +0.000 N 
ATOM      2  C   UNL     1       4.752   6.535  17.340  0.00  0.00    +0.000 A 
ATOM      3  N   UNL     1       3.625   6.167  17.874  0.00  0.00    +0.000 NA
ATOM      4  C   UNL     1       3.749   5.045  18.699  0.00  0.00    +0.000 A 
ATOM      5  C   UNL     1       4.935   4.400  18.902  0.00  0.00    +0.000 A 
ATOM      6  O   UNL     1       4.774   3.334  19.727  0.00  0.00    +0.000 OA
ATOM      7  C   UNL     1       3.439   3.311  20.045  0.00  0.00    +0.000 A 
ATOM      8  C   UNL     1       2.824   2.367  20.869  0.00  0.00    +0.000 A 
ATOM      9  C   UNL     1       1.447   2.513  21.068  0.00  0.00    +0.000 A 
ATOM     10  C   UNL     1       0.733   3.560  20.472  0.00  0.00    +0.000 A 
ATOM     11  C   UNL     1       1.375   4.495  19.649  0.00  0.00    +0.000 A 
ATOM     12  C   UNL     1       2.759   4.365  19.429  0.00  0.00    +0.000 A 
ATOM     13  C   UNL     1       6.168   4.802  18.306  0.00  0.00    +0.000 A 
ATOM     14  O   UNL     1       7.252   4.229  18.417  0.00  0.00    +0.000 OA
ENDROOT
BRANCH   1  15
ATOM     15  C   UNL     1       7.178   6.518  16.891  0.00  0.00    +0.000 C 
BRANCH  15  17
ATOM     16  O   UNL     1       8.499   7.082  18.813  0.00  0.00    +0.000 OA
ATOM     17  C   UNL     1       7.867   7.491  17.841  0.00  0.00    +0.000 C 
ATOM     18  N   UNL     1       7.662   8.815  17.516  0.00  0.00    +0.000 N 
ATOM     19  H   UNL     1       6.863   9.101  16.953  0.00  0.00    +0.000 HD
BRANCH  18  20
ATOM     20  O   UNL     1       8.216   9.752  18.425  0.00  0.00    +0.000 OA
BRANCH  20  21
ATOM     21  C   UNL     1       8.787  10.851  17.702  0.00  0.00    +0.000 C 
BRANCH  21  22
ATOM     22  C   UNL     1      10.009  11.403  18.397  0.00  0.00    +0.000 A 
ATOM     23  C   UNL     1      10.089  11.492  19.795  0.00  0.00    +0.000 A 
ATOM     24  C   UNL     1      11.242  11.985  20.413  0.00  0.00    +0.000 A 
ATOM     25  C   UNL     1      12.333  12.384  19.644  0.00  0.00    +0.000 A 
ATOM     26  C   UNL     1      12.279  12.278  18.256  0.00  0.00    +0.000 A 
ATOM     27  C   UNL     1      11.128  11.783  17.638  0.00  0.00    +0.000 A 
ENDBRANCH  21  22
ENDBRANCH  20  21
ENDBRANCH  18  20
ENDBRANCH  15  17
ENDBRANCH   1  15
TORSDOF 5
ENDMDL
MODEL 3
REMARK VINA RESULT:      -8.6      1.222      1.761
REMARK  Name = 
REMARK  5 active torsions:
REMARK  status: ('A' for Active; 'I' for Inactive)
REMARK    1  A    between atoms: C_2  and  C_3
REMARK    2  A    between atoms: C_3  and  N_4
REMARK    3  A    between atoms: N_18  and  O_19
REMARK    4  A    between atoms: O_19  and  C_20
REMARK    5  A    between atoms: C_20  and  C_21
REMARK                            x       y       z     vdW  Elec       q    Type
REMARK                         _______ _______ _______ _____ _____    ______ ____
ROOT
ATOM      1  N   UNL     1       6.382   5.719  17.942  0.00  0.00    +0.000 N 
ATOM      2  C   UNL     1       6.396   5.439  19.306  0.00  0.00    +0.000 A 
ATOM      3  N   UNL     1       5.464   4.851  19.997  0.00  0.00    +0.000 NA
ATOM      4  C   UNL     1       4.347   4.506  19.229  0.00  0.00    +0.000 A 
ATOM      5  C   UNL     1       4.250   4.779  17.895  0.00  0.00    +0.000 A 
ATOM      6  O   UNL     1       3.059   4.357  17.399  0.00  0.00    +0.000 OA
ATOM      7  C   UNL     1       2.389   3.806  18.462  0.00  0.00    +0.000 A 
ATOM      8  C   UNL     1       1.109   3.253  18.408  0.00  0.00    +0.000 A 
ATOM      9  C   UNL     1       0.595   2.745  19.606  0.00  0.00    +0.000 A 
ATOM     10  C   UNL     1       1.338   2.788  20.791  0.00  0.00    +0.000 A 
ATOM     11  C   UNL     1       2.623   3.349  20.819  0.00  0.00    +0.000 A 
ATOM     12  C   UNL     1       3.158   3.873  19.628  0.00  0.00    +0.000 A 
ATOM     13  C   UNL     1       5.271   5.434  17.143  0.00  0.00    +0.000 A 
ATOM     14  O   UNL     1       5.214   5.746  15.954  0.00  0.00    +0.000 OA
ENDROOT
BRANCH   1  15
ATOM     15  C   UNL     1       7.533   6.342  17.311  0.00  0.00    +0.000 C 
BRANCH  15  17
ATOM     16  O   UNL     1       6.616   8.521  16.900  0.00  0.00    +0.000 OA
ATOM     17  C   UNL     1       7.467   7.855  17.485  0.00  0.00    +0.000 C 
ATOM     18  N   UNL     1       8.459   8.358  18.300  0.00  0.00    +0.000 N 
ATOM     19  H   UNL     1       9.326   7.845  18.452  0.00  0.00    +0.000 HD
BRANCH  18  20
ATOM     20  O   UNL     1       8.484   9.772  18.418  0.00  0.00    +0.000 OA
BRANCH  20  21
ATOM     21  C   UNL     1       9.321  10.151  19.518  0.00  0.00    +0.000 C 
BRANCH  21  22
ATOM     22  C   UNL     1      10.362  11.166  19.105  0.00  0.00    +0.000 A 
ATOM     23  C   UNL     1      10.456  11.635  17.786  0.00  0.00    +0.000 A 
ATOM     24  C   UNL     1      11.413  12.591  17.436  0.00  0.00    +0.000 A 
ATOM     25  C   UNL     1      12.279  13.102  18.401  0.00  0.00    +0.000 A 
ATOM     26  C   UNL     1      12.180  12.666  19.720  0.00  0.00    +0.000 A 
ATOM     27  C   UNL     1      11.223  11.711  20.071  0.00  0.00    +0.000 A 
ENDBRANCH  21  22
ENDBRANCH  20  21
ENDBRANCH  18  20
ENDBRANCH  15  17
ENDBRANCH   1  15
TORSDOF 5
ENDMDL
MODEL 4
REMARK VINA RESULT:      -8.5      1.348      2.058
REMARK  Name = 
REMARK  5 active torsions:
REMARK  status: ('A' for Active; 'I' for Inactive)
REMARK    1  A    between atoms: C_2  and  C_3
REMARK    2  A    between atoms: C_3  and  N_4
REMARK    3  A    between atoms: N_18  and  O_19
REMARK    4  A    between atoms: O_19  and  C_20
REMARK    5  A    between atoms: C_20  and  C_21
REMARK                            x       y       z     vdW  Elec       q    Type
REMARK                         _______ _______ _______ _____ _____    ______ ____
ROOT
ATOM      1  N   UNL     1       5.987   5.868  17.818  0.00  0.00    +0.000 N 
ATOM      2  C   UNL     1       6.452   4.825  18.615  0.00  0.00    +0.000 A 
ATOM      3  N   UNL     1       5.742   4.022  19.352  0.00  0.00    +0.000 NA
ATOM      4  C   UNL     1       4.373   4.304  19.306  0.00  0.00    +0.000 A 
ATOM      5  C   UNL     1       3.849   5.330  18.574  0.00  0.00    +0.000 A 
ATOM      6  O   UNL     1       2.502   5.395  18.721  0.00  0.00    +0.000 OA
ATOM      7  C   UNL     1       2.174   4.376  19.580  0.00  0.00    +0.000 A 
ATOM      8  C   UNL     1       0.884   4.079  20.021  0.00  0.00    +0.000 A 
ATOM      9  C   UNL     1       0.757   2.999  20.902  0.00  0.00    +0.000 A 
ATOM     10  C   UNL     1       1.873   2.258  21.309  0.00  0.00    +0.000 A 
ATOM     11  C   UNL     1       3.158   2.577  20.851  0.00  0.00    +0.000 A 
ATOM     12  C   UNL     1       3.312   3.663  19.969  0.00  0.00    +0.000 A 
ATOM     13  C   UNL     1       4.634   6.215  17.775  0.00  0.00    +0.000 A 
ATOM     14  O   UNL     1       4.220   7.182  17.136  0.00  0.00    +0.000 OA
ENDROOT
BRANCH   1  15
ATOM     15  C   UNL     1       6.916   6.643  17.013  0.00  0.00    +0.000 C 
BRANCH  15  17
ATOM     16  O   UNL     1       8.485   7.002  18.793  0.00  0.00    +0.000 OA
ATOM     17  C   UNL     1       7.791   7.508  17.915  0.00  0.00    +0.000 C 
ATOM     18  N   UNL     1       7.673   8.858  17.662  0.00  0.00    +0.000 N 
ATOM     19  H   UNL     1       6.846   9.238  17.204  0.00  0.00    +0.000 HD
BRANCH  18  20
ATOM     20  O   UNL     1       8.406   9.702  18.536  0.00  0.00    +0.000 OA
BRANCH  20  21
ATOM     21  C   UNL     1       8.796  10.895  17.844  0.00  0.00    +0.000 C 
BRANCH  21  22
ATOM     22  C   UNL     1      10.015  11.531  18.471  0.00  0.00    +0.000 A 
ATOM     23  C   UNL     1      10.220  11.531  19.858  0.00  0.00    +0.000 A 
ATOM     24  C   UNL     1      11.368  12.106  20.410  0.00  0.00    +0.000 A 
ATOM     25  C   UNL     1      12.333  12.677  19.582  0.00  0.00    +0.000 A 
ATOM     26  C   UNL     1      12.156  12.661  18.200  0.00  0.00    +0.000 A 
ATOM     27  C   UNL     1      11.009  12.086  17.648  0.00  0.00    +0.000 A 
ENDBRANCH  21  22
ENDBRANCH  20  21
ENDBRANCH  18  20
ENDBRANCH  15  17
ENDBRANCH   1  15
TORSDOF 5
ENDMDL
MODEL 5
REMARK VINA RESULT:      -8.5      1.313      1.501
REMARK  Name = 
REMARK  5 active torsions:
REMARK  status: ('A' for Active; 'I' for Inactive)
REMARK    1  A    between atoms: C_2  and  C_3
REMARK    2  A    between atoms: C_3  and  N_4
REMARK    3  A    between atoms: N_18  and  O_19
REMARK    4  A    between atoms: O_19  and  C_20
REMARK    5  A    between atoms: C_20  and  C_21
REMARK                            x       y       z     vdW  Elec       q    Type
REMARK                         _______ _______ _______ _____ _____    ______ ____
ROOT
ATOM      1  N   UNL     1       6.128   6.041  17.555  0.00  0.00    +0.000 N 
ATOM      2  C   UNL     1       4.876   6.628  17.388  0.00  0.00    +0.000 A 
ATOM      3  N   UNL     1       3.751   6.242  17.914  0.00  0.00    +0.000 NA
ATOM      4  C   UNL     1       3.881   5.097  18.707  0.00  0.00    +0.000 A 
ATOM      5  C   UNL     1       5.069   4.450  18.889  0.00  0.00    +0.000 A 
ATOM      6  O   UNL     1       4.912   3.361  19.684  0.00  0.00    +0.000 OA
ATOM      7  C   UNL     1       3.579   3.325  20.005  0.00  0.00    +0.000 A 
ATOM      8  C   UNL     1       2.968   2.356  20.803  0.00  0.00    +0.000 A 
ATOM      9  C   UNL     1       1.591   2.493  21.010  0.00  0.00    +0.000 A 
ATOM     10  C   UNL     1       0.873   3.554  20.446  0.00  0.00    +0.000 A 
ATOM     11  C   UNL     1       1.511   4.514  19.647  0.00  0.00    +0.000 A 
ATOM     12  C   UNL     1       2.894   4.394  19.420  0.00  0.00    +0.000 A 
ATOM     13  C   UNL     1       6.299   4.871  18.301  0.00  0.00    +0.000 A 
ATOM     14  O   UNL     1       7.385   4.299  18.393  0.00  0.00    +0.000 OA
ENDROOT
BRANCH   1  15
ATOM     15  C   UNL     1       7.301   6.630  16.932  0.00  0.00    +0.000 C 
BRANCH  15  17
ATOM     16  O   UNL     1       8.534   7.286  18.884  0.00  0.00    +0.000 OA
ATOM     17  C   UNL     1       7.935   7.648  17.873  0.00  0.00    +0.000 C 
ATOM     18  N   UNL     1       7.723   8.956  17.491  0.00  0.00    +0.000 N 
ATOM     19  H   UNL     1       6.943   9.208  16.887  0.00  0.00    +0.000 HD
BRANCH  18  20
ATOM     20  O   UNL     1       8.226   9.935  18.387  0.00  0.00    +0.000 OA
BRANCH  20  21
ATOM     21  C   UNL     1       9.376  10.571  17.815  0.00  0.00    +0.000 C 
BRANCH  21  22
ATOM     22  C   UNL     1       9.944  11.629  18.732  0.00  0.00    +0.000 A 
ATOM     23  C   UNL     1      10.609  12.759  18.235  0.00  0.00    +0.000 A 
ATOM     24  C   UNL     1      11.104  13.735  19.104  0.00  0.00    +0.000 A 
ATOM     25  C   UNL     1      10.929  13.602  20.480  0.00  0.00    +0.000 A 
ATOM     26  C   UNL     1      10.246  12.498  20.987  0.00  0.00    +0.000 A 
ATOM     27  C   UNL     1       9.750  11.523  20.119  0.00  0.00    +0.000 A 
ENDBRANCH  21  22
ENDBRANCH  20  21
ENDBRANCH  18  20
ENDBRANCH  15  17
ENDBRANCH   1  15
TORSDOF 5
ENDMDL
MODEL 6
REMARK VINA RESULT:      -8.5      0.858      1.135
REMARK  Name = 
REMARK  5 active torsions:
REMARK  status: ('A' for Active; 'I' for Inactive)
REMARK    1  A    between atoms: C_2  and  C_3
REMARK    2  A    between atoms: C_3  and  N_4
REMARK    3  A    between atoms: N_18  and  O_19
REMARK    4  A    between atoms: O_19  and  C_20
REMARK    5  A    between atoms: C_20  and  C_21
REMARK                            x       y       z     vdW  Elec       q    Type
REMARK                         _______ _______ _______ _____ _____    ______ ____
ROOT
ATOM      1  N   UNL     1       6.369   5.117  17.714  0.00  0.00    +0.000 N 
ATOM      2  C   UNL     1       5.660   4.474  16.702  0.00  0.00    +0.000 A 
ATOM      3  N   UNL     1       4.500   3.895  16.802  0.00  0.00    +0.000 NA
ATOM      4  C   UNL     1       3.972   3.944  18.096  0.00  0.00    +0.000 A 
ATOM      5  C   UNL     1       4.625   4.528  19.143  0.00  0.00    +0.000 A 
ATOM      6  O   UNL     1       3.903   4.419  20.287  0.00  0.00    +0.000 OA
ATOM      7  C   UNL     1       2.762   3.739  19.942  0.00  0.00    +0.000 A 
ATOM      8  C   UNL     1       1.734   3.394  20.820  0.00  0.00    +0.000 A 
ATOM      9  C   UNL     1       0.652   2.695  20.273  0.00  0.00    +0.000 A 
ATOM     10  C   UNL     1       0.611   2.368  18.913  0.00  0.00    +0.000 A 
ATOM     11  C   UNL     1       1.658   2.726  18.052  0.00  0.00    +0.000 A 
ATOM     12  C   UNL     1       2.759   3.425  18.580  0.00  0.00    +0.000 A 
ATOM     13  C   UNL     1       5.903   5.154  19.031  0.00  0.00    +0.000 A 
ATOM     14  O   UNL     1       6.555   5.650  19.949  0.00  0.00    +0.000 OA
ENDROOT
BRANCH   1  15
ATOM     15  C   UNL     1       7.639   5.760  17.422  0.00  0.00    +0.000 C 
BRANCH  15  17
ATOM     16  O   UNL     1       6.645   7.810  16.668  0.00  0.00    +0.000 OA
ATOM     17  C   UNL     1       7.466   7.274  17.409  0.00  0.00    +0.000 C 
ATOM     18  N   UNL     1       8.334   7.933  18.255  0.00  0.00    +0.000 N 
ATOM     19  H   UNL     1       9.208   7.502  18.552  0.00  0.00    +0.000 HD
BRANCH  18  20
ATOM     20  O   UNL     1       8.263   9.349  18.208  0.00  0.00    +0.000 OA
BRANCH  20  21
ATOM     21  C   UNL     1       9.220   9.913  19.114  0.00  0.00    +0.000 C 
BRANCH  21  22
ATOM     22  C   UNL     1       9.645  11.299  18.688  0.00  0.00    +0.000 A 
ATOM     23  C   UNL     1       9.096  12.452  19.267  0.00  0.00    +0.000 A 
ATOM     24  C   UNL     1       9.523  13.723  18.870  0.00  0.00    +0.000 A 
ATOM     25  C   UNL     1      10.514  13.857  17.900  0.00  0.00    +0.000 A 
ATOM     26  C   UNL     1      11.088  12.720  17.334  0.00  0.00    +0.000 A 
ATOM     27  C   UNL     1      10.662  11.451  17.731  0.00  0.00    +0.000 A 
ENDBRANCH  21  22
ENDBRANCH  20  21
ENDBRANCH  18  20
ENDBRANCH  15  17
ENDBRANCH   1  15
TORSDOF 5
ENDMDL
MODEL 7
REMARK VINA RESULT:      -8.4      1.571      2.061
REMARK  Name = 
REMARK  5 active torsions:
REMARK  status: ('A' for Active; 'I' for Inactive)
REMARK    1  A    between atoms: C_2  and  C_3
REMARK    2  A    between atoms: C_3  and  N_4
REMARK    3  A    between atoms: N_18  and  O_19
REMARK    4  A    between atoms: O_19  and  C_20
REMARK    5  A    between atoms: C_20  and  C_21
REMARK                            x       y       z     vdW  Elec       q    Type
REMARK                         _______ _______ _______ _____ _____    ______ ____
ROOT
ATOM      1  N   UNL     1       5.871   5.734  17.240  0.00  0.00    +0.000 N 
ATOM      2  C   UNL     1       5.047   6.490  18.070  0.00  0.00    +0.000 A 
ATOM      3  N   UNL     1       3.953   6.101  18.656  0.00  0.00    +0.000 NA
ATOM      4  C   UNL     1       3.616   4.776  18.363  0.00  0.00    +0.000 A 
ATOM      5  C   UNL     1       4.358   3.986  17.533  0.00  0.00    +0.000 A 
ATOM      6  O   UNL     1       3.800   2.756  17.405  0.00  0.00    +0.000 OA
ATOM      7  C   UNL     1       2.668   2.780  18.180  0.00  0.00    +0.000 A 
ATOM      8  C   UNL     1       1.774   1.719  18.335  0.00  0.00    +0.000 A 
ATOM      9  C   UNL     1       0.673   1.945  19.168  0.00  0.00    +0.000 A 
ATOM     10  C   UNL     1       0.489   3.173  19.813  0.00  0.00    +0.000 A 
ATOM     11  C   UNL     1       1.401   4.223  19.641  0.00  0.00    +0.000 A 
ATOM     12  C   UNL     1       2.514   4.022  18.803  0.00  0.00    +0.000 A 
ATOM     13  C   UNL     1       5.552   4.421  16.884  0.00  0.00    +0.000 A 
ATOM     14  O   UNL     1       6.230   3.769  16.090  0.00  0.00    +0.000 OA
ENDROOT
BRANCH   1  15
ATOM     15  C   UNL     1       7.092   6.310  16.701  0.00  0.00    +0.000 C 
BRANCH  15  17
ATOM     16  O   UNL     1       8.197   6.707  18.793  0.00  0.00    +0.000 OA
ATOM     17  C   UNL     1       7.761   7.189  17.751  0.00  0.00    +0.000 C 
ATOM     18  N   UNL     1       7.772   8.528  17.419  0.00  0.00    +0.000 N 
ATOM     19  H   UNL     1       7.100   8.912  16.757  0.00  0.00    +0.000 HD
BRANCH  18  20
ATOM     20  O   UNL     1       8.310   9.390  18.409  0.00  0.00    +0.000 OA
BRANCH  20  21
ATOM     21  C   UNL     1       8.694  10.635  17.811  0.00  0.00    +0.000 C 
BRANCH  21  22
ATOM     22  C   UNL     1       9.888  11.246  18.507  0.00  0.00    +0.000 A 
ATOM     23  C   UNL     1       9.970  11.323  19.905  0.00  0.00    +0.000 A 
ATOM     24  C   UNL     1      11.097  11.871  20.524  0.00  0.00    +0.000 A 
ATOM     25  C   UNL     1      12.162  12.336  19.755  0.00  0.00    +0.000 A 
ATOM     26  C   UNL     1      12.106  12.242  18.366  0.00  0.00    +0.000 A 
ATOM     27  C   UNL     1      10.981  11.693  17.747  0.00  0.00    +0.000 A 
ENDBRANCH  21  22
ENDBRANCH  20  21
ENDBRANCH  18  20
ENDBRANCH  15  17
ENDBRANCH   1  15
TORSDOF 5
ENDMDL
MODEL 8
REMARK VINA RESULT:      -8.4      1.514      1.792
REMARK  Name = 
REMARK  5 active torsions:
REMARK  status: ('A' for Active; 'I' for Inactive)
REMARK    1  A    between atoms: C_2  and  C_3
REMARK    2  A    between atoms: C_3  and  N_4
REMARK    3  A    between atoms: N_18  and  O_19
REMARK    4  A    between atoms: O_19  and  C_20
REMARK    5  A    between atoms: C_20  and  C_21
REMARK                            x       y       z     vdW  Elec       q    Type
REMARK                         _______ _______ _______ _____ _____    ______ ____
ROOT
ATOM      1  N   UNL     1       6.192   6.259  17.619  0.00  0.00    +0.000 N 
ATOM      2  C   UNL     1       4.952   6.885  17.527  0.00  0.00    +0.000 A 
ATOM      3  N   UNL     1       3.831   6.489  18.056  0.00  0.00    +0.000 NA
ATOM      4  C   UNL     1       3.953   5.289  18.764  0.00  0.00    +0.000 A 
ATOM      5  C   UNL     1       5.129   4.604  18.869  0.00  0.00    +0.000 A 
ATOM      6  O   UNL     1       4.966   3.466  19.591  0.00  0.00    +0.000 OA
ATOM      7  C   UNL     1       3.640   3.439  19.945  0.00  0.00    +0.000 A 
ATOM      8  C   UNL     1       3.027   2.432  20.691  0.00  0.00    +0.000 A 
ATOM      9  C   UNL     1       1.660   2.586  20.945  0.00  0.00    +0.000 A 
ATOM     10  C   UNL     1       0.954   3.700  20.476  0.00  0.00    +0.000 A 
ATOM     11  C   UNL     1       1.594   4.698  19.728  0.00  0.00    +0.000 A 
ATOM     12  C   UNL     1       2.968   4.562  19.455  0.00  0.00    +0.000 A 
ATOM     13  C   UNL     1       6.354   5.037  18.277  0.00  0.00    +0.000 A 
ATOM     14  O   UNL     1       7.427   4.434  18.299  0.00  0.00    +0.000 OA
ENDROOT
BRANCH   1  15
ATOM     15  C   UNL     1       7.363   6.862  17.005  0.00  0.00    +0.000 C 
BRANCH  15  17
ATOM     16  O   UNL     1       8.586   7.427  18.991  0.00  0.00    +0.000 OA
ATOM     17  C   UNL     1       8.020   7.834  17.979  0.00  0.00    +0.000 C 
ATOM     18  N   UNL     1       7.865   9.157  17.623  0.00  0.00    +0.000 N 
ATOM     19  H   UNL     1       7.106   9.452  17.012  0.00  0.00    +0.000 HD
BRANCH  18  20
ATOM     20  O   UNL     1       8.389  10.096  18.549  0.00  0.00    +0.000 OA
BRANCH  20  21
ATOM     21  C   UNL     1       9.702  10.499  18.140  0.00  0.00    +0.000 C 
BRANCH  21  22
ATOM     22  C   UNL     1       9.811  12.001  18.012  0.00  0.00    +0.000 A 
ATOM     23  C   UNL     1       8.887  12.864  18.620  0.00  0.00    +0.000 A 
ATOM     24  C   UNL     1       9.025  14.251  18.505  0.00  0.00    +0.000 A 
ATOM     25  C   UNL     1      10.095  14.792  17.795  0.00  0.00    +0.000 A 
ATOM     26  C   UNL     1      11.035  13.948  17.209  0.00  0.00    +0.000 A 
ATOM     27  C   UNL     1      10.899  12.563  17.324  0.00  0.00    +0.000 A 
ENDBRANCH  21  22
ENDBRANCH  20  21
ENDBRANCH  18  20
ENDBRANCH  15  17
ENDBRANCH   1  15
TORSDOF 5
ENDMDL
MODEL 9
REMARK VINA RESULT:      -8.3      0.513      1.044
REMARK  Name = 
REMARK  5 active torsions:
REMARK  status: ('A' for Active; 'I' for Inactive)
REMARK    1  A    between atoms: C_2  and  C_3
REMARK    2  A    between atoms: C_3  and  N_4
REMARK    3  A    between atoms: N_18  and  O_19
REMARK    4  A    between atoms: O_19  and  C_20
REMARK    5  A    between atoms: C_20  and  C_21
REMARK                            x       y       z     vdW  Elec       q    Type
REMARK                         _______ _______ _______ _____ _____    ______ ____
ROOT
ATOM      1  N   UNL     1       6.523   5.627  17.620  0.00  0.00    +0.000 N 
ATOM      2  C   UNL     1       5.672   5.312  16.564  0.00  0.00    +0.000 A 
ATOM      3  N   UNL     1       4.509   4.734  16.637  0.00  0.00    +0.000 NA
ATOM      4  C   UNL     1       4.143   4.404  17.946  0.00  0.00    +0.000 A 
ATOM      5  C   UNL     1       4.940   4.653  19.026  0.00  0.00    +0.000 A 
ATOM      6  O   UNL     1       4.356   4.217  20.171  0.00  0.00    +0.000 OA
ATOM      7  C   UNL     1       3.155   3.673  19.792  0.00  0.00    +0.000 A 
ATOM      8  C   UNL     1       2.226   3.091  20.655  0.00  0.00    +0.000 A 
ATOM      9  C   UNL     1       1.059   2.587  20.071  0.00  0.00    +0.000 A 
ATOM     10  C   UNL     1       0.841   2.674  18.691  0.00  0.00    +0.000 A 
ATOM     11  C   UNL     1       1.791   3.264  17.845  0.00  0.00    +0.000 A 
ATOM     12  C   UNL     1       2.976   3.772  18.409  0.00  0.00    +0.000 A 
ATOM     13  C   UNL     1       6.220   5.278  18.939  0.00  0.00    +0.000 A 
ATOM     14  O   UNL     1       6.997   5.480  19.871  0.00  0.00    +0.000 OA
ENDROOT
BRANCH   1  15
ATOM     15  C   UNL     1       7.774   6.321  17.369  0.00  0.00    +0.000 C 
BRANCH  15  17
ATOM     16  O   UNL     1       6.771   8.497  17.240  0.00  0.00    +0.000 OA
ATOM     17  C   UNL     1       7.640   7.792  17.747  0.00  0.00    +0.000 C 
ATOM     18  N   UNL     1       8.596   8.217  18.645  0.00  0.00    +0.000 N 
ATOM     19  H   UNL     1       9.481   7.723  18.746  0.00  0.00    +0.000 HD
BRANCH  18  20
ATOM     20  O   UNL     1       8.557   9.601  18.957  0.00  0.00    +0.000 OA
BRANCH  20  21
ATOM     21  C   UNL     1       9.204  10.350  17.920  0.00  0.00    +0.000 C 
BRANCH  21  22
ATOM     22  C   UNL     1      10.274  11.261  18.474  0.00  0.00    +0.000 A 
ATOM     23  C   UNL     1      10.572  11.307  19.844  0.00  0.00    +0.000 A 
ATOM     24  C   UNL     1      11.583  12.143  20.327  0.00  0.00    +0.000 A 
ATOM     25  C   UNL     1      12.319  12.933  19.446  0.00  0.00    +0.000 A 
ATOM     26  C   UNL     1      12.053  12.878  18.080  0.00  0.00    +0.000 A 
ATOM     27  C   UNL     1      11.044  12.043  17.596  0.00  0.00    +0.000 A 
ENDBRANCH  21  22
ENDBRANCH  20  21
ENDBRANCH  18  20
ENDBRANCH  15  17
ENDBRANCH   1  15
TORSDOF 5
ENDMDL
