MODEL 1
REMARK VINA RESULT:      -8.0      0.000      0.000
REMARK  Name = 
REMARK  2 active torsions:
REMARK  status: ('A' for Active; 'I' for Inactive)
REMARK    1  A    between atoms: C_2  and  C_3
REMARK    2  A    between atoms: C_18  and  C_19
REMARK                            x       y       z     vdW  Elec       q    Type
REMARK                         _______ _______ _______ _____ _____    ______ ____
ROOT
ATOM      1  O   UNL     1       2.739   5.623  20.848  0.00  0.00    +0.000 OA
ATOM      2  C   UNL     1       2.961   6.057  19.720  0.00  0.00    +0.000 C 
ATOM      3  N   UNL     1       2.464   7.226  19.210  0.00  0.00    +0.000 N 
ATOM      4  C   UNL     1       3.033   8.055  18.103  0.00  0.00    +0.000 C 
ATOM      5  C   UNL     1       1.782   8.582  17.418  0.00  0.00    +0.000 C 
ATOM      6  C   UNL     1       1.112   8.955  18.707  0.00  0.00    +0.000 A 
ATOM      7  C   UNL     1       0.782  10.237  19.048  0.00  0.00    +0.000 A 
ATOM      8  C   UNL     1       0.750  10.556  20.409  0.00  0.00    +0.000 A 
ATOM      9  C   UNL     1       0.670   9.490  21.350  0.00  0.00    +0.000 A 
ATOM     10  C   UNL     1       0.975   8.169  20.993  0.00  0.00    +0.000 A 
ATOM     11  C   UNL     1       1.392   8.004  19.695  0.00  0.00    +0.000 A 
ENDROOT
BRANCH   2  12
ATOM     12  C   UNL     1       3.703   5.205  18.738  0.00  0.00    +0.000 A 
ATOM     13  C   UNL     1       3.053   4.640  17.699  0.00  0.00    +0.000 A 
ATOM     14  C   UNL     1       3.778   3.983  16.617  0.00  0.00    +0.000 A 
ATOM     15  C   UNL     1       5.116   3.984  16.600  0.00  0.00    +0.000 A 
ATOM     16  N   UNL     1       5.797   4.513  17.661  0.00  0.00    +0.000 N 
ATOM     17  C   UNL     1       7.139   4.614  17.890  0.00  0.00    +0.000 A 
ATOM     18  O   UNL     1       8.065   4.301  17.163  0.00  0.00    +0.000 OA
ATOM     19  N   UNL     1       7.255   5.190  19.152  0.00  0.00    +0.000 N 
ATOM     20  N   UNL     1       6.034   5.540  19.622  0.00  0.00    +0.000 NA
ATOM     21  C   UNL     1       5.192   5.109  18.725  0.00  0.00    +0.000 A 
ATOM     22  H   UNL     1       8.112   5.442  19.631  0.00  0.00    +0.000 HD
ENDBRANCH   2  12
BRANCH   8  23
ATOM     23  C   UNL     1       1.110  11.941  20.802  0.00  0.00    +0.000 A 
ATOM     24  C   UNL     1       0.254  12.724  21.604  0.00  0.00    +0.000 A 
ATOM     25  C   UNL     1       0.490  14.081  21.824  0.00  0.00    +0.000 A 
ATOM     26  C   UNL     1       1.607  14.688  21.266  0.00  0.00    +0.000 A 
ATOM     27  C   UNL     1       2.468  13.947  20.464  0.00  0.00    +0.000 A 
ATOM     28  C   UNL     1       2.212  12.595  20.223  0.00  0.00    +0.000 A 
ENDBRANCH   8  23
TORSDOF 2
ENDMDL
MODEL 2
REMARK VINA RESULT:      -7.6      4.783      9.655
REMARK  Name = 
REMARK  2 active torsions:
REMARK  status: ('A' for Active; 'I' for Inactive)
REMARK    1  A    between atoms: C_2  and  C_3
REMARK    2  A    between atoms: C_18  and  C_19
REMARK                            x       y       z     vdW  Elec       q    Type
REMARK                         _______ _______ _______ _____ _____    ______ ____
ROOT
ATOM      1  O   UNL     1      -0.636  10.879  23.380  0.00  0.00    +0.000 OA
ATOM      2  C   UNL     1      -0.979  11.098  22.220  0.00  0.00    +0.000 C 
ATOM      3  N   UNL     1      -0.415  10.533  21.108  0.00  0.00    +0.000 N 
ATOM      4  C   UNL     1      -1.037  10.350  19.761  0.00  0.00    +0.000 C 
ATOM      5  C   UNL     1       0.145  10.558  18.827  0.00  0.00    +0.000 C 
ATOM      6  C   UNL     1       1.063   9.689  19.634  0.00  0.00    +0.000 A 
ATOM      7  C   UNL     1       1.621   8.532  19.165  0.00  0.00    +0.000 A 
ATOM      8  C   UNL     1       1.921   7.536  20.099  0.00  0.00    +0.000 A 
ATOM      9  C   UNL     1       2.005   7.901  21.473  0.00  0.00    +0.000 A 
ATOM     10  C   UNL     1       1.465   9.103  21.948  0.00  0.00    +0.000 A 
ATOM     11  C   UNL     1       0.821   9.861  21.002  0.00  0.00    +0.000 A 
ENDROOT
BRANCH   2  12
ATOM     12  C   UNL     1      -1.984  12.172  21.942  0.00  0.00    +0.000 A 
ATOM     13  C   UNL     1      -1.904  12.904  20.810  0.00  0.00    +0.000 A 
ATOM     14  C   UNL     1      -2.978  13.806  20.412  0.00  0.00    +0.000 A 
ATOM     15  C   UNL     1      -4.103  13.879  21.133  0.00  0.00    +0.000 A 
ATOM     16  N   UNL     1      -4.192  13.181  22.306  0.00  0.00    +0.000 N 
ATOM     17  C   UNL     1      -5.204  13.106  23.218  0.00  0.00    +0.000 A 
ATOM     18  O   UNL     1      -6.313  13.611  23.173  0.00  0.00    +0.000 OA
ATOM     19  N   UNL     1      -4.723  12.291  24.238  0.00  0.00    +0.000 N 
ATOM     20  N   UNL     1      -3.511  11.788  23.903  0.00  0.00    +0.000 NA
ATOM     21  C   UNL     1      -3.217  12.348  22.763  0.00  0.00    +0.000 A 
ATOM     22  H   UNL     1      -5.223  11.991  25.067  0.00  0.00    +0.000 HD
ENDBRANCH   2  12
BRANCH   8  23
ATOM     23  C   UNL     1       1.827   6.122  19.654  0.00  0.00    +0.000 A 
ATOM     24  C   UNL     1       2.043   5.759  18.308  0.00  0.00    +0.000 A 
ATOM     25  C   UNL     1       1.776   4.471  17.843  0.00  0.00    +0.000 A 
ATOM     26  C   UNL     1       1.309   3.502  18.720  0.00  0.00    +0.000 A 
ATOM     27  C   UNL     1       1.079   3.828  20.052  0.00  0.00    +0.000 A 
ATOM     28  C   UNL     1       1.320   5.127  20.508  0.00  0.00    +0.000 A 
ENDBRANCH   8  23
TORSDOF 2
ENDMDL
MODEL 3
REMARK VINA RESULT:      -7.6      2.699      3.739
REMARK  Name = 
REMARK  2 active torsions:
REMARK  status: ('A' for Active; 'I' for Inactive)
REMARK    1  A    between atoms: C_2  and  C_3
REMARK    2  A    between atoms: C_18  and  C_19
REMARK                            x       y       z     vdW  Elec       q    Type
REMARK                         _______ _______ _______ _____ _____    ______ ____
ROOT
ATOM      1  O   UNL     1       2.370   6.148  18.043  0.00  0.00    +0.000 OA
ATOM      2  C   UNL     1       2.065   6.152  19.234  0.00  0.00    +0.000 C 
ATOM      3  N   UNL     1       1.570   7.227  19.921  0.00  0.00    +0.000 N 
ATOM      4  C   UNL     1       0.744   7.213  21.167  0.00  0.00    +0.000 C 
ATOM      5  C   UNL     1       1.240   8.450  21.899  0.00  0.00    +0.000 C 
ATOM      6  C   UNL     1       1.193   9.315  20.674  0.00  0.00    +0.000 A 
ATOM      7  C   UNL     1       0.381  10.407  20.547  0.00  0.00    +0.000 A 
ATOM      8  C   UNL     1      -0.041  10.752  19.259  0.00  0.00    +0.000 A 
ATOM      9  C   UNL     1       0.679  10.224  18.149  0.00  0.00    +0.000 A 
ATOM     10  C   UNL     1       1.539   9.126  18.285  0.00  0.00    +0.000 A 
ATOM     11  C   UNL     1       1.590   8.587  19.547  0.00  0.00    +0.000 A 
ENDROOT
BRANCH   2  12
ATOM     12  C   UNL     1       2.384   4.956  20.076  0.00  0.00    +0.000 A 
ATOM     13  C   UNL     1       1.475   4.477  20.951  0.00  0.00    +0.000 A 
ATOM     14  C   UNL     1       1.672   3.201  21.629  0.00  0.00    +0.000 A 
ATOM     15  C   UNL     1       2.738   2.442  21.347  0.00  0.00    +0.000 A 
ATOM     16  N   UNL     1       3.695   2.924  20.496  0.00  0.00    +0.000 N 
ATOM     17  C   UNL     1       4.864   2.364  20.072  0.00  0.00    +0.000 A 
ATOM     18  O   UNL     1       5.314   1.257  20.311  0.00  0.00    +0.000 OA
ATOM     19  N   UNL     1       5.460   3.324  19.259  0.00  0.00    +0.000 N 
ATOM     20  N   UNL     1       4.627   4.380  19.095  0.00  0.00    +0.000 NA
ATOM     21  C   UNL     1       3.600   4.121  19.855  0.00  0.00    +0.000 A 
ATOM     22  H   UNL     1       6.328   3.236  18.745  0.00  0.00    +0.000 HD
ENDBRANCH   2  12
BRANCH   8  23
ATOM     23  C   UNL     1      -1.378  11.381  19.115  0.00  0.00    +0.000 A 
ATOM     24  C   UNL     1      -1.927  12.182  20.137  0.00  0.00    +0.000 A 
ATOM     25  C   UNL     1      -3.250  12.622  20.095  0.00  0.00    +0.000 A 
ATOM     26  C   UNL     1      -4.055  12.293  19.013  0.00  0.00    +0.000 A 
ATOM     27  C   UNL     1      -3.547  11.499  17.990  0.00  0.00    +0.000 A 
ATOM     28  C   UNL     1      -2.230  11.035  18.051  0.00  0.00    +0.000 A 
ENDBRANCH   8  23
TORSDOF 2
ENDMDL
MODEL 4
REMARK VINA RESULT:      -7.5      3.877      8.554
REMARK  Name = 
REMARK  2 active torsions:
REMARK  status: ('A' for Active; 'I' for Inactive)
REMARK    1  A    between atoms: C_2  and  C_3
REMARK    2  A    between atoms: C_18  and  C_19
REMARK                            x       y       z     vdW  Elec       q    Type
REMARK                         _______ _______ _______ _____ _____    ______ ____
ROOT
ATOM      1  O   UNL     1      -0.107  10.105  21.987  0.00  0.00    +0.000 OA
ATOM      2  C   UNL     1      -0.036  10.381  20.791  0.00  0.00    +0.000 C 
ATOM      3  N   UNL     1       0.652   9.660  19.853  0.00  0.00    +0.000 N 
ATOM      4  C   UNL     1       0.412   9.618  18.377  0.00  0.00    +0.000 C 
ATOM      5  C   UNL     1       1.822   9.482  17.824  0.00  0.00    +0.000 C 
ATOM      6  C   UNL     1       2.212   8.418  18.807  0.00  0.00    +0.000 A 
ATOM      7  C   UNL     1       2.556   7.144  18.451  0.00  0.00    +0.000 A 
ATOM      8  C   UNL     1       2.306   6.125  19.375  0.00  0.00    +0.000 A 
ATOM      9  C   UNL     1       2.090   6.486  20.736  0.00  0.00    +0.000 A 
ATOM     10  C   UNL     1       1.771   7.800  21.106  0.00  0.00    +0.000 A 
ATOM     11  C   UNL     1       1.645   8.680  20.060  0.00  0.00    +0.000 A 
ENDROOT
BRANCH   2  12
ATOM     12  C   UNL     1      -0.602  11.677  20.302  0.00  0.00    +0.000 A 
ATOM     13  C   UNL     1      -1.921  11.936  20.431  0.00  0.00    +0.000 A 
ATOM     14  C   UNL     1      -2.465  13.262  20.158  0.00  0.00    +0.000 A 
ATOM     15  C   UNL     1      -1.650  14.273  19.834  0.00  0.00    +0.000 A 
ATOM     16  N   UNL     1      -0.317  14.027  19.655  0.00  0.00    +0.000 N 
ATOM     17  C   UNL     1       0.700  14.869  19.309  0.00  0.00    +0.000 A 
ATOM     18  O   UNL     1       0.668  16.073  19.127  0.00  0.00    +0.000 OA
ATOM     19  N   UNL     1       1.832  14.064  19.224  0.00  0.00    +0.000 N 
ATOM     20  N   UNL     1       1.542  12.803  19.623  0.00  0.00    +0.000 NA
ATOM     21  C   UNL     1       0.259  12.810  19.854  0.00  0.00    +0.000 A 
ATOM     22  H   UNL     1       2.779  14.362  19.019  0.00  0.00    +0.000 HD
ENDBRANCH   2  12
BRANCH   8  23
ATOM     23  C   UNL     1       1.976   4.778  18.846  0.00  0.00    +0.000 A 
ATOM     24  C   UNL     1       1.123   3.901  19.547  0.00  0.00    +0.000 A 
ATOM     25  C   UNL     1       0.954   2.572  19.159  0.00  0.00    +0.000 A 
ATOM     26  C   UNL     1       1.618   2.090  18.039  0.00  0.00    +0.000 A 
ATOM     27  C   UNL     1       2.472   2.926  17.328  0.00  0.00    +0.000 A 
ATOM     28  C   UNL     1       2.661   4.248  17.738  0.00  0.00    +0.000 A 
ENDBRANCH   8  23
TORSDOF 2
ENDMDL
MODEL 5
REMARK VINA RESULT:      -7.3      0.939      1.436
REMARK  Name = 
REMARK  2 active torsions:
REMARK  status: ('A' for Active; 'I' for Inactive)
REMARK    1  A    between atoms: C_2  and  C_3
REMARK    2  A    between atoms: C_18  and  C_19
REMARK                            x       y       z     vdW  Elec       q    Type
REMARK                         _______ _______ _______ _____ _____    ______ ____
ROOT
ATOM      1  O   UNL     1       2.054   6.397  21.155  0.00  0.00    +0.000 OA
ATOM      2  C   UNL     1       2.266   6.639  19.969  0.00  0.00    +0.000 C 
ATOM      3  N   UNL     1       1.939   7.803  19.327  0.00  0.00    +0.000 N 
ATOM      4  C   UNL     1       2.561   8.371  18.092  0.00  0.00    +0.000 C 
ATOM      5  C   UNL     1       1.372   9.020  17.400  0.00  0.00    +0.000 C 
ATOM      6  C   UNL     1       0.867   9.666  18.656  0.00  0.00    +0.000 A 
ATOM      7  C   UNL     1       0.783  11.019  18.833  0.00  0.00    +0.000 A 
ATOM      8  C   UNL     1       0.901  11.508  20.138  0.00  0.00    +0.000 A 
ATOM      9  C   UNL     1       0.708  10.601  21.219  0.00  0.00    +0.000 A 
ATOM     10  C   UNL     1       0.760   9.213  21.032  0.00  0.00    +0.000 A 
ATOM     11  C   UNL     1       1.051   8.814  19.752  0.00  0.00    +0.000 A 
ENDROOT
BRANCH   2  12
ATOM     12  C   UNL     1       2.783   5.552  19.079  0.00  0.00    +0.000 A 
ATOM     13  C   UNL     1       1.928   4.809  18.344  0.00  0.00    +0.000 A 
ATOM     14  C   UNL     1       2.409   3.891  17.318  0.00  0.00    +0.000 A 
ATOM     15  C   UNL     1       3.716   3.813  17.038  0.00  0.00    +0.000 A 
ATOM     16  N   UNL     1       4.605   4.523  17.797  0.00  0.00    +0.000 N 
ATOM     17  C   UNL     1       5.966   4.596  17.728  0.00  0.00    +0.000 A 
ATOM     18  O   UNL     1       6.721   4.079  16.924  0.00  0.00    +0.000 OA
ATOM     19  N   UNL     1       6.344   5.427  18.779  0.00  0.00    +0.000 N 
ATOM     20  N   UNL     1       5.248   5.940  19.388  0.00  0.00    +0.000 NA
ATOM     21  C   UNL     1       4.236   5.371  18.795  0.00  0.00    +0.000 A 
ATOM     22  H   UNL     1       7.283   5.730  19.010  0.00  0.00    +0.000 HD
ENDBRANCH   2  12
BRANCH   8  23
ATOM     23  C   UNL     1       1.517  12.847  20.320  0.00  0.00    +0.000 A 
ATOM     24  C   UNL     1       2.604  13.270  19.529  0.00  0.00    +0.000 A 
ATOM     25  C   UNL     1       3.308  14.440  19.813  0.00  0.00    +0.000 A 
ATOM     26  C   UNL     1       2.925  15.235  20.885  0.00  0.00    +0.000 A 
ATOM     27  C   UNL     1       1.861  14.844  21.690  0.00  0.00    +0.000 A 
ATOM     28  C   UNL     1       1.177  13.655  21.419  0.00  0.00    +0.000 A 
ENDBRANCH   8  23
TORSDOF 2
ENDMDL
MODEL 6
REMARK VINA RESULT:      -7.3      2.761      4.071
REMARK  Name = 
REMARK  2 active torsions:
REMARK  status: ('A' for Active; 'I' for Inactive)
REMARK    1  A    between atoms: C_2  and  C_3
REMARK    2  A    between atoms: C_18  and  C_19
REMARK                            x       y       z     vdW  Elec       q    Type
REMARK                         _______ _______ _______ _____ _____    ______ ____
ROOT
ATOM      1  O   UNL     1       3.678   7.782  16.756  0.00  0.00    +0.000 OA
ATOM      2  C   UNL     1       3.308   7.199  17.774  0.00  0.00    +0.000 C 
ATOM      3  N   UNL     1       2.420   7.693  18.691  0.00  0.00    +0.000 N 
ATOM      4  C   UNL     1       1.565   6.919  19.643  0.00  0.00    +0.000 C 
ATOM      5  C   UNL     1       1.543   7.823  20.865  0.00  0.00    +0.000 C 
ATOM      6  C   UNL     1       1.281   9.065  20.065  0.00  0.00    +0.000 A 
ATOM      7  C   UNL     1       0.148   9.821  20.185  0.00  0.00    +0.000 A 
ATOM      8  C   UNL     1      -0.275  10.532  19.058  0.00  0.00    +0.000 A 
ATOM      9  C   UNL     1       0.661  10.752  18.006  0.00  0.00    +0.000 A 
ATOM     10  C   UNL     1       1.839  10.001  17.903  0.00  0.00    +0.000 A 
ATOM     11  C   UNL     1       1.988   9.025  18.857  0.00  0.00    +0.000 A 
ENDROOT
BRANCH   2  12
ATOM     12  C   UNL     1       3.966   5.912  18.162  0.00  0.00    +0.000 A 
ATOM     13  C   UNL     1       5.130   5.921  18.847  0.00  0.00    +0.000 A 
ATOM     14  C   UNL     1       5.684   4.699  19.418  0.00  0.00    +0.000 A 
ATOM     15  C   UNL     1       5.012   3.544  19.329  0.00  0.00    +0.000 A 
ATOM     16  N   UNL     1       3.853   3.500  18.604  0.00  0.00    +0.000 N 
ATOM     17  C   UNL     1       3.008   2.460  18.348  0.00  0.00    +0.000 A 
ATOM     18  O   UNL     1       3.058   1.314  18.759  0.00  0.00    +0.000 OA
ATOM     19  N   UNL     1       2.022   2.981  17.515  0.00  0.00    +0.000 N 
ATOM     20  N   UNL     1       2.190   4.317  17.369  0.00  0.00    +0.000 NA
ATOM     21  C   UNL     1       3.292   4.590  18.011  0.00  0.00    +0.000 A 
ATOM     22  H   UNL     1       1.210   2.495  17.152  0.00  0.00    +0.000 HD
ENDBRANCH   2  12
BRANCH   8  23
ATOM     23  C   UNL     1      -1.734  10.743  18.883  0.00  0.00    +0.000 A 
ATOM     24  C   UNL     1      -2.476  10.005  17.938  0.00  0.00    +0.000 A 
ATOM     25  C   UNL     1      -3.800  10.321  17.633  0.00  0.00    +0.000 A 
ATOM     26  C   UNL     1      -4.428  11.373  18.286  0.00  0.00    +0.000 A 
ATOM     27  C   UNL     1      -3.723  12.127  19.219  0.00  0.00    +0.000 A 
ATOM     28  C   UNL     1      -2.388  11.824  19.500  0.00  0.00    +0.000 A 
ENDBRANCH   8  23
TORSDOF 2
ENDMDL
MODEL 7
REMARK VINA RESULT:      -7.2      6.034     10.551
REMARK  Name = 
REMARK  2 active torsions:
REMARK  status: ('A' for Active; 'I' for Inactive)
REMARK    1  A    between atoms: C_2  and  C_3
REMARK    2  A    between atoms: C_18  and  C_19
REMARK                            x       y       z     vdW  Elec       q    Type
REMARK                         _______ _______ _______ _____ _____    ______ ____
ROOT
ATOM      1  O   UNL     1      -1.927  14.437  22.097  0.00  0.00    +0.000 OA
ATOM      2  C   UNL     1      -2.739  13.775  21.454  0.00  0.00    +0.000 C 
ATOM      3  N   UNL     1      -2.428  12.909  20.439  0.00  0.00    +0.000 N 
ATOM      4  C   UNL     1      -3.232  11.746  19.953  0.00  0.00    +0.000 C 
ATOM      5  C   UNL     1      -2.954  11.763  18.458  0.00  0.00    +0.000 C 
ATOM      6  C   UNL     1      -1.478  11.959  18.634  0.00  0.00    +0.000 A 
ATOM      7  C   UNL     1      -0.538  11.054  18.225  0.00  0.00    +0.000 A 
ATOM      8  C   UNL     1       0.667  11.010  18.933  0.00  0.00    +0.000 A 
ATOM      9  C   UNL     1       1.011  12.125  19.751  0.00  0.00    +0.000 A 
ATOM     10  C   UNL     1       0.055  13.072  20.141  0.00  0.00    +0.000 A 
ATOM     11  C   UNL     1      -1.223  12.813  19.713  0.00  0.00    +0.000 A 
ENDROOT
BRANCH   2  12
ATOM     12  C   UNL     1      -4.203  14.011  21.656  0.00  0.00    +0.000 A 
ATOM     13  C   UNL     1      -4.918  14.689  20.733  0.00  0.00    +0.000 A 
ATOM     14  C   UNL     1      -6.374  14.754  20.797  0.00  0.00    +0.000 A 
ATOM     15  C   UNL     1      -7.040  14.082  21.744  0.00  0.00    +0.000 A 
ATOM     16  N   UNL     1      -6.338  13.422  22.715  0.00  0.00    +0.000 N 
ATOM     17  C   UNL     1      -6.775  12.694  23.783  0.00  0.00    +0.000 A 
ATOM     18  O   UNL     1      -7.917  12.408  24.099  0.00  0.00    +0.000 OA
ATOM     19  N   UNL     1      -5.623  12.302  24.458  0.00  0.00    +0.000 N 
ATOM     20  N   UNL     1      -4.522  12.671  23.761  0.00  0.00    +0.000 NA
ATOM     21  C   UNL     1      -4.979  13.348  22.744  0.00  0.00    +0.000 A 
ATOM     22  H   UNL     1      -5.569  11.718  25.284  0.00  0.00    +0.000 HD
ENDBRANCH   2  12
BRANCH   8  23
ATOM     23  C   UNL     1       1.358   9.700  19.039  0.00  0.00    +0.000 A 
ATOM     24  C   UNL     1       1.940   9.083  17.913  0.00  0.00    +0.000 A 
ATOM     25  C   UNL     1       2.425   7.775  17.960  0.00  0.00    +0.000 A 
ATOM     26  C   UNL     1       2.363   7.057  19.146  0.00  0.00    +0.000 A 
ATOM     27  C   UNL     1       1.788   7.633  20.274  0.00  0.00    +0.000 A 
ATOM     28  C   UNL     1       1.278   8.933  20.215  0.00  0.00    +0.000 A 
ENDBRANCH   8  23
TORSDOF 2
ENDMDL
MODEL 8
REMARK VINA RESULT:      -7.2      2.445      3.443
REMARK  Name = 
REMARK  2 active torsions:
REMARK  status: ('A' for Active; 'I' for Inactive)
REMARK    1  A    between atoms: C_2  and  C_3
REMARK    2  A    between atoms: C_18  and  C_19
REMARK                            x       y       z     vdW  Elec       q    Type
REMARK                         _______ _______ _______ _____ _____    ______ ____
ROOT
ATOM      1  O   UNL     1       1.717   8.391  21.465  0.00  0.00    +0.000 OA
ATOM      2  C   UNL     1       1.556   8.423  20.247  0.00  0.00    +0.000 C 
ATOM      3  N   UNL     1       0.722   9.280  19.581  0.00  0.00    +0.000 N 
ATOM      4  C   UNL     1       0.816   9.722  18.155  0.00  0.00    +0.000 C 
ATOM      5  C   UNL     1      -0.647   9.842  17.758  0.00  0.00    +0.000 C 
ATOM      6  C   UNL     1      -1.030  10.573  19.010  0.00  0.00    +0.000 A 
ATOM      7  C   UNL     1      -1.514  11.852  19.026  0.00  0.00    +0.000 A 
ATOM      8  C   UNL     1      -1.264  12.622  20.166  0.00  0.00    +0.000 A 
ATOM      9  C   UNL     1      -0.889  11.952  21.365  0.00  0.00    +0.000 A 
ATOM     10  C   UNL     1      -0.426  10.629  21.354  0.00  0.00    +0.000 A 
ATOM     11  C   UNL     1      -0.326  10.064  20.108  0.00  0.00    +0.000 A 
ENDROOT
BRANCH   2  12
ATOM     12  C   UNL     1       2.181   7.362  19.396  0.00  0.00    +0.000 A 
ATOM     13  C   UNL     1       2.920   7.701  18.318  0.00  0.00    +0.000 A 
ATOM     14  C   UNL     1       3.710   6.709  17.596  0.00  0.00    +0.000 A 
ATOM     15  C   UNL     1       3.769   5.444  18.031  0.00  0.00    +0.000 A 
ATOM     16  N   UNL     1       2.997   5.066  19.095  0.00  0.00    +0.000 N 
ATOM     17  C   UNL     1       2.864   3.853  19.704  0.00  0.00    +0.000 A 
ATOM     18  O   UNL     1       3.455   2.813  19.476  0.00  0.00    +0.000 OA
ATOM     19  N   UNL     1       1.904   4.042  20.695  0.00  0.00    +0.000 N 
ATOM     20  N   UNL     1       1.556   5.349  20.768  0.00  0.00    +0.000 NA
ATOM     21  C   UNL     1       2.206   5.925  19.796  0.00  0.00    +0.000 A 
ATOM     22  H   UNL     1       1.579   3.357  21.368  0.00  0.00    +0.000 HD
ENDBRANCH   2  12
BRANCH   8  23
ATOM     23  C   UNL     1      -1.102  14.087  19.987  0.00  0.00    +0.000 A 
ATOM     24  C   UNL     1      -1.908  15.007  20.687  0.00  0.00    +0.000 A 
ATOM     25  C   UNL     1      -1.895  16.371  20.391  0.00  0.00    +0.000 A 
ATOM     26  C   UNL     1      -1.053  16.855  19.400  0.00  0.00    +0.000 A 
ATOM     27  C   UNL     1      -0.249  15.974  18.684  0.00  0.00    +0.000 A 
ATOM     28  C   UNL     1      -0.287  14.605  18.964  0.00  0.00    +0.000 A 
ENDBRANCH   8  23
TORSDOF 2
ENDMDL
MODEL 9
REMARK VINA RESULT:      -7.1      5.742     10.428
REMARK  Name = 
REMARK  2 active torsions:
REMARK  status: ('A' for Active; 'I' for Inactive)
REMARK    1  A    between atoms: C_2  and  C_3
REMARK    2  A    between atoms: C_18  and  C_19
REMARK                            x       y       z     vdW  Elec       q    Type
REMARK                         _______ _______ _______ _____ _____    ______ ____
ROOT
ATOM      1  O   UNL     1      -3.288  11.562  23.537  0.00  0.00    +0.000 OA
ATOM      2  C   UNL     1      -3.089  12.269  22.552  0.00  0.00    +0.000 C 
ATOM      3  N   UNL     1      -1.981  12.214  21.749  0.00  0.00    +0.000 N 
ATOM      4  C   UNL     1      -1.864  12.648  20.323  0.00  0.00    +0.000 C 
ATOM      5  C   UNL     1      -0.445  13.192  20.266  0.00  0.00    +0.000 C 
ATOM      6  C   UNL     1       0.138  12.028  21.010  0.00  0.00    +0.000 A 
ATOM      7  C   UNL     1       1.050  11.163  20.474  0.00  0.00    +0.000 A 
ATOM      8  C   UNL     1       1.061   9.852  20.960  0.00  0.00    +0.000 A 
ATOM      9  C   UNL     1       0.432   9.590  22.211  0.00  0.00    +0.000 A 
ATOM     10  C   UNL     1      -0.478  10.493  22.779  0.00  0.00    +0.000 A 
ATOM     11  C   UNL     1      -0.737  11.606  22.019  0.00  0.00    +0.000 A 
ENDROOT
BRANCH   2  12
ATOM     12  C   UNL     1      -4.029  13.395  22.254  0.00  0.00    +0.000 A 
ATOM     13  C   UNL     1      -3.652  14.673  22.471  0.00  0.00    +0.000 A 
ATOM     14  C   UNL     1      -4.457  15.793  21.998  0.00  0.00    +0.000 A 
ATOM     15  C   UNL     1      -5.565  15.574  21.278  0.00  0.00    +0.000 A 
ATOM     16  N   UNL     1      -5.991  14.290  21.081  0.00  0.00    +0.000 N 
ATOM     17  C   UNL     1      -7.080  13.811  20.413  0.00  0.00    +0.000 A 
ATOM     18  O   UNL     1      -7.917  14.425  19.774  0.00  0.00    +0.000 OA
ATOM     19  N   UNL     1      -7.040  12.430  20.584  0.00  0.00    +0.000 N 
ATOM     20  N   UNL     1      -5.903  12.070  21.226  0.00  0.00    +0.000 NA
ATOM     21  C   UNL     1      -5.313  13.194  21.523  0.00  0.00    +0.000 A 
ATOM     22  H   UNL     1      -7.680  11.748  20.194  0.00  0.00    +0.000 HD
ENDBRANCH   2  12
BRANCH   8  23
ATOM     23  C   UNL     1       1.446   8.770  20.020  0.00  0.00    +0.000 A 
ATOM     24  C   UNL     1       1.916   7.524  20.484  0.00  0.00    +0.000 A 
ATOM     25  C   UNL     1       2.455   6.572  19.618  0.00  0.00    +0.000 A 
ATOM     26  C   UNL     1       2.513   6.831  18.255  0.00  0.00    +0.000 A 
ATOM     27  C   UNL     1       2.064   8.053  17.764  0.00  0.00    +0.000 A 
ATOM     28  C   UNL     1       1.552   9.015  18.639  0.00  0.00    +0.000 A 
ENDBRANCH   8  23
TORSDOF 2
ENDMDL
