MODEL 1
REMARK VINA RESULT:      -8.8      0.000      0.000
REMARK  Name = 
REMARK  4 active torsions:
REMARK  status: ('A' for Active; 'I' for Inactive)
REMARK    1  A    between atoms: C_1  and  C_2
REMARK    2  A    between atoms: C_6  and  C_7
REMARK    3  A    between atoms: N_9  and  C_10
REMARK    4  A    between atoms: N_21  and  C_22
REMARK                            x       y       z     vdW  Elec       q    Type
REMARK                         _______ _______ _______ _____ _____    ______ ____
ROOT
ATOM      1  C   UNL     1       4.689   3.469  19.325  0.00  0.00    +0.000 C 
ATOM      2  C   UNL     1       3.864   4.708  19.092  0.00  0.00    +0.000 A 
ATOM      3  C   UNL     1       3.005   5.057  20.057  0.00  0.00    +0.000 A 
ATOM      4  C   UNL     1       2.279   6.317  19.898  0.00  0.00    +0.000 A 
ATOM      5  O   UNL     1       1.464   6.728  20.776  0.00  0.00    +0.000 OA
ATOM      6  C   UNL     1       2.545   7.151  18.698  0.00  0.00    +0.000 A 
ATOM      7  N   UNL     1       3.387   6.719  17.792  0.00  0.00    +0.000 NA
ATOM      8  N   UNL     1       4.055   5.517  17.939  0.00  0.00    +0.000 N 
ENDROOT
BRANCH   8   9
ATOM      9  C   UNL     1       5.018   5.232  16.904  0.00  0.00    +0.000 A 
ATOM     10  C   UNL     1       4.710   4.402  15.804  0.00  0.00    +0.000 A 
ATOM     11  C   UNL     1       5.673   4.002  14.863  0.00  0.00    +0.000 A 
ATOM     12  C   UNL     1       6.975   4.481  14.952  0.00  0.00    +0.000 A 
ATOM     13  C   UNL     1       7.291   5.373  15.974  0.00  0.00    +0.000 A 
ATOM     14  C   UNL     1       6.330   5.734  16.929  0.00  0.00    +0.000 A 
ATOM     15  F   UNL     1       6.741   6.548  17.918  0.00  0.00    +0.000 F 
ENDBRANCH   8   9
BRANCH   6  16
ATOM     16  C   UNL     1       1.905   8.519  18.450  0.00  0.00    +0.000 C 
ATOM     17  O   UNL     1       2.186   9.025  17.363  0.00  0.00    +0.000 OA
ATOM     18  N   UNL     1       1.097   9.151  19.428  0.00  0.00    +0.000 N 
ATOM     19  H   UNL     1       1.167   8.867  20.408  0.00  0.00    +0.000 HD
BRANCH  18  20
ATOM     20  C   UNL     1       0.468  10.430  19.154  0.00  0.00    +0.000 A 
ATOM     21  C   UNL     1       1.115  11.595  19.604  0.00  0.00    +0.000 A 
ATOM     22  C   UNL     1       0.472  12.824  19.663  0.00  0.00    +0.000 A 
ATOM     23  C   UNL     1      -0.869  12.880  19.357  0.00  0.00    +0.000 A 
ATOM     24  C   UNL     1      -1.471  11.769  18.754  0.00  0.00    +0.000 A 
ATOM     25  C   UNL     1      -2.771  11.897  18.305  0.00  0.00    +0.000 A 
ATOM     26  C   UNL     1      -3.101  11.330  17.106  0.00  0.00    +0.000 A 
ATOM     27  C   UNL     1      -2.318  10.253  16.741  0.00  0.00    +0.000 A 
ATOM     28  N   UNL     1      -1.268   9.778  17.486  0.00  0.00    +0.000 NA
ATOM     29  C   UNL     1      -0.760  10.588  18.454  0.00  0.00    +0.000 A 
ENDBRANCH  18  20
ENDBRANCH   6  16
TORSDOF 3
ENDMDL
MODEL 2
REMARK VINA RESULT:      -8.6      0.903      1.272
REMARK  Name = 
REMARK  4 active torsions:
REMARK  status: ('A' for Active; 'I' for Inactive)
REMARK    1  A    between atoms: C_1  and  C_2
REMARK    2  A    between atoms: C_6  and  C_7
REMARK    3  A    between atoms: N_9  and  C_10
REMARK    4  A    between atoms: N_21  and  C_22
REMARK                            x       y       z     vdW  Elec       q    Type
REMARK                         _______ _______ _______ _____ _____    ______ ____
ROOT
ATOM      1  C   UNL     1       4.629   3.523  19.644  0.00  0.00    +0.000 C 
ATOM      2  C   UNL     1       3.816   4.752  19.328  0.00  0.00    +0.000 A 
ATOM      3  C   UNL     1       2.916   5.136  20.240  0.00  0.00    +0.000 A 
ATOM      4  C   UNL     1       2.198   6.389  20.002  0.00  0.00    +0.000 A 
ATOM      5  O   UNL     1       1.346   6.832  20.827  0.00  0.00    +0.000 OA
ATOM      6  C   UNL     1       2.517   7.177  18.784  0.00  0.00    +0.000 A 
ATOM      7  N   UNL     1       3.399   6.712  17.933  0.00  0.00    +0.000 NA
ATOM      8  N   UNL     1       4.058   5.517  18.155  0.00  0.00    +0.000 N 
ENDROOT
BRANCH   8   9
ATOM      9  C   UNL     1       5.066   5.194  17.175  0.00  0.00    +0.000 A 
ATOM     10  C   UNL     1       6.313   5.856  17.140  0.00  0.00    +0.000 A 
ATOM     11  C   UNL     1       7.250   5.654  16.113  0.00  0.00    +0.000 A 
ATOM     12  C   UNL     1       6.998   4.721  15.114  0.00  0.00    +0.000 A 
ATOM     13  C   UNL     1       5.816   3.986  15.168  0.00  0.00    +0.000 A 
ATOM     14  C   UNL     1       4.873   4.224  16.178  0.00  0.00    +0.000 A 
ATOM     15  F   UNL     1       3.731   3.514  16.115  0.00  0.00    +0.000 F 
ENDBRANCH   8   9
BRANCH   6  16
ATOM     16  C   UNL     1       1.890   8.534  18.457  0.00  0.00    +0.000 C 
ATOM     17  O   UNL     1       2.189   8.981  17.349  0.00  0.00    +0.000 OA
ATOM     18  N   UNL     1       1.073   9.221  19.389  0.00  0.00    +0.000 N 
ATOM     19  H   UNL     1       1.129   8.987  20.384  0.00  0.00    +0.000 HD
BRANCH  18  20
ATOM     20  C   UNL     1       0.456  10.488  19.040  0.00  0.00    +0.000 A 
ATOM     21  C   UNL     1       1.124  11.671  19.406  0.00  0.00    +0.000 A 
ATOM     22  C   UNL     1       0.497  12.909  19.393  0.00  0.00    +0.000 A 
ATOM     23  C   UNL     1      -0.847  12.963  19.100  0.00  0.00    +0.000 A 
ATOM     24  C   UNL     1      -1.470  11.823  18.578  0.00  0.00    +0.000 A 
ATOM     25  C   UNL     1      -2.775  11.939  18.138  0.00  0.00    +0.000 A 
ATOM     26  C   UNL     1      -3.127  11.300  16.983  0.00  0.00    +0.000 A 
ATOM     27  C   UNL     1      -2.363  10.192  16.679  0.00  0.00    +0.000 A 
ATOM     28  N   UNL     1      -1.309   9.752  17.440  0.00  0.00    +0.000 NA
ATOM     29  C   UNL     1      -0.779  10.616  18.347  0.00  0.00    +0.000 A 
ENDBRANCH  18  20
ENDBRANCH   6  16
TORSDOF 3
ENDMDL
MODEL 3
REMARK VINA RESULT:      -8.4      0.961      2.384
REMARK  Name = 
REMARK  4 active torsions:
REMARK  status: ('A' for Active; 'I' for Inactive)
REMARK    1  A    between atoms: C_1  and  C_2
REMARK    2  A    between atoms: C_6  and  C_7
REMARK    3  A    between atoms: N_9  and  C_10
REMARK    4  A    between atoms: N_21  and  C_22
REMARK                            x       y       z     vdW  Elec       q    Type
REMARK                         _______ _______ _______ _____ _____    ______ ____
ROOT
ATOM      1  C   UNL     1       4.709   3.683  19.346  0.00  0.00    +0.000 C 
ATOM      2  C   UNL     1       3.860   4.910  19.129  0.00  0.00    +0.000 A 
ATOM      3  C   UNL     1       2.996   5.230  20.099  0.00  0.00    +0.000 A 
ATOM      4  C   UNL     1       2.246   6.478  19.956  0.00  0.00    +0.000 A 
ATOM      5  O   UNL     1       1.425   6.862  20.840  0.00  0.00    +0.000 OA
ATOM      6  C   UNL     1       2.494   7.331  18.766  0.00  0.00    +0.000 A 
ATOM      7  N   UNL     1       3.344   6.927  17.854  0.00  0.00    +0.000 NA
ATOM      8  N   UNL     1       4.035   5.736  17.986  0.00  0.00    +0.000 N 
ENDROOT
BRANCH   8   9
ATOM      9  C   UNL     1       5.002   5.482  16.947  0.00  0.00    +0.000 A 
ATOM     10  C   UNL     1       4.700   4.679  15.825  0.00  0.00    +0.000 A 
ATOM     11  C   UNL     1       5.667   4.309  14.876  0.00  0.00    +0.000 A 
ATOM     12  C   UNL     1       6.967   4.790  14.981  0.00  0.00    +0.000 A 
ATOM     13  C   UNL     1       7.277   5.657  16.026  0.00  0.00    +0.000 A 
ATOM     14  C   UNL     1       6.311   5.989  16.987  0.00  0.00    +0.000 A 
ATOM     15  F   UNL     1       6.716   6.779  17.999  0.00  0.00    +0.000 F 
ENDBRANCH   8   9
BRANCH   6  16
ATOM     16  C   UNL     1       1.829   8.690  18.536  0.00  0.00    +0.000 C 
ATOM     17  O   UNL     1       2.094   9.212  17.453  0.00  0.00    +0.000 OA
ATOM     18  N   UNL     1       1.015   9.297  19.525  0.00  0.00    +0.000 N 
ATOM     19  H   UNL     1       1.096   9.004  20.501  0.00  0.00    +0.000 HD
BRANCH  18  20
ATOM     20  C   UNL     1       0.361  10.567  19.267  0.00  0.00    +0.000 A 
ATOM     21  C   UNL     1      -0.895  10.547  18.633  0.00  0.00    +0.000 A 
ATOM     22  C   UNL     1      -1.462  11.686  18.077  0.00  0.00    +0.000 A 
ATOM     23  C   UNL     1      -0.727  12.850  18.069  0.00  0.00    +0.000 A 
ATOM     24  C   UNL     1       0.440  12.916  18.839  0.00  0.00    +0.000 A 
ATOM     25  C   UNL     1       1.077  14.138  18.950  0.00  0.00    +0.000 A 
ATOM     26  C   UNL     1       1.581  14.496  20.168  0.00  0.00    +0.000 A 
ATOM     27  C   UNL     1       1.908  13.438  20.992  0.00  0.00    +0.000 A 
ATOM     28  N   UNL     1       1.732  12.119  20.657  0.00  0.00    +0.000 NA
ATOM     29  C   UNL     1       0.900  11.835  19.618  0.00  0.00    +0.000 A 
ENDBRANCH  18  20
ENDBRANCH   6  16
TORSDOF 3
ENDMDL
MODEL 4
REMARK VINA RESULT:      -8.2      1.381      2.765
REMARK  Name = 
REMARK  4 active torsions:
REMARK  status: ('A' for Active; 'I' for Inactive)
REMARK    1  A    between atoms: C_1  and  C_2
REMARK    2  A    between atoms: C_6  and  C_7
REMARK    3  A    between atoms: N_9  and  C_10
REMARK    4  A    between atoms: N_21  and  C_22
REMARK                            x       y       z     vdW  Elec       q    Type
REMARK                         _______ _______ _______ _____ _____    ______ ____
ROOT
ATOM      1  C   UNL     1       4.341   3.596  19.751  0.00  0.00    +0.000 C 
ATOM      2  C   UNL     1       3.565   4.856  19.465  0.00  0.00    +0.000 A 
ATOM      3  C   UNL     1       2.652   5.225  20.370  0.00  0.00    +0.000 A 
ATOM      4  C   UNL     1       1.969   6.503  20.165  0.00  0.00    +0.000 A 
ATOM      5  O   UNL     1       1.108   6.934  20.987  0.00  0.00    +0.000 OA
ATOM      6  C   UNL     1       2.336   7.330  18.987  0.00  0.00    +0.000 A 
ATOM      7  N   UNL     1       3.227   6.878  18.139  0.00  0.00    +0.000 NA
ATOM      8  N   UNL     1       3.854   5.659  18.329  0.00  0.00    +0.000 N 
ENDROOT
BRANCH   8   9
ATOM      9  C   UNL     1       4.877   5.351  17.362  0.00  0.00    +0.000 A 
ATOM     10  C   UNL     1       6.103   6.051  17.322  0.00  0.00    +0.000 A 
ATOM     11  C   UNL     1       7.053   5.860  16.304  0.00  0.00    +0.000 A 
ATOM     12  C   UNL     1       6.836   4.903  15.320  0.00  0.00    +0.000 A 
ATOM     13  C   UNL     1       5.678   4.132  15.380  0.00  0.00    +0.000 A 
ATOM     14  C   UNL     1       4.721   4.359  16.380  0.00  0.00    +0.000 A 
ATOM     15  F   UNL     1       3.602   3.613  16.323  0.00  0.00    +0.000 F 
ENDBRANCH   8   9
BRANCH   6  16
ATOM     16  C   UNL     1       1.749   8.714  18.699  0.00  0.00    +0.000 C 
ATOM     17  O   UNL     1       2.037   9.171  17.593  0.00  0.00    +0.000 OA
ATOM     18  N   UNL     1       0.978   9.411  19.663  0.00  0.00    +0.000 N 
ATOM     19  H   UNL     1       1.048   9.157  20.651  0.00  0.00    +0.000 HD
BRANCH  18  20
ATOM     20  C   UNL     1       0.396  10.704  19.352  0.00  0.00    +0.000 A 
ATOM     21  C   UNL     1      -0.868  10.729  18.736  0.00  0.00    +0.000 A 
ATOM     22  C   UNL     1      -1.375  11.871  18.131  0.00  0.00    +0.000 A 
ATOM     23  C   UNL     1      -0.572  12.987  18.056  0.00  0.00    +0.000 A 
ATOM     24  C   UNL     1       0.609  13.020  18.807  0.00  0.00    +0.000 A 
ATOM     25  C   UNL     1       1.320  14.205  18.849  0.00  0.00    +0.000 A 
ATOM     26  C   UNL     1       1.864  14.591  20.041  0.00  0.00    +0.000 A 
ATOM     27  C   UNL     1       2.140  13.556  20.912  0.00  0.00    +0.000 A 
ATOM     28  N   UNL     1       1.880  12.236  20.645  0.00  0.00    +0.000 NA
ATOM     29  C   UNL     1       1.016  11.952  19.632  0.00  0.00    +0.000 A 
ENDBRANCH  18  20
ENDBRANCH   6  16
TORSDOF 3
ENDMDL
MODEL 5
REMARK VINA RESULT:      -8.0      3.488      8.473
REMARK  Name = 
REMARK  4 active torsions:
REMARK  status: ('A' for Active; 'I' for Inactive)
REMARK    1  A    between atoms: C_1  and  C_2
REMARK    2  A    between atoms: C_6  and  C_7
REMARK    3  A    between atoms: N_9  and  C_10
REMARK    4  A    between atoms: N_21  and  C_22
REMARK                            x       y       z     vdW  Elec       q    Type
REMARK                         _______ _______ _______ _____ _____    ______ ____
ROOT
ATOM      1  C   UNL     1      -1.077  13.243  22.780  0.00  0.00    +0.000 C 
ATOM      2  C   UNL     1      -0.412  12.047  22.149  0.00  0.00    +0.000 A 
ATOM      3  C   UNL     1      -0.797  10.840  22.580  0.00  0.00    +0.000 A 
ATOM      4  C   UNL     1      -0.245   9.668  21.900  0.00  0.00    +0.000 A 
ATOM      5  O   UNL     1      -0.575   8.492  22.234  0.00  0.00    +0.000 OA
ATOM      6  C   UNL     1       0.688   9.872  20.763  0.00  0.00    +0.000 A 
ATOM      7  N   UNL     1       1.027  11.092  20.424  0.00  0.00    +0.000 NA
ATOM      8  N   UNL     1       0.517  12.195  21.084  0.00  0.00    +0.000 N 
ENDROOT
BRANCH   8   9
ATOM      9  C   UNL     1       0.912  13.465  20.528  0.00  0.00    +0.000 A 
ATOM     10  C   UNL     1       2.060  14.153  20.978  0.00  0.00    +0.000 A 
ATOM     11  C   UNL     1       2.384  15.451  20.549  0.00  0.00    +0.000 A 
ATOM     12  C   UNL     1       1.598  16.084  19.593  0.00  0.00    +0.000 A 
ATOM     13  C   UNL     1       0.508  15.399  19.062  0.00  0.00    +0.000 A 
ATOM     14  C   UNL     1       0.175  14.118  19.527  0.00  0.00    +0.000 A 
ATOM     15  F   UNL     1      -0.932  13.558  19.005  0.00  0.00    +0.000 F 
ENDBRANCH   8   9
BRANCH   6  16
ATOM     16  C   UNL     1       1.277   8.734  19.927  0.00  0.00    +0.000 C 
ATOM     17  O   UNL     1       1.246   8.924  18.711  0.00  0.00    +0.000 OA
ATOM     18  N   UNL     1       1.769   7.547  20.526  0.00  0.00    +0.000 N 
ATOM     19  H   UNL     1       1.474   7.294  21.472  0.00  0.00    +0.000 HD
BRANCH  18  20
ATOM     20  C   UNL     1       2.362   6.499  19.715  0.00  0.00    +0.000 A 
ATOM     21  C   UNL     1       3.504   6.815  18.958  0.00  0.00    +0.000 A 
ATOM     22  C   UNL     1       3.966   5.996  17.936  0.00  0.00    +0.000 A 
ATOM     23  C   UNL     1       3.225   4.886  17.598  0.00  0.00    +0.000 A 
ATOM     24  C   UNL     1       2.190   4.480  18.448  0.00  0.00    +0.000 A 
ATOM     25  C   UNL     1       1.564   3.277  18.183  0.00  0.00    +0.000 A 
ATOM     26  C   UNL     1       1.250   2.465  19.236  0.00  0.00    +0.000 A 
ATOM     27  C   UNL     1       1.066   3.121  20.437  0.00  0.00    +0.000 A 
ATOM     28  N   UNL     1       1.204   4.476  20.602  0.00  0.00    +0.000 NA
ATOM     29  C   UNL     1       1.868   5.168  19.637  0.00  0.00    +0.000 A 
ENDBRANCH  18  20
ENDBRANCH   6  16
TORSDOF 3
ENDMDL
MODEL 6
REMARK VINA RESULT:      -7.9      1.073      1.261
REMARK  Name = 
REMARK  4 active torsions:
REMARK  status: ('A' for Active; 'I' for Inactive)
REMARK    1  A    between atoms: C_1  and  C_2
REMARK    2  A    between atoms: C_6  and  C_7
REMARK    3  A    between atoms: N_9  and  C_10
REMARK    4  A    between atoms: N_21  and  C_22
REMARK                            x       y       z     vdW  Elec       q    Type
REMARK                         _______ _______ _______ _____ _____    ______ ____
ROOT
ATOM      1  C   UNL     1       4.214   2.495  18.865  0.00  0.00    +0.000 C 
ATOM      2  C   UNL     1       3.533   3.838  18.924  0.00  0.00    +0.000 A 
ATOM      3  C   UNL     1       2.599   4.005  19.867  0.00  0.00    +0.000 A 
ATOM      4  C   UNL     1       2.008   5.336  20.010  0.00  0.00    +0.000 A 
ATOM      5  O   UNL     1       1.134   5.581  20.893  0.00  0.00    +0.000 OA
ATOM      6  C   UNL     1       2.485   6.430  19.127  0.00  0.00    +0.000 A 
ATOM      7  N   UNL     1       3.388   6.170  18.214  0.00  0.00    +0.000 NA
ATOM      8  N   UNL     1       3.928   4.904  18.071  0.00  0.00    +0.000 N 
ENDROOT
BRANCH   8   9
ATOM      9  C   UNL     1       4.979   4.805  17.089  0.00  0.00    +0.000 A 
ATOM     10  C   UNL     1       4.709   4.520  15.732  0.00  0.00    +0.000 A 
ATOM     11  C   UNL     1       5.724   4.284  14.790  0.00  0.00    +0.000 A 
ATOM     12  C   UNL     1       7.059   4.394  15.162  0.00  0.00    +0.000 A 
ATOM     13  C   UNL     1       7.360   4.761  16.472  0.00  0.00    +0.000 A 
ATOM     14  C   UNL     1       6.337   4.958  17.411  0.00  0.00    +0.000 A 
ATOM     15  F   UNL     1       6.722   5.245  18.668  0.00  0.00    +0.000 F 
ENDBRANCH   8   9
BRANCH   6  16
ATOM     16  C   UNL     1       1.999   7.878  19.225  0.00  0.00    +0.000 C 
ATOM     17  O   UNL     1       1.912   8.312  20.374  0.00  0.00    +0.000 OA
ATOM     18  N   UNL     1       1.641   8.623  18.073  0.00  0.00    +0.000 N 
ATOM     19  H   UNL     1       1.409   8.136  17.204  0.00  0.00    +0.000 HD
BRANCH  18  20
ATOM     20  C   UNL     1       1.223  10.009  18.187  0.00  0.00    +0.000 A 
ATOM     21  C   UNL     1       2.219  11.003  18.171  0.00  0.00    +0.000 A 
ATOM     22  C   UNL     1       1.968  12.309  18.568  0.00  0.00    +0.000 A 
ATOM     23  C   UNL     1       0.726  12.614  19.079  0.00  0.00    +0.000 A 
ATOM     24  C   UNL     1      -0.308  11.680  18.943  0.00  0.00    +0.000 A 
ATOM     25  C   UNL     1      -1.583  12.063  19.314  0.00  0.00    +0.000 A 
ATOM     26  C   UNL     1      -2.629  11.676  18.525  0.00  0.00    +0.000 A 
ATOM     27  C   UNL     1      -2.409  10.525  17.795  0.00  0.00    +0.000 A 
ATOM     28  N   UNL     1      -1.235   9.814  17.816  0.00  0.00    +0.000 NA
ATOM     29  C   UNL     1      -0.128  10.433  18.310  0.00  0.00    +0.000 A 
ENDBRANCH  18  20
ENDBRANCH   6  16
TORSDOF 3
ENDMDL
MODEL 7
REMARK VINA RESULT:      -7.9      3.206      8.305
REMARK  Name = 
REMARK  4 active torsions:
REMARK  status: ('A' for Active; 'I' for Inactive)
REMARK    1  A    between atoms: C_1  and  C_2
REMARK    2  A    between atoms: C_6  and  C_7
REMARK    3  A    between atoms: N_9  and  C_10
REMARK    4  A    between atoms: N_21  and  C_22
REMARK                            x       y       z     vdW  Elec       q    Type
REMARK                         _______ _______ _______ _____ _____    ______ ____
ROOT
ATOM      1  C   UNL     1      -1.116  13.138  22.713  0.00  0.00    +0.000 C 
ATOM      2  C   UNL     1      -0.424  11.953  22.089  0.00  0.00    +0.000 A 
ATOM      3  C   UNL     1      -0.687  10.751  22.614  0.00  0.00    +0.000 A 
ATOM      4  C   UNL     1      -0.113   9.580  21.950  0.00  0.00    +0.000 A 
ATOM      5  O   UNL     1      -0.332   8.406  22.373  0.00  0.00    +0.000 OA
ATOM      6  C   UNL     1       0.704   9.778  20.727  0.00  0.00    +0.000 A 
ATOM      7  N   UNL     1       0.928  10.996  20.296  0.00  0.00    +0.000 NA
ATOM      8  N   UNL     1       0.399  12.100  20.940  0.00  0.00    +0.000 N 
ENDROOT
BRANCH   8   9
ATOM      9  C   UNL     1       0.657  13.359  20.287  0.00  0.00    +0.000 A 
ATOM     10  C   UNL     1      -0.320  14.004  19.497  0.00  0.00    +0.000 A 
ATOM     11  C   UNL     1      -0.045  15.157  18.743  0.00  0.00    +0.000 A 
ATOM     12  C   UNL     1       1.211  15.749  18.808  0.00  0.00    +0.000 A 
ATOM     13  C   UNL     1       2.171  15.189  19.647  0.00  0.00    +0.000 A 
ATOM     14  C   UNL     1       1.895  14.017  20.366  0.00  0.00    +0.000 A 
ATOM     15  F   UNL     1       2.903  13.509  21.099  0.00  0.00    +0.000 F 
ENDBRANCH   8   9
BRANCH   6  16
ATOM     16  C   UNL     1       1.299   8.634  19.902  0.00  0.00    +0.000 C 
ATOM     17  O   UNL     1       1.270   8.813  18.684  0.00  0.00    +0.000 OA
ATOM     18  N   UNL     1       1.794   7.455  20.514  0.00  0.00    +0.000 N 
ATOM     19  H   UNL     1       1.497   7.210  21.461  0.00  0.00    +0.000 HD
BRANCH  18  20
ATOM     20  C   UNL     1       2.392   6.401  19.714  0.00  0.00    +0.000 A 
ATOM     21  C   UNL     1       3.556   6.704  18.985  0.00  0.00    +0.000 A 
ATOM     22  C   UNL     1       4.031   5.882  17.972  0.00  0.00    +0.000 A 
ATOM     23  C   UNL     1       3.284   4.783  17.613  0.00  0.00    +0.000 A 
ATOM     24  C   UNL     1       2.224   4.389  18.437  0.00  0.00    +0.000 A 
ATOM     25  C   UNL     1       1.588   3.195  18.153  0.00  0.00    +0.000 A 
ATOM     26  C   UNL     1       1.238   2.384  19.195  0.00  0.00    +0.000 A 
ATOM     27  C   UNL     1       1.034   3.039  20.393  0.00  0.00    +0.000 A 
ATOM     28  N   UNL     1       1.186   4.391  20.566  0.00  0.00    +0.000 NA
ATOM     29  C   UNL     1       1.882   5.077  19.619  0.00  0.00    +0.000 A 
ENDBRANCH  18  20
ENDBRANCH   6  16
TORSDOF 3
ENDMDL
MODEL 8
REMARK VINA RESULT:      -7.9      2.263      3.977
REMARK  Name = 
REMARK  4 active torsions:
REMARK  status: ('A' for Active; 'I' for Inactive)
REMARK    1  A    between atoms: C_1  and  C_2
REMARK    2  A    between atoms: C_6  and  C_7
REMARK    3  A    between atoms: N_9  and  C_10
REMARK    4  A    between atoms: N_21  and  C_22
REMARK                            x       y       z     vdW  Elec       q    Type
REMARK                         _______ _______ _______ _____ _____    ______ ____
ROOT
ATOM      1  C   UNL     1       4.236   5.589  17.651  0.00  0.00    +0.000 C 
ATOM      2  C   UNL     1       3.334   6.698  18.129  0.00  0.00    +0.000 A 
ATOM      3  C   UNL     1       3.497   7.899  17.564  0.00  0.00    +0.000 A 
ATOM      4  C   UNL     1       2.557   8.958  17.934  0.00  0.00    +0.000 A 
ATOM      5  O   UNL     1       2.631  10.116  17.428  0.00  0.00    +0.000 OA
ATOM      6  C   UNL     1       1.465   8.644  18.890  0.00  0.00    +0.000 A 
ATOM      7  N   UNL     1       1.395   7.443  19.411  0.00  0.00    +0.000 NA
ATOM      8  N   UNL     1       2.299   6.453  19.072  0.00  0.00    +0.000 N 
ENDROOT
BRANCH   8   9
ATOM      9  C   UNL     1       2.028   5.163  19.656  0.00  0.00    +0.000 A 
ATOM     10  C   UNL     1       2.352   4.868  20.999  0.00  0.00    +0.000 A 
ATOM     11  C   UNL     1       2.223   3.580  21.544  0.00  0.00    +0.000 A 
ATOM     12  C   UNL     1       1.695   2.548  20.777  0.00  0.00    +0.000 A 
ATOM     13  C   UNL     1       1.282   2.826  19.476  0.00  0.00    +0.000 A 
ATOM     14  C   UNL     1       1.451   4.107  18.932  0.00  0.00    +0.000 A 
ATOM     15  F   UNL     1       1.085   4.268  17.647  0.00  0.00    +0.000 F 
ENDBRANCH   8   9
BRANCH   6  16
ATOM     16  C   UNL     1       0.378   9.639  19.302  0.00  0.00    +0.000 C 
ATOM     17  O   UNL     1      -0.021   9.511  20.459  0.00  0.00    +0.000 OA
ATOM     18  N   UNL     1      -0.142  10.593  18.391  0.00  0.00    +0.000 N 
ATOM     19  H   UNL     1      -0.035  10.446  17.384  0.00  0.00    +0.000 HD
BRANCH  18  20
ATOM     20  C   UNL     1      -1.143  11.554  18.817  0.00  0.00    +0.000 A 
ATOM     21  C   UNL     1      -0.753  12.558  19.722  0.00  0.00    +0.000 A 
ATOM     22  C   UNL     1      -1.675  13.329  20.416  0.00  0.00    +0.000 A 
ATOM     23  C   UNL     1      -3.013  13.037  20.277  0.00  0.00    +0.000 A 
ATOM     24  C   UNL     1      -3.411  12.160  19.261  0.00  0.00    +0.000 A 
ATOM     25  C   UNL     1      -4.765  12.004  19.031  0.00  0.00    +0.000 A 
ATOM     26  C   UNL     1      -5.196  11.932  17.736  0.00  0.00    +0.000 A 
ATOM     27  C   UNL     1      -4.256  11.467  16.839  0.00  0.00    +0.000 A 
ATOM     28  N   UNL     1      -2.973  11.119  17.179  0.00  0.00    +0.000 NA
ATOM     29  C   UNL     1      -2.495  11.556  18.376  0.00  0.00    +0.000 A 
ENDBRANCH  18  20
ENDBRANCH   6  16
TORSDOF 3
ENDMDL
MODEL 9
REMARK VINA RESULT:      -7.7      1.978      2.389
REMARK  Name = 
REMARK  4 active torsions:
REMARK  status: ('A' for Active; 'I' for Inactive)
REMARK    1  A    between atoms: C_1  and  C_2
REMARK    2  A    between atoms: C_6  and  C_7
REMARK    3  A    between atoms: N_9  and  C_10
REMARK    4  A    between atoms: N_21  and  C_22
REMARK                            x       y       z     vdW  Elec       q    Type
REMARK                         _______ _______ _______ _____ _____    ______ ____
ROOT
ATOM      1  C   UNL     1       3.618   1.830  18.139  0.00  0.00    +0.000 C 
ATOM      2  C   UNL     1       3.065   3.163  18.574  0.00  0.00    +0.000 A 
ATOM      3  C   UNL     1       2.019   3.143  19.407  0.00  0.00    +0.000 A 
ATOM      4  C   UNL     1       1.541   4.424  19.928  0.00  0.00    +0.000 A 
ATOM      5  O   UNL     1       0.569   4.489  20.737  0.00  0.00    +0.000 OA
ATOM      6  C   UNL     1       2.247   5.668  19.529  0.00  0.00    +0.000 A 
ATOM      7  N   UNL     1       3.251   5.594  18.690  0.00  0.00    +0.000 NA
ATOM      8  N   UNL     1       3.685   4.381  18.186  0.00  0.00    +0.000 N 
ENDROOT
BRANCH   8   9
ATOM      9  C   UNL     1       4.859   4.460  17.352  0.00  0.00    +0.000 A 
ATOM     10  C   UNL     1       4.786   4.348  15.946  0.00  0.00    +0.000 A 
ATOM     11  C   UNL     1       5.928   4.284  15.131  0.00  0.00    +0.000 A 
ATOM     12  C   UNL     1       7.194   4.401  15.694  0.00  0.00    +0.000 A 
ATOM     13  C   UNL     1       7.298   4.602  17.069  0.00  0.00    +0.000 A 
ATOM     14  C   UNL     1       6.152   4.627  17.875  0.00  0.00    +0.000 A 
ATOM     15  F   UNL     1       6.351   4.760  19.200  0.00  0.00    +0.000 F 
ENDBRANCH   8   9
BRANCH   6  16
ATOM     16  C   UNL     1       1.892   7.059  20.059  0.00  0.00    +0.000 C 
ATOM     17  O   UNL     1       2.735   7.926  19.827  0.00  0.00    +0.000 OA
ATOM     18  N   UNL     1       0.703   7.294  20.794  0.00  0.00    +0.000 N 
ATOM     19  H   UNL     1       0.219   6.513  21.243  0.00  0.00    +0.000 HD
BRANCH  18  20
ATOM     20  C   UNL     1       0.367   8.631  21.251  0.00  0.00    +0.000 A 
ATOM     21  C   UNL     1       0.417   8.890  22.632  0.00  0.00    +0.000 A 
ATOM     22  C   UNL     1      -0.162  10.018  23.196  0.00  0.00    +0.000 A 
ATOM     23  C   UNL     1      -0.886  10.861  22.384  0.00  0.00    +0.000 A 
ATOM     24  C   UNL     1      -0.800  10.700  20.996  0.00  0.00    +0.000 A 
ATOM     25  C   UNL     1      -1.400  11.651  20.192  0.00  0.00    +0.000 A 
ATOM     26  C   UNL     1      -0.738  12.060  19.069  0.00  0.00    +0.000 A 
ATOM     27  C   UNL     1       0.146  11.135  18.550  0.00  0.00    +0.000 A 
ATOM     28  N   UNL     1       0.384   9.903  19.105  0.00  0.00    +0.000 NA
ATOM     29  C   UNL     1      -0.006   9.702  20.393  0.00  0.00    +0.000 A 
ENDBRANCH  18  20
ENDBRANCH   6  16
TORSDOF 3
ENDMDL
