MODEL 1
REMARK VINA RESULT:      -9.1      0.000      0.000
REMARK  Name = 
REMARK  3 active torsions:
REMARK  status: ('A' for Active; 'I' for Inactive)
REMARK    1  A    between atoms: C_6  and  C_7
REMARK    2  A    between atoms: C_6  and  C_22
REMARK    3  A    between atoms: C_9  and  C_10
REMARK                            x       y       z     vdW  Elec       q    Type
REMARK                         _______ _______ _______ _____ _____    ______ ____
ROOT
ATOM      1  C   UNL     1       3.358   4.806  19.157  0.00  0.00    +0.000 A 
ATOM      2  N   UNL     1       3.055   6.051  18.856  0.00  0.00    +0.000 NA
ATOM      3  C   UNL     1       2.305   6.450  19.946  0.00  0.00    +0.000 A 
ATOM      4  N   UNL     1       2.154   5.497  20.877  0.00  0.00    +0.000 NA
ATOM      5  O   UNL     1       2.851   4.415  20.364  0.00  0.00    +0.000 OA
ENDROOT
BRANCH   3   6
ATOM      6  C   UNL     1       1.729   7.784  20.057  0.00  0.00    +0.000 A 
ATOM      7  C   UNL     1       1.163   8.224  21.287  0.00  0.00    +0.000 A 
ATOM      8  C   UNL     1       0.593   9.497  21.423  0.00  0.00    +0.000 A 
ATOM      9  C   UNL     1       0.612  10.297  20.308  0.00  0.00    +0.000 A 
ATOM     10  N   UNL     1       0.125  11.586  20.133  0.00  0.00    +0.000 N 
ATOM     11  C   UNL     1       0.374  11.983  18.812  0.00  0.00    +0.000 A 
ATOM     12  O   UNL     1       0.083  13.052  18.306  0.00  0.00    +0.000 OA
ATOM     13  N   UNL     1       1.022  10.912  18.183  0.00  0.00    +0.000 N 
ATOM     14  C   UNL     1       1.166   9.878  19.101  0.00  0.00    +0.000 A 
ATOM     15  C   UNL     1       1.731   8.636  18.939  0.00  0.00    +0.000 A 
ATOM     16  H   UNL     1      -0.334  12.166  20.815  0.00  0.00    +0.000 HD
ATOM     17  H   UNL     1       1.319  10.924  17.221  0.00  0.00    +0.000 HD
ENDBRANCH   3   6
BRANCH   1  23
ATOM     18  O   UNL     1       4.814   2.256  20.225  0.00  0.00    +0.000 OA
ATOM     19  C   UNL     1       4.169   2.509  19.221  0.00  0.00    +0.000 C 
ATOM     20  N   UNL     1       3.251   1.645  18.659  0.00  0.00    +0.000 N 
ATOM     21  C   UNL     1       2.529   2.241  17.581  0.00  0.00    +0.000 C 
ATOM     22  C   UNL     1       3.460   3.347  17.115  0.00  0.00    +0.000 C 
ATOM     23  C   UNL     1       4.188   3.809  18.406  0.00  0.00    +0.000 C 
ATOM     24  H   UNL     1       3.010   0.781  19.132  0.00  0.00    +0.000 HD
BRANCH  23  25
ATOM     25  C   UNL     1       5.599   4.364  18.082  0.00  0.00    +0.000 C 
ATOM     26  C   UNL     1       6.213   5.278  19.153  0.00  0.00    +0.000 C 
ATOM     27  C   UNL     1       7.292   6.090  18.441  0.00  0.00    +0.000 C 
ATOM     28  C   UNL     1       7.050   5.924  16.946  0.00  0.00    +0.000 C 
ATOM     29  C   UNL     1       5.710   5.218  16.814  0.00  0.00    +0.000 C 
ENDBRANCH  23  25
ENDBRANCH   1  23
TORSDOF 3
ENDMDL
MODEL 2
REMARK VINA RESULT:      -8.9      1.092      1.664
REMARK  Name = 
REMARK  3 active torsions:
REMARK  status: ('A' for Active; 'I' for Inactive)
REMARK    1  A    between atoms: C_6  and  C_7
REMARK    2  A    between atoms: C_6  and  C_22
REMARK    3  A    between atoms: C_9  and  C_10
REMARK                            x       y       z     vdW  Elec       q    Type
REMARK                         _______ _______ _______ _____ _____    ______ ____
ROOT
ATOM      1  C   UNL     1       3.361   4.835  19.149  0.00  0.00    +0.000 A 
ATOM      2  N   UNL     1       3.060   6.078  18.838  0.00  0.00    +0.000 NA
ATOM      3  C   UNL     1       2.300   6.483  19.918  0.00  0.00    +0.000 A 
ATOM      4  N   UNL     1       2.141   5.536  20.854  0.00  0.00    +0.000 NA
ATOM      5  O   UNL     1       2.843   4.451  20.353  0.00  0.00    +0.000 OA
ENDROOT
BRANCH   3   6
ATOM      6  C   UNL     1       1.723   7.818  20.016  0.00  0.00    +0.000 A 
ATOM      7  C   UNL     1       1.709   8.681  18.884  0.00  0.00    +0.000 A 
ATOM      8  C   UNL     1       1.170   9.973  18.948  0.00  0.00    +0.000 A 
ATOM      9  C   UNL     1       0.657  10.362  20.160  0.00  0.00    +0.000 A 
ATOM     10  N   UNL     1       0.072  11.565  20.532  0.00  0.00    +0.000 N 
ATOM     11  C   UNL     1      -0.293  11.488  21.883  0.00  0.00    +0.000 A 
ATOM     12  O   UNL     1      -0.830  12.359  22.543  0.00  0.00    +0.000 OA
ATOM     13  N   UNL     1       0.081  10.213  22.330  0.00  0.00    +0.000 N 
ATOM     14  C   UNL     1       0.664   9.525  21.274  0.00  0.00    +0.000 A 
ATOM     15  C   UNL     1       1.185   8.253  21.239  0.00  0.00    +0.000 A 
ATOM     16  H   UNL     1      -0.080  12.376  19.956  0.00  0.00    +0.000 HD
ATOM     17  H   UNL     1      -0.064   9.886  23.271  0.00  0.00    +0.000 HD
ENDBRANCH   3   6
BRANCH   1  23
ATOM     18  O   UNL     1       4.802   2.288  20.245  0.00  0.00    +0.000 OA
ATOM     19  C   UNL     1       4.169   2.537  19.232  0.00  0.00    +0.000 C 
ATOM     20  N   UNL     1       3.256   1.672  18.663  0.00  0.00    +0.000 N 
ATOM     21  C   UNL     1       2.547   2.265  17.574  0.00  0.00    +0.000 C 
ATOM     22  C   UNL     1       3.484   3.367  17.115  0.00  0.00    +0.000 C 
ATOM     23  C   UNL     1       4.199   3.834  18.412  0.00  0.00    +0.000 C 
ATOM     24  H   UNL     1       3.009   0.810  19.137  0.00  0.00    +0.000 HD
BRANCH  23  25
ATOM     25  C   UNL     1       5.613   4.386  18.101  0.00  0.00    +0.000 C 
ATOM     26  C   UNL     1       6.222   5.291  19.182  0.00  0.00    +0.000 C 
ATOM     27  C   UNL     1       7.309   6.104  18.482  0.00  0.00    +0.000 C 
ATOM     28  C   UNL     1       7.078   5.948  16.985  0.00  0.00    +0.000 C 
ATOM     29  C   UNL     1       5.736   5.247  16.840  0.00  0.00    +0.000 C 
ENDBRANCH  23  25
ENDBRANCH   1  23
TORSDOF 3
ENDMDL
MODEL 3
REMARK VINA RESULT:      -8.9      1.475      2.137
REMARK  Name = 
REMARK  3 active torsions:
REMARK  status: ('A' for Active; 'I' for Inactive)
REMARK    1  A    between atoms: C_6  and  C_7
REMARK    2  A    between atoms: C_6  and  C_22
REMARK    3  A    between atoms: C_9  and  C_10
REMARK                            x       y       z     vdW  Elec       q    Type
REMARK                         _______ _______ _______ _____ _____    ______ ____
ROOT
ATOM      1  C   UNL     1       3.005   5.063  19.000  0.00  0.00    +0.000 A 
ATOM      2  N   UNL     1       2.660   6.322  18.832  0.00  0.00    +0.000 NA
ATOM      3  C   UNL     1       2.023   6.620  20.022  0.00  0.00    +0.000 A 
ATOM      4  N   UNL     1       1.978   5.594  20.884  0.00  0.00    +0.000 NA
ATOM      5  O   UNL     1       2.629   4.569  20.216  0.00  0.00    +0.000 OA
ENDROOT
BRANCH   3   6
ATOM      6  C   UNL     1       1.449   7.931  20.298  0.00  0.00    +0.000 A 
ATOM      7  C   UNL     1       1.508   8.963  19.320  0.00  0.00    +0.000 A 
ATOM      8  C   UNL     1       0.974  10.237  19.558  0.00  0.00    +0.000 A 
ATOM      9  C   UNL     1       0.391  10.435  20.785  0.00  0.00    +0.000 A 
ATOM     10  N   UNL     1      -0.208  11.573  21.309  0.00  0.00    +0.000 N 
ATOM     11  C   UNL     1      -0.655  11.286  22.607  0.00  0.00    +0.000 A 
ATOM     12  O   UNL     1      -1.226  12.049  23.365  0.00  0.00    +0.000 OA
ATOM     13  N   UNL     1      -0.317   9.951  22.865  0.00  0.00    +0.000 N 
ATOM     14  C   UNL     1       0.326   9.431  21.749  0.00  0.00    +0.000 A 
ATOM     15  C   UNL     1       0.840   8.173  21.541  0.00  0.00    +0.000 A 
ATOM     16  H   UNL     1      -0.321  12.467  20.863  0.00  0.00    +0.000 HD
ATOM     17  H   UNL     1      -0.520   9.480  23.732  0.00  0.00    +0.000 HD
ENDBRANCH   3   6
BRANCH   1  23
ATOM     18  O   UNL     1       5.185   2.942  19.717  0.00  0.00    +0.000 OA
ATOM     19  C   UNL     1       4.240   2.963  18.946  0.00  0.00    +0.000 C 
ATOM     20  N   UNL     1       3.390   1.895  18.745  0.00  0.00    +0.000 N 
ATOM     21  C   UNL     1       2.282   2.229  17.907  0.00  0.00    +0.000 C 
ATOM     22  C   UNL     1       2.799   3.416  17.114  0.00  0.00    +0.000 C 
ATOM     23  C   UNL     1       3.763   4.143  18.090  0.00  0.00    +0.000 C 
ATOM     24  H   UNL     1       3.473   1.062  19.318  0.00  0.00    +0.000 HD
BRANCH  23  25
ATOM     25  C   UNL     1       4.879   4.891  17.317  0.00  0.00    +0.000 C 
ATOM     26  C   UNL     1       5.685   4.036  16.327  0.00  0.00    +0.000 C 
ATOM     27  C   UNL     1       6.993   4.788  16.093  0.00  0.00    +0.000 C 
ATOM     28  C   UNL     1       7.096   5.840  17.190  0.00  0.00    +0.000 C 
ATOM     29  C   UNL     1       5.977   5.530  18.173  0.00  0.00    +0.000 C 
ENDBRANCH  23  25
ENDBRANCH   1  23
TORSDOF 3
ENDMDL
MODEL 4
REMARK VINA RESULT:      -8.9      0.771      1.110
REMARK  Name = 
REMARK  3 active torsions:
REMARK  status: ('A' for Active; 'I' for Inactive)
REMARK    1  A    between atoms: C_6  and  C_7
REMARK    2  A    between atoms: C_6  and  C_22
REMARK    3  A    between atoms: C_9  and  C_10
REMARK                            x       y       z     vdW  Elec       q    Type
REMARK                         _______ _______ _______ _____ _____    ______ ____
ROOT
ATOM      1  C   UNL     1       3.022   5.238  18.823  0.00  0.00    +0.000 A 
ATOM      2  N   UNL     1       2.708   6.492  18.574  0.00  0.00    +0.000 NA
ATOM      3  C   UNL     1       2.119   6.895  19.756  0.00  0.00    +0.000 A 
ATOM      4  N   UNL     1       2.072   5.938  20.693  0.00  0.00    +0.000 NA
ATOM      5  O   UNL     1       2.671   4.846  20.084  0.00  0.00    +0.000 OA
ENDROOT
BRANCH   3   6
ATOM      6  C   UNL     1       1.592   8.241  19.952  0.00  0.00    +0.000 A 
ATOM      7  C   UNL     1       1.190   8.674  21.247  0.00  0.00    +0.000 A 
ATOM      8  C   UNL     1       0.671   9.958  21.467  0.00  0.00    +0.000 A 
ATOM      9  C   UNL     1       0.572  10.773  20.367  0.00  0.00    +0.000 A 
ATOM     10  N   UNL     1       0.098  12.075  20.267  0.00  0.00    +0.000 N 
ATOM     11  C   UNL     1       0.193  12.485  18.930  0.00  0.00    +0.000 A 
ATOM     12  O   UNL     1      -0.133  13.567  18.476  0.00  0.00    +0.000 OA
ATOM     13  N   UNL     1       0.735  11.409  18.215  0.00  0.00    +0.000 N 
ATOM     14  C   UNL     1       0.965  10.360  19.096  0.00  0.00    +0.000 A 
ATOM     15  C   UNL     1       1.478   9.108  18.852  0.00  0.00    +0.000 A 
ATOM     16  H   UNL     1      -0.261  12.655  21.007  0.00  0.00    +0.000 HD
ATOM     17  H   UNL     1       0.912  11.428  17.224  0.00  0.00    +0.000 HD
ENDBRANCH   3   6
BRANCH   1  23
ATOM     18  O   UNL     1       5.241   3.184  19.608  0.00  0.00    +0.000 OA
ATOM     19  C   UNL     1       4.251   3.136  18.897  0.00  0.00    +0.000 C 
ATOM     20  N   UNL     1       3.390   2.058  18.850  0.00  0.00    +0.000 N 
ATOM     21  C   UNL     1       2.234   2.317  18.053  0.00  0.00    +0.000 C 
ATOM     22  C   UNL     1       2.702   3.420  17.121  0.00  0.00    +0.000 C 
ATOM     23  C   UNL     1       3.723   4.232  17.962  0.00  0.00    +0.000 C 
ATOM     24  H   UNL     1       3.509   1.284  19.495  0.00  0.00    +0.000 HD
BRANCH  23  25
ATOM     25  C   UNL     1       4.790   4.895  17.054  0.00  0.00    +0.000 C 
ATOM     26  C   UNL     1       5.556   3.940  16.126  0.00  0.00    +0.000 C 
ATOM     27  C   UNL     1       6.841   4.670  15.743  0.00  0.00    +0.000 C 
ATOM     28  C   UNL     1       6.987   5.838  16.711  0.00  0.00    +0.000 C 
ATOM     29  C   UNL     1       5.922   5.633  17.777  0.00  0.00    +0.000 C 
ENDBRANCH  23  25
ENDBRANCH   1  23
TORSDOF 3
ENDMDL
MODEL 5
REMARK VINA RESULT:      -8.8      1.887      8.235
REMARK  Name = 
REMARK  3 active torsions:
REMARK  status: ('A' for Active; 'I' for Inactive)
REMARK    1  A    between atoms: C_6  and  C_7
REMARK    2  A    between atoms: C_6  and  C_22
REMARK    3  A    between atoms: C_9  and  C_10
REMARK                            x       y       z     vdW  Elec       q    Type
REMARK                         _______ _______ _______ _____ _____    ______ ____
ROOT
ATOM      1  C   UNL     1       0.939   9.674  18.760  0.00  0.00    +0.000 A 
ATOM      2  N   UNL     1       1.441   8.545  19.215  0.00  0.00    +0.000 NA
ATOM      3  C   UNL     1       2.365   8.214  18.243  0.00  0.00    +0.000 A 
ATOM      4  N   UNL     1       2.433   9.096  17.236  0.00  0.00    +0.000 NA
ATOM      5  O   UNL     1       1.499  10.062  17.576  0.00  0.00    +0.000 OA
ENDROOT
BRANCH   3   6
ATOM      6  C   UNL     1       3.180   7.007  18.314  0.00  0.00    +0.000 A 
ATOM      7  C   UNL     1       4.302   6.845  17.452  0.00  0.00    +0.000 A 
ATOM      8  C   UNL     1       5.099   5.693  17.488  0.00  0.00    +0.000 A 
ATOM      9  C   UNL     1       4.742   4.731  18.399  0.00  0.00    +0.000 A 
ATOM     10  N   UNL     1       5.323   3.497  18.662  0.00  0.00    +0.000 N 
ATOM     11  C   UNL     1       4.597   2.867  19.681  0.00  0.00    +0.000 A 
ATOM     12  O   UNL     1       4.821   1.772  20.165  0.00  0.00    +0.000 OA
ATOM     13  N   UNL     1       3.559   3.739  20.037  0.00  0.00    +0.000 N 
ATOM     14  C   UNL     1       3.648   4.880  19.249  0.00  0.00    +0.000 A 
ATOM     15  C   UNL     1       2.849   5.999  19.235  0.00  0.00    +0.000 A 
ATOM     16  H   UNL     1       6.129   3.092  18.216  0.00  0.00    +0.000 HD
ATOM     17  H   UNL     1       2.877   3.537  20.749  0.00  0.00    +0.000 HD
ENDBRANCH   3   6
BRANCH   1  23
ATOM     18  O   UNL     1       0.905  12.795  18.904  0.00  0.00    +0.000 OA
ATOM     19  C   UNL     1       0.060  11.945  18.678  0.00  0.00    +0.000 C 
ATOM     20  N   UNL     1      -0.908  12.065  17.701  0.00  0.00    +0.000 N 
ATOM     21  C   UNL     1      -1.675  10.871  17.543  0.00  0.00    +0.000 C 
ATOM     22  C   UNL     1      -1.517  10.182  18.887  0.00  0.00    +0.000 C 
ATOM     23  C   UNL     1      -0.093  10.580  19.361  0.00  0.00    +0.000 C 
ATOM     24  H   UNL     1      -0.889  12.850  17.060  0.00  0.00    +0.000 HD
BRANCH  23  25
ATOM     25  C   UNL     1      -0.007  10.603  20.908  0.00  0.00    +0.000 C 
ATOM     26  C   UNL     1      -0.217   9.249  21.603  0.00  0.00    +0.000 C 
ATOM     27  C   UNL     1      -0.605   9.574  23.044  0.00  0.00    +0.000 C 
ATOM     28  C   UNL     1      -0.973  11.051  23.076  0.00  0.00    +0.000 C 
ATOM     29  C   UNL     1      -1.020  11.503  21.624  0.00  0.00    +0.000 C 
ENDBRANCH  23  25
ENDBRANCH   1  23
TORSDOF 3
ENDMDL
MODEL 6
REMARK VINA RESULT:      -8.8      2.501      8.129
REMARK  Name = 
REMARK  3 active torsions:
REMARK  status: ('A' for Active; 'I' for Inactive)
REMARK    1  A    between atoms: C_6  and  C_7
REMARK    2  A    between atoms: C_6  and  C_22
REMARK    3  A    between atoms: C_9  and  C_10
REMARK                            x       y       z     vdW  Elec       q    Type
REMARK                         _______ _______ _______ _____ _____    ______ ____
ROOT
ATOM      1  C   UNL     1       0.972   9.587  18.782  0.00  0.00    +0.000 A 
ATOM      2  N   UNL     1       1.661   8.591  19.297  0.00  0.00    +0.000 NA
ATOM      3  C   UNL     1       2.472   8.212  18.245  0.00  0.00    +0.000 A 
ATOM      4  N   UNL     1       2.295   8.941  17.134  0.00  0.00    +0.000 NA
ATOM      5  O   UNL     1       1.311   9.852  17.486  0.00  0.00    +0.000 OA
ENDROOT
BRANCH   3   6
ATOM      6  C   UNL     1       3.425   7.113  18.344  0.00  0.00    +0.000 A 
ATOM      7  C   UNL     1       3.183   6.030  19.236  0.00  0.00    +0.000 A 
ATOM      8  C   UNL     1       4.083   4.963  19.361  0.00  0.00    +0.000 A 
ATOM      9  C   UNL     1       5.209   5.018  18.578  0.00  0.00    +0.000 A 
ATOM     10  N   UNL     1       6.271   4.128  18.486  0.00  0.00    +0.000 N 
ATOM     11  C   UNL     1       7.188   4.619  17.546  0.00  0.00    +0.000 A 
ATOM     12  O   UNL     1       8.237   4.099  17.212  0.00  0.00    +0.000 OA
ATOM     13  N   UNL     1       6.666   5.828  17.066  0.00  0.00    +0.000 N 
ATOM     14  C   UNL     1       5.454   6.072  17.700  0.00  0.00    +0.000 A 
ATOM     15  C   UNL     1       4.588   7.130  17.556  0.00  0.00    +0.000 A 
ATOM     16  H   UNL     1       6.395   3.267  18.992  0.00  0.00    +0.000 HD
ATOM     17  H   UNL     1       7.124   6.400  16.376  0.00  0.00    +0.000 HD
ENDBRANCH   3   6
BRANCH   1  23
ATOM     18  O   UNL     1       0.915  12.703  19.018  0.00  0.00    +0.000 OA
ATOM     19  C   UNL     1       0.075  11.853  18.770  0.00  0.00    +0.000 C 
ATOM     20  N   UNL     1      -0.897  11.994  17.801  0.00  0.00    +0.000 N 
ATOM     21  C   UNL     1      -1.656  10.800  17.611  0.00  0.00    +0.000 C 
ATOM     22  C   UNL     1      -1.488  10.074  18.934  0.00  0.00    +0.000 C 
ATOM     23  C   UNL     1      -0.065  10.468  19.413  0.00  0.00    +0.000 C 
ATOM     24  H   UNL     1      -0.887  12.798  17.183  0.00  0.00    +0.000 HD
BRANCH  23  25
ATOM     25  C   UNL     1       0.027  10.446  20.961  0.00  0.00    +0.000 C 
ATOM     26  C   UNL     1      -0.235   9.084  21.620  0.00  0.00    +0.000 C 
ATOM     27  C   UNL     1      -0.605   9.386  23.071  0.00  0.00    +0.000 C 
ATOM     28  C   UNL     1      -0.913  10.876  23.143  0.00  0.00    +0.000 C 
ATOM     29  C   UNL     1      -0.946  11.367  21.704  0.00  0.00    +0.000 C 
ENDBRANCH  23  25
ENDBRANCH   1  23
TORSDOF 3
ENDMDL
MODEL 7
REMARK VINA RESULT:      -8.7      2.344      8.294
REMARK  Name = 
REMARK  3 active torsions:
REMARK  status: ('A' for Active; 'I' for Inactive)
REMARK    1  A    between atoms: C_6  and  C_7
REMARK    2  A    between atoms: C_6  and  C_22
REMARK    3  A    between atoms: C_9  and  C_10
REMARK                            x       y       z     vdW  Elec       q    Type
REMARK                         _______ _______ _______ _____ _____    ______ ____
ROOT
ATOM      1  C   UNL     1       0.985   9.712  18.633  0.00  0.00    +0.000 A 
ATOM      2  N   UNL     1       1.438   8.564  19.093  0.00  0.00    +0.000 NA
ATOM      3  C   UNL     1       2.419   8.239  18.176  0.00  0.00    +0.000 A 
ATOM      4  N   UNL     1       2.567   9.143  17.198  0.00  0.00    +0.000 NA
ATOM      5  O   UNL     1       1.629  10.118  17.498  0.00  0.00    +0.000 OA
ENDROOT
BRANCH   3   6
ATOM      6  C   UNL     1       3.208   7.017  18.271  0.00  0.00    +0.000 A 
ATOM      7  C   UNL     1       4.301   6.795  17.386  0.00  0.00    +0.000 A 
ATOM      8  C   UNL     1       5.072   5.627  17.445  0.00  0.00    +0.000 A 
ATOM      9  C   UNL     1       4.718   4.709  18.402  0.00  0.00    +0.000 A 
ATOM     10  N   UNL     1       5.278   3.472  18.696  0.00  0.00    +0.000 N 
ATOM     11  C   UNL     1       4.566   2.898  19.758  0.00  0.00    +0.000 A 
ATOM     12  O   UNL     1       4.778   1.817  20.277  0.00  0.00    +0.000 OA
ATOM     13  N   UNL     1       3.558   3.808  20.107  0.00  0.00    +0.000 N 
ATOM     14  C   UNL     1       3.652   4.916  19.274  0.00  0.00    +0.000 A 
ATOM     15  C   UNL     1       2.879   6.052  19.239  0.00  0.00    +0.000 A 
ATOM     16  H   UNL     1       6.062   3.032  18.244  0.00  0.00    +0.000 HD
ATOM     17  H   UNL     1       2.892   3.649  20.845  0.00  0.00    +0.000 HD
ENDBRANCH   3   6
BRANCH   1  23
ATOM     18  O   UNL     1      -0.325   9.709  21.470  0.00  0.00    +0.000 OA
ATOM     19  C   UNL     1       0.065  10.584  20.714  0.00  0.00    +0.000 C 
ATOM     20  N   UNL     1       0.756  11.705  21.128  0.00  0.00    +0.000 N 
ATOM     21  C   UNL     1       1.226  12.492  20.033  0.00  0.00    +0.000 C 
ATOM     22  C   UNL     1       0.284  12.108  18.906  0.00  0.00    +0.000 C 
ATOM     23  C   UNL     1      -0.069  10.622  19.186  0.00  0.00    +0.000 C 
ATOM     24  H   UNL     1       1.049  11.794  22.095  0.00  0.00    +0.000 HD
BRANCH  23  25
ATOM     25  C   UNL     1      -1.477  10.271  18.639  0.00  0.00    +0.000 C 
ATOM     26  C   UNL     1      -1.521   9.816  17.173  0.00  0.00    +0.000 C 
ATOM     27  C   UNL     1      -2.962  10.030  16.713  0.00  0.00    +0.000 C 
ATOM     28  C   UNL     1      -3.626  10.923  17.752  0.00  0.00    +0.000 C 
ATOM     29  C   UNL     1      -2.510  11.403  18.667  0.00  0.00    +0.000 C 
ENDBRANCH  23  25
ENDBRANCH   1  23
TORSDOF 3
ENDMDL
MODEL 8
REMARK VINA RESULT:      -8.7      2.109      3.509
REMARK  Name = 
REMARK  3 active torsions:
REMARK  status: ('A' for Active; 'I' for Inactive)
REMARK    1  A    between atoms: C_6  and  C_7
REMARK    2  A    between atoms: C_6  and  C_22
REMARK    3  A    between atoms: C_9  and  C_10
REMARK                            x       y       z     vdW  Elec       q    Type
REMARK                         _______ _______ _______ _____ _____    ______ ____
ROOT
ATOM      1  C   UNL     1       4.388   5.801  17.564  0.00  0.00    +0.000 A 
ATOM      2  N   UNL     1       3.506   6.209  18.452  0.00  0.00    +0.000 NA
ATOM      3  C   UNL     1       3.102   7.425  17.937  0.00  0.00    +0.000 A 
ATOM      4  N   UNL     1       3.704   7.753  16.784  0.00  0.00    +0.000 NA
ATOM      5  O   UNL     1       4.547   6.682  16.533  0.00  0.00    +0.000 OA
ENDROOT
BRANCH   3   6
ATOM      6  C   UNL     1       2.116   8.271  18.600  0.00  0.00    +0.000 A 
ATOM      7  C   UNL     1       1.835   8.098  19.984  0.00  0.00    +0.000 A 
ATOM      8  C   UNL     1       0.887   8.887  20.648  0.00  0.00    +0.000 A 
ATOM      9  C   UNL     1       0.245   9.837  19.893  0.00  0.00    +0.000 A 
ATOM     10  N   UNL     1      -0.734  10.751  20.260  0.00  0.00    +0.000 N 
ATOM     11  C   UNL     1      -1.082  11.511  19.135  0.00  0.00    +0.000 A 
ATOM     12  O   UNL     1      -1.908  12.404  19.088  0.00  0.00    +0.000 OA
ATOM     13  N   UNL     1      -0.297  11.043  18.072  0.00  0.00    +0.000 N 
ATOM     14  C   UNL     1       0.514  10.016  18.537  0.00  0.00    +0.000 A 
ATOM     15  C   UNL     1       1.440   9.257  17.861  0.00  0.00    +0.000 A 
ATOM     16  H   UNL     1      -1.147  10.874  21.169  0.00  0.00    +0.000 HD
ATOM     17  H   UNL     1      -0.343  11.414  17.137  0.00  0.00    +0.000 HD
ENDBRANCH   3   6
BRANCH   1  23
ATOM     18  O   UNL     1       5.552   4.315  15.074  0.00  0.00    +0.000 OA
ATOM     19  C   UNL     1       5.971   4.554  16.194  0.00  0.00    +0.000 C 
ATOM     20  N   UNL     1       7.268   4.941  16.463  0.00  0.00    +0.000 N 
ATOM     21  C   UNL     1       7.458   5.302  17.831  0.00  0.00    +0.000 C 
ATOM     22  C   UNL     1       6.340   4.558  18.540  0.00  0.00    +0.000 C 
ATOM     23  C   UNL     1       5.180   4.529  17.508  0.00  0.00    +0.000 C 
ATOM     24  H   UNL     1       7.910   5.132  15.701  0.00  0.00    +0.000 HD
BRANCH  23  25
ATOM     25  C   UNL     1       4.282   3.283  17.715  0.00  0.00    +0.000 C 
ATOM     26  C   UNL     1       2.838   3.417  17.210  0.00  0.00    +0.000 C 
ATOM     27  C   UNL     1       2.034   2.350  17.951  0.00  0.00    +0.000 C 
ATOM     28  C   UNL     1       2.901   1.876  19.110  0.00  0.00    +0.000 C 
ATOM     29  C   UNL     1       4.085   2.829  19.165  0.00  0.00    +0.000 C 
ENDBRANCH  23  25
ENDBRANCH   1  23
TORSDOF 3
ENDMDL
MODEL 9
REMARK VINA RESULT:      -8.7      1.788      2.480
REMARK  Name = 
REMARK  3 active torsions:
REMARK  status: ('A' for Active; 'I' for Inactive)
REMARK    1  A    between atoms: C_6  and  C_7
REMARK    2  A    between atoms: C_6  and  C_22
REMARK    3  A    between atoms: C_9  and  C_10
REMARK                            x       y       z     vdW  Elec       q    Type
REMARK                         _______ _______ _______ _____ _____    ______ ____
ROOT
ATOM      1  C   UNL     1       3.146   5.207  19.115  0.00  0.00    +0.000 A 
ATOM      2  N   UNL     1       2.833   6.476  18.955  0.00  0.00    +0.000 NA
ATOM      3  C   UNL     1       2.045   6.732  20.061  0.00  0.00    +0.000 A 
ATOM      4  N   UNL     1       1.880   5.673  20.866  0.00  0.00    +0.000 NA
ATOM      5  O   UNL     1       2.609   4.669  20.250  0.00  0.00    +0.000 OA
ENDROOT
BRANCH   3   6
ATOM      6  C   UNL     1       1.445   8.037  20.312  0.00  0.00    +0.000 A 
ATOM      7  C   UNL     1       1.426   9.029  19.291  0.00  0.00    +0.000 A 
ATOM      8  C   UNL     1       0.866  10.296  19.504  0.00  0.00    +0.000 A 
ATOM      9  C   UNL     1       0.337  10.528  20.749  0.00  0.00    +0.000 A 
ATOM     10  N   UNL     1      -0.271  11.669  21.256  0.00  0.00    +0.000 N 
ATOM     11  C   UNL     1      -0.647  11.425  22.584  0.00  0.00    +0.000 A 
ATOM     12  O   UNL     1      -1.204  12.202  23.338  0.00  0.00    +0.000 OA
ATOM     13  N   UNL     1      -0.256  10.112  22.879  0.00  0.00    +0.000 N 
ATOM     14  C   UNL     1       0.348   9.564  21.754  0.00  0.00    +0.000 A 
ATOM     15  C   UNL     1       0.889   8.314  21.573  0.00  0.00    +0.000 A 
ATOM     16  H   UNL     1      -0.432  12.541  20.780  0.00  0.00    +0.000 HD
ATOM     17  H   UNL     1      -0.404   9.672  23.773  0.00  0.00    +0.000 HD
ENDBRANCH   3   6
BRANCH   1  23
ATOM     18  O   UNL     1       6.233   4.749  19.280  0.00  0.00    +0.000 OA
ATOM     19  C   UNL     1       5.273   4.017  19.102  0.00  0.00    +0.000 C 
ATOM     20  N   UNL     1       5.143   2.768  19.674  0.00  0.00    +0.000 N 
ATOM     21  C   UNL     1       3.863   2.184  19.426  0.00  0.00    +0.000 C 
ATOM     22  C   UNL     1       3.401   2.895  18.167  0.00  0.00    +0.000 C 
ATOM     23  C   UNL     1       4.014   4.317  18.278  0.00  0.00    +0.000 C 
ATOM     24  H   UNL     1       5.823   2.446  20.354  0.00  0.00    +0.000 HD
BRANCH  23  25
ATOM     25  C   UNL     1       4.274   4.922  16.874  0.00  0.00    +0.000 C 
ATOM     26  C   UNL     1       5.157   4.078  15.943  0.00  0.00    +0.000 C 
ATOM     27  C   UNL     1       5.694   5.043  14.888  0.00  0.00    +0.000 C 
ATOM     28  C   UNL     1       5.437   6.451  15.410  0.00  0.00    +0.000 C 
ATOM     29  C   UNL     1       4.974   6.285  16.849  0.00  0.00    +0.000 C 
ENDBRANCH  23  25
ENDBRANCH   1  23
TORSDOF 3
ENDMDL
