MODEL 1
REMARK VINA RESULT:      -9.1      0.000      0.000
REMARK  Name = 
REMARK  5 active torsions:
REMARK  status: ('A' for Active; 'I' for Inactive)
REMARK    1  A    between atoms: C_1  and  C_2
REMARK    2  A    between atoms: C_4  and  C_5
REMARK    3  A    between atoms: C_8  and  N_9
REMARK    4  A    between atoms: C_10  and  C_12
REMARK    5  A    between atoms: C_25  and  C_26
REMARK                            x       y       z     vdW  Elec       q    Type
REMARK                         _______ _______ _______ _____ _____    ______ ____
ROOT
ATOM      1  N   UNL     1       2.175   7.625  19.510  0.00  0.00    +0.000 N 
ATOM      2  C   UNL     1       2.557   7.648  18.172  0.00  0.00    +0.000 C 
ATOM      3  O   UNL     1       2.373   8.570  17.390  0.00  0.00    +0.000 OA
ATOM      4  H   UNL     1       2.441   6.822  20.069  0.00  0.00    +0.000 HD
ENDROOT
BRANCH   2   5
ATOM      5  C   UNL     1       3.330   6.461  17.672  0.00  0.00    +0.000 A 
ATOM      6  C   UNL     1       4.543   6.731  17.008  0.00  0.00    +0.000 A 
ATOM      7  C   UNL     1       5.389   5.694  16.606  0.00  0.00    +0.000 A 
ATOM      8  C   UNL     1       5.099   4.396  16.988  0.00  0.00    +0.000 A 
ATOM      9  C   UNL     1       3.878   4.104  17.606  0.00  0.00    +0.000 A 
ATOM     10  C   UNL     1       3.545   2.808  17.936  0.00  0.00    +0.000 A 
ATOM     11  C   UNL     1       2.232   2.432  17.861  0.00  0.00    +0.000 A 
ATOM     12  N   UNL     1       1.236   3.337  17.917  0.00  0.00    +0.000 NA
ATOM     13  C   UNL     1       1.607   4.641  17.993  0.00  0.00    +0.000 A 
ATOM     14  C   UNL     1       2.905   5.104  17.800  0.00  0.00    +0.000 A 
ENDBRANCH   2   5
BRANCH   1  18
ATOM     15  C   UNL     1       0.009  10.575  21.738  0.00  0.00    +0.000 A 
ATOM     16  C   UNL     1       0.158  10.687  20.344  0.00  0.00    +0.000 A 
ATOM     17  C   UNL     1       0.876   9.734  19.601  0.00  0.00    +0.000 A 
ATOM     18  C   UNL     1       1.461   8.642  20.219  0.00  0.00    +0.000 A 
ATOM     19  C   UNL     1       1.345   8.529  21.618  0.00  0.00    +0.000 A 
ATOM     20  C   UNL     1       0.621   9.491  22.366  0.00  0.00    +0.000 A 
BRANCH  15  24
ATOM     21  C   UNL     1      -1.392  14.723  24.004  0.00  0.00    +0.000 C 
ATOM     22  C   UNL     1      -1.461  13.361  23.430  0.00  0.00    +0.000 A 
ATOM     23  N   UNL     1      -0.385  12.822  22.772  0.00  0.00    +0.000 NA
ATOM     24  C   UNL     1      -0.781  11.609  22.429  0.00  0.00    +0.000 A 
ATOM     25  O   UNL     1      -2.068  11.307  22.812  0.00  0.00    +0.000 OA
ATOM     26  C   UNL     1      -2.482  12.446  23.461  0.00  0.00    +0.000 A 
ATOM     27  C   UNL     1      -3.848  12.464  24.056  0.00  0.00    +0.000 C 
ENDBRANCH  15  24
ENDBRANCH   1  18
TORSDOF 3
ENDMDL
MODEL 2
REMARK VINA RESULT:      -9.0      0.661      1.191
REMARK  Name = 
REMARK  5 active torsions:
REMARK  status: ('A' for Active; 'I' for Inactive)
REMARK    1  A    between atoms: C_1  and  C_2
REMARK    2  A    between atoms: C_4  and  C_5
REMARK    3  A    between atoms: C_8  and  N_9
REMARK    4  A    between atoms: C_10  and  C_12
REMARK    5  A    between atoms: C_25  and  C_26
REMARK                            x       y       z     vdW  Elec       q    Type
REMARK                         _______ _______ _______ _____ _____    ______ ____
ROOT
ATOM      1  N   UNL     1       2.202   7.605  19.526  0.00  0.00    +0.000 N 
ATOM      2  C   UNL     1       2.553   7.646  18.180  0.00  0.00    +0.000 C 
ATOM      3  O   UNL     1       2.323   8.565  17.407  0.00  0.00    +0.000 OA
ATOM      4  H   UNL     1       2.506   6.809  20.076  0.00  0.00    +0.000 HD
ENDROOT
BRANCH   2   5
ATOM      5  C   UNL     1       3.355   6.488  17.660  0.00  0.00    +0.000 A 
ATOM      6  C   UNL     1       4.560   6.798  16.997  0.00  0.00    +0.000 A 
ATOM      7  C   UNL     1       5.429   5.789  16.576  0.00  0.00    +0.000 A 
ATOM      8  C   UNL     1       5.173   4.479  16.936  0.00  0.00    +0.000 A 
ATOM      9  C   UNL     1       3.961   4.146  17.552  0.00  0.00    +0.000 A 
ATOM     10  C   UNL     1       3.662   2.837  17.861  0.00  0.00    +0.000 A 
ATOM     11  C   UNL     1       2.358   2.429  17.783  0.00  0.00    +0.000 A 
ATOM     12  N   UNL     1       1.340   3.308  17.856  0.00  0.00    +0.000 NA
ATOM     13  C   UNL     1       1.679   4.620  17.953  0.00  0.00    +0.000 A 
ATOM     14  C   UNL     1       2.964   5.118  17.765  0.00  0.00    +0.000 A 
ENDBRANCH   2   5
BRANCH   1  18
ATOM     15  C   UNL     1      -0.046  10.466  21.791  0.00  0.00    +0.000 A 
ATOM     16  C   UNL     1       0.363  10.746  20.475  0.00  0.00    +0.000 A 
ATOM     17  C   UNL     1       1.111   9.822  19.723  0.00  0.00    +0.000 A 
ATOM     18  C   UNL     1       1.470   8.596  20.255  0.00  0.00    +0.000 A 
ATOM     19  C   UNL     1       1.092   8.310  21.581  0.00  0.00    +0.000 A 
ATOM     20  C   UNL     1       0.339   9.242  22.338  0.00  0.00    +0.000 A 
BRANCH  15  24
ATOM     21  C   UNL     1      -3.675  12.816  24.159  0.00  0.00    +0.000 C 
ATOM     22  C   UNL     1      -2.370  12.574  23.505  0.00  0.00    +0.000 A 
ATOM     23  N   UNL     1      -2.044  11.330  23.030  0.00  0.00    +0.000 NA
ATOM     24  C   UNL     1      -0.847  11.484  22.492  0.00  0.00    +0.000 A 
ATOM     25  O   UNL     1      -0.346  12.762  22.590  0.00  0.00    +0.000 OA
ATOM     26  C   UNL     1      -1.347  13.447  23.237  0.00  0.00    +0.000 A 
ATOM     27  C   UNL     1      -1.161  14.904  23.486  0.00  0.00    +0.000 C 
ENDBRANCH  15  24
ENDBRANCH   1  18
TORSDOF 3
ENDMDL
MODEL 3
REMARK VINA RESULT:      -8.7      1.215      2.326
REMARK  Name = 
REMARK  5 active torsions:
REMARK  status: ('A' for Active; 'I' for Inactive)
REMARK    1  A    between atoms: C_1  and  C_2
REMARK    2  A    between atoms: C_4  and  C_5
REMARK    3  A    between atoms: C_8  and  N_9
REMARK    4  A    between atoms: C_10  and  C_12
REMARK    5  A    between atoms: C_25  and  C_26
REMARK                            x       y       z     vdW  Elec       q    Type
REMARK                         _______ _______ _______ _____ _____    ______ ____
ROOT
ATOM      1  N   UNL     1       1.870   7.453  19.720  0.00  0.00    +0.000 N 
ATOM      2  C   UNL     1       2.547   7.483  18.504  0.00  0.00    +0.000 C 
ATOM      3  O   UNL     1       2.746   8.476  17.820  0.00  0.00    +0.000 OA
ATOM      4  H   UNL     1       1.826   6.572  20.221  0.00  0.00    +0.000 HD
ENDROOT
BRANCH   2   5
ATOM      5  C   UNL     1       3.150   6.189  18.039  0.00  0.00    +0.000 A 
ATOM      6  C   UNL     1       2.442   5.011  18.352  0.00  0.00    +0.000 A 
ATOM      7  C   UNL     1       2.862   3.770  17.869  0.00  0.00    +0.000 A 
ATOM      8  C   UNL     1       3.901   3.713  16.958  0.00  0.00    +0.000 A 
ATOM      9  C   UNL     1       4.645   4.863  16.672  0.00  0.00    +0.000 A 
ATOM     10  C   UNL     1       5.724   4.812  15.815  0.00  0.00    +0.000 A 
ATOM     11  C   UNL     1       6.791   5.632  16.060  0.00  0.00    +0.000 A 
ATOM     12  N   UNL     1       6.662   6.756  16.792  0.00  0.00    +0.000 NA
ATOM     13  C   UNL     1       5.434   6.997  17.320  0.00  0.00    +0.000 A 
ATOM     14  C   UNL     1       4.390   6.077  17.337  0.00  0.00    +0.000 A 
ENDBRANCH   2   5
BRANCH   1  18
ATOM     15  C   UNL     1      -0.050  10.662  21.812  0.00  0.00    +0.000 A 
ATOM     16  C   UNL     1       0.071  10.682  20.411  0.00  0.00    +0.000 A 
ATOM     17  C   UNL     1       0.708   9.642  19.711  0.00  0.00    +0.000 A 
ATOM     18  C   UNL     1       1.240   8.554  20.382  0.00  0.00    +0.000 A 
ATOM     19  C   UNL     1       1.151   8.531  21.787  0.00  0.00    +0.000 A 
ATOM     20  C   UNL     1       0.509   9.580  22.491  0.00  0.00    +0.000 A 
BRANCH  15  24
ATOM     21  C   UNL     1      -1.107  14.981  23.941  0.00  0.00    +0.000 C 
ATOM     22  C   UNL     1      -1.291  13.618  23.397  0.00  0.00    +0.000 A 
ATOM     23  N   UNL     1      -0.255  12.962  22.782  0.00  0.00    +0.000 NA
ATOM     24  C   UNL     1      -0.755  11.783  22.456  0.00  0.00    +0.000 A 
ATOM     25  O   UNL     1      -2.075  11.615  22.809  0.00  0.00    +0.000 OA
ATOM     26  C   UNL     1      -2.395  12.804  23.419  0.00  0.00    +0.000 A 
ATOM     27  C   UNL     1      -3.768  12.967  23.974  0.00  0.00    +0.000 C 
ENDBRANCH  15  24
ENDBRANCH   1  18
TORSDOF 3
ENDMDL
MODEL 4
REMARK VINA RESULT:      -8.6      1.786      2.711
REMARK  Name = 
REMARK  5 active torsions:
REMARK  status: ('A' for Active; 'I' for Inactive)
REMARK    1  A    between atoms: C_1  and  C_2
REMARK    2  A    between atoms: C_4  and  C_5
REMARK    3  A    between atoms: C_8  and  N_9
REMARK    4  A    between atoms: C_10  and  C_12
REMARK    5  A    between atoms: C_25  and  C_26
REMARK                            x       y       z     vdW  Elec       q    Type
REMARK                         _______ _______ _______ _____ _____    ______ ____
ROOT
ATOM      1  N   UNL     1       2.331   7.280  19.140  0.00  0.00    +0.000 N 
ATOM      2  C   UNL     1       2.570   5.982  19.581  0.00  0.00    +0.000 C 
ATOM      3  O   UNL     1       2.163   5.494  20.626  0.00  0.00    +0.000 OA
ATOM      4  H   UNL     1       2.675   7.543  18.223  0.00  0.00    +0.000 HD
ENDROOT
BRANCH   2   5
ATOM      5  C   UNL     1       3.331   5.083  18.649  0.00  0.00    +0.000 A 
ATOM      6  C   UNL     1       2.573   4.160  17.900  0.00  0.00    +0.000 A 
ATOM      7  C   UNL     1       3.174   3.360  16.926  0.00  0.00    +0.000 A 
ATOM      8  C   UNL     1       4.500   3.574  16.595  0.00  0.00    +0.000 A 
ATOM      9  C   UNL     1       5.279   4.451  17.358  0.00  0.00    +0.000 A 
ATOM     10  C   UNL     1       6.618   4.629  17.082  0.00  0.00    +0.000 A 
ATOM     11  C   UNL     1       7.473   4.865  18.124  0.00  0.00    +0.000 A 
ATOM     12  N   UNL     1       7.034   5.359  19.297  0.00  0.00    +0.000 NA
ATOM     13  C   UNL     1       5.694   5.554  19.408  0.00  0.00    +0.000 A 
ATOM     14  C   UNL     1       4.751   5.086  18.499  0.00  0.00    +0.000 A 
ENDBRANCH   2   5
BRANCH   1  18
ATOM     15  C   UNL     1       0.218  10.445  21.109  0.00  0.00    +0.000 A 
ATOM     16  C   UNL     1       0.635   9.304  21.817  0.00  0.00    +0.000 A 
ATOM     17  C   UNL     1       1.319   8.252  21.183  0.00  0.00    +0.000 A 
ATOM     18  C   UNL     1       1.611   8.305  19.831  0.00  0.00    +0.000 A 
ATOM     19  C   UNL     1       1.177   9.428  19.101  0.00  0.00    +0.000 A 
ATOM     20  C   UNL     1       0.487  10.488  19.741  0.00  0.00    +0.000 A 
BRANCH  15  24
ATOM     21  C   UNL     1      -0.857  14.674  23.403  0.00  0.00    +0.000 C 
ATOM     22  C   UNL     1      -1.007  13.296  22.886  0.00  0.00    +0.000 A 
ATOM     23  N   UNL     1      -0.027  12.726  22.113  0.00  0.00    +0.000 NA
ATOM     24  C   UNL     1      -0.470  11.507  21.862  0.00  0.00    +0.000 A 
ATOM     25  O   UNL     1      -1.700  11.230  22.415  0.00  0.00    +0.000 OA
ATOM     26  C   UNL     1      -2.021  12.392  23.075  0.00  0.00    +0.000 A 
ATOM     27  C   UNL     1      -3.300  12.443  23.837  0.00  0.00    +0.000 C 
ENDBRANCH  15  24
ENDBRANCH   1  18
TORSDOF 3
ENDMDL
MODEL 5
REMARK VINA RESULT:      -8.6      1.427      2.659
REMARK  Name = 
REMARK  5 active torsions:
REMARK  status: ('A' for Active; 'I' for Inactive)
REMARK    1  A    between atoms: C_1  and  C_2
REMARK    2  A    between atoms: C_4  and  C_5
REMARK    3  A    between atoms: C_8  and  N_9
REMARK    4  A    between atoms: C_10  and  C_12
REMARK    5  A    between atoms: C_25  and  C_26
REMARK                            x       y       z     vdW  Elec       q    Type
REMARK                         _______ _______ _______ _____ _____    ______ ____
ROOT
ATOM      1  N   UNL     1       2.080   7.340  19.571  0.00  0.00    +0.000 N 
ATOM      2  C   UNL     1       2.583   7.334  18.273  0.00  0.00    +0.000 C 
ATOM      3  O   UNL     1       2.583   8.281  17.499  0.00  0.00    +0.000 OA
ATOM      4  H   UNL     1       2.197   6.505  20.133  0.00  0.00    +0.000 HD
ENDROOT
BRANCH   2   5
ATOM      5  C   UNL     1       3.255   6.069  17.819  0.00  0.00    +0.000 A 
ATOM      6  C   UNL     1       2.558   4.866  18.045  0.00  0.00    +0.000 A 
ATOM      7  C   UNL     1       3.046   3.650  17.560  0.00  0.00    +0.000 A 
ATOM      8  C   UNL     1       4.153   3.646  16.731  0.00  0.00    +0.000 A 
ATOM      9  C   UNL     1       4.885   4.823  16.534  0.00  0.00    +0.000 A 
ATOM     10  C   UNL     1       6.026   4.824  15.761  0.00  0.00    +0.000 A 
ATOM     11  C   UNL     1       7.049   5.663  16.110  0.00  0.00    +0.000 A 
ATOM     12  N   UNL     1       6.834   6.761  16.861  0.00  0.00    +0.000 NA
ATOM     13  C   UNL     1       5.564   6.955  17.299  0.00  0.00    +0.000 A 
ATOM     14  C   UNL     1       4.547   6.010  17.212  0.00  0.00    +0.000 A 
ENDBRANCH   2   5
BRANCH   1  18
ATOM     15  C   UNL     1       0.104  10.507  21.674  0.00  0.00    +0.000 A 
ATOM     16  C   UNL     1       0.172  10.505  20.270  0.00  0.00    +0.000 A 
ATOM     17  C   UNL     1       0.827   9.479  19.566  0.00  0.00    +0.000 A 
ATOM     18  C   UNL     1       1.428   8.427  20.236  0.00  0.00    +0.000 A 
ATOM     19  C   UNL     1       1.393   8.428  21.643  0.00  0.00    +0.000 A 
ATOM     20  C   UNL     1       0.733   9.463  22.352  0.00  0.00    +0.000 A 
BRANCH  15  24
ATOM     21  C   UNL     1      -3.347  13.209  23.931  0.00  0.00    +0.000 C 
ATOM     22  C   UNL     1      -2.065  12.849  23.285  0.00  0.00    +0.000 A 
ATOM     23  N   UNL     1      -1.824  11.563  22.876  0.00  0.00    +0.000 NA
ATOM     24  C   UNL     1      -0.624  11.611  22.325  0.00  0.00    +0.000 A 
ATOM     25  O   UNL     1      -0.041  12.857  22.352  0.00  0.00    +0.000 OA
ATOM     26  C   UNL     1      -0.990  13.639  22.967  0.00  0.00    +0.000 A 
ATOM     27  C   UNL     1      -0.708  15.092  23.137  0.00  0.00    +0.000 C 
ENDBRANCH  15  24
ENDBRANCH   1  18
TORSDOF 3
ENDMDL
MODEL 6
REMARK VINA RESULT:      -8.5      1.231      1.603
REMARK  Name = 
REMARK  5 active torsions:
REMARK  status: ('A' for Active; 'I' for Inactive)
REMARK    1  A    between atoms: C_1  and  C_2
REMARK    2  A    between atoms: C_4  and  C_5
REMARK    3  A    between atoms: C_8  and  N_9
REMARK    4  A    between atoms: C_10  and  C_12
REMARK    5  A    between atoms: C_25  and  C_26
REMARK                            x       y       z     vdW  Elec       q    Type
REMARK                         _______ _______ _______ _____ _____    ______ ____
ROOT
ATOM      1  N   UNL     1       1.808   8.309  19.375  0.00  0.00    +0.000 N 
ATOM      2  C   UNL     1       2.093   6.979  19.670  0.00  0.00    +0.000 C 
ATOM      3  O   UNL     1       1.736   6.374  20.670  0.00  0.00    +0.000 OA
ATOM      4  H   UNL     1       2.112   8.677  18.480  0.00  0.00    +0.000 HD
ENDROOT
BRANCH   2   5
ATOM      5  C   UNL     1       2.843   6.205  18.623  0.00  0.00    +0.000 A 
ATOM      6  C   UNL     1       3.756   6.931  17.832  0.00  0.00    +0.000 A 
ATOM      7  C   UNL     1       4.580   6.283  16.909  0.00  0.00    +0.000 A 
ATOM      8  C   UNL     1       4.600   4.900  16.871  0.00  0.00    +0.000 A 
ATOM      9  C   UNL     1       3.668   4.166  17.614  0.00  0.00    +0.000 A 
ATOM     10  C   UNL     1       3.632   2.790  17.539  0.00  0.00    +0.000 A 
ATOM     11  C   UNL     1       2.421   2.163  17.645  0.00  0.00    +0.000 A 
ATOM     12  N   UNL     1       1.370   2.757  18.242  0.00  0.00    +0.000 NA
ATOM     13  C   UNL     1       1.562   4.028  18.680  0.00  0.00    +0.000 A 
ATOM     14  C   UNL     1       2.668   4.812  18.364  0.00  0.00    +0.000 A 
ENDBRANCH   2   5
BRANCH   1  18
ATOM     15  C   UNL     1      -0.369  10.980  21.923  0.00  0.00    +0.000 A 
ATOM     16  C   UNL     1      -0.298  11.201  20.536  0.00  0.00    +0.000 A 
ATOM     17  C   UNL     1       0.421  10.340  19.688  0.00  0.00    +0.000 A 
ATOM     18  C   UNL     1       1.087   9.236  20.193  0.00  0.00    +0.000 A 
ATOM     19  C   UNL     1       1.049   9.016  21.584  0.00  0.00    +0.000 A 
ATOM     20  C   UNL     1       0.324   9.884  22.437  0.00  0.00    +0.000 A 
BRANCH  15  24
ATOM     21  C   UNL     1      -4.080  13.233  24.259  0.00  0.00    +0.000 C 
ATOM     22  C   UNL     1      -2.717  12.963  23.751  0.00  0.00    +0.000 A 
ATOM     23  N   UNL     1      -2.445  11.819  23.046  0.00  0.00    +0.000 NA
ATOM     24  C   UNL     1      -1.166  11.921  22.728  0.00  0.00    +0.000 A 
ATOM     25  O   UNL     1      -0.561  13.068  23.191  0.00  0.00    +0.000 OA
ATOM     26  C   UNL     1      -1.580  13.725  23.838  0.00  0.00    +0.000 A 
ATOM     27  C   UNL     1      -1.290  15.055  24.446  0.00  0.00    +0.000 C 
ENDBRANCH  15  24
ENDBRANCH   1  18
TORSDOF 3
ENDMDL
MODEL 7
REMARK VINA RESULT:      -8.5      1.057      1.087
REMARK  Name = 
REMARK  5 active torsions:
REMARK  status: ('A' for Active; 'I' for Inactive)
REMARK    1  A    between atoms: C_1  and  C_2
REMARK    2  A    between atoms: C_4  and  C_5
REMARK    3  A    between atoms: C_8  and  N_9
REMARK    4  A    between atoms: C_10  and  C_12
REMARK    5  A    between atoms: C_25  and  C_26
REMARK                            x       y       z     vdW  Elec       q    Type
REMARK                         _______ _______ _______ _____ _____    ______ ____
ROOT
ATOM      1  N   UNL     1       1.789   8.321  19.326  0.00  0.00    +0.000 N 
ATOM      2  C   UNL     1       2.094   7.003  19.653  0.00  0.00    +0.000 C 
ATOM      3  O   UNL     1       1.751   6.420  20.672  0.00  0.00    +0.000 OA
ATOM      4  H   UNL     1       2.083   8.669  18.420  0.00  0.00    +0.000 HD
ENDROOT
BRANCH   2   5
ATOM      5  C   UNL     1       2.847   6.212  18.622  0.00  0.00    +0.000 A 
ATOM      6  C   UNL     1       3.779   6.919  17.837  0.00  0.00    +0.000 A 
ATOM      7  C   UNL     1       4.607   6.254  16.930  0.00  0.00    +0.000 A 
ATOM      8  C   UNL     1       4.610   4.871  16.903  0.00  0.00    +0.000 A 
ATOM      9  C   UNL     1       3.660   4.154  17.639  0.00  0.00    +0.000 A 
ATOM     10  C   UNL     1       3.608   2.778  17.575  0.00  0.00    +0.000 A 
ATOM     11  C   UNL     1       2.388   2.167  17.670  0.00  0.00    +0.000 A 
ATOM     12  N   UNL     1       1.337   2.778  18.250  0.00  0.00    +0.000 NA
ATOM     13  C   UNL     1       1.539   4.051  18.679  0.00  0.00    +0.000 A 
ATOM     14  C   UNL     1       2.658   4.818  18.372  0.00  0.00    +0.000 A 
ENDBRANCH   2   5
BRANCH   1  18
ATOM     15  C   UNL     1      -0.418  11.026  21.810  0.00  0.00    +0.000 A 
ATOM     16  C   UNL     1      -0.257  11.275  20.436  0.00  0.00    +0.000 A 
ATOM     17  C   UNL     1       0.474  10.403  19.610  0.00  0.00    +0.000 A 
ATOM     18  C   UNL     1       1.062   9.260  20.124  0.00  0.00    +0.000 A 
ATOM     19  C   UNL     1       0.933   9.010  21.504  0.00  0.00    +0.000 A 
ATOM     20  C   UNL     1       0.196   9.889  22.336  0.00  0.00    +0.000 A 
BRANCH  15  24
ATOM     21  C   UNL     1      -1.936  15.018  24.273  0.00  0.00    +0.000 C 
ATOM     22  C   UNL     1      -1.946  13.661  23.684  0.00  0.00    +0.000 A 
ATOM     23  N   UNL     1      -0.898  13.222  22.917  0.00  0.00    +0.000 NA
ATOM     24  C   UNL     1      -1.221  11.982  22.592  0.00  0.00    +0.000 A 
ATOM     25  O   UNL     1      -2.436  11.569  23.090  0.00  0.00    +0.000 OA
ATOM     26  C   UNL     1      -2.879  12.662  23.795  0.00  0.00    +0.000 A 
ATOM     27  C   UNL     1      -4.179  12.559  24.516  0.00  0.00    +0.000 C 
ENDBRANCH  15  24
ENDBRANCH   1  18
TORSDOF 3
ENDMDL
MODEL 8
REMARK VINA RESULT:      -8.4      0.606      1.101
REMARK  Name = 
REMARK  5 active torsions:
REMARK  status: ('A' for Active; 'I' for Inactive)
REMARK    1  A    between atoms: C_1  and  C_2
REMARK    2  A    between atoms: C_4  and  C_5
REMARK    3  A    between atoms: C_8  and  N_9
REMARK    4  A    between atoms: C_10  and  C_12
REMARK    5  A    between atoms: C_25  and  C_26
REMARK                            x       y       z     vdW  Elec       q    Type
REMARK                         _______ _______ _______ _____ _____    ______ ____
ROOT
ATOM      1  N   UNL     1       2.055   7.701  19.995  0.00  0.00    +0.000 N 
ATOM      2  C   UNL     1       2.262   7.567  18.626  0.00  0.00    +0.000 C 
ATOM      3  O   UNL     1       1.845   8.325  17.761  0.00  0.00    +0.000 OA
ATOM      4  H   UNL     1       2.507   7.036  20.614  0.00  0.00    +0.000 HD
ENDROOT
BRANCH   2   5
ATOM      5  C   UNL     1       3.142   6.433  18.186  0.00  0.00    +0.000 A 
ATOM      6  C   UNL     1       4.257   6.767  17.391  0.00  0.00    +0.000 A 
ATOM      7  C   UNL     1       5.196   5.800  17.026  0.00  0.00    +0.000 A 
ATOM      8  C   UNL     1       5.106   4.530  17.566  0.00  0.00    +0.000 A 
ATOM      9  C   UNL     1       3.983   4.166  18.318  0.00  0.00    +0.000 A 
ATOM     10  C   UNL     1       3.847   2.886  18.810  0.00  0.00    +0.000 A 
ATOM     11  C   UNL     1       2.591   2.349  18.893  0.00  0.00    +0.000 A 
ATOM     12  N   UNL     1       1.493   3.129  18.943  0.00  0.00    +0.000 NA
ATOM     13  C   UNL     1       1.698   4.468  18.848  0.00  0.00    +0.000 A 
ATOM     14  C   UNL     1       2.907   5.057  18.493  0.00  0.00    +0.000 A 
ENDBRANCH   2   5
BRANCH   1  18
ATOM     15  C   UNL     1      -0.189  10.823  21.887  0.00  0.00    +0.000 A 
ATOM     16  C   UNL     1       0.068   9.612  22.553  0.00  0.00    +0.000 A 
ATOM     17  C   UNL     1       0.793   8.574  21.942  0.00  0.00    +0.000 A 
ATOM     18  C   UNL     1       1.284   8.710  20.655  0.00  0.00    +0.000 A 
ATOM     19  C   UNL     1       1.013   9.906  19.963  0.00  0.00    +0.000 A 
ATOM     20  C   UNL     1       0.282  10.952  20.581  0.00  0.00    +0.000 A 
BRANCH  15  24
ATOM     21  C   UNL     1      -1.414  14.935  24.314  0.00  0.00    +0.000 C 
ATOM     22  C   UNL     1      -1.542  13.603  23.684  0.00  0.00    +0.000 A 
ATOM     23  N   UNL     1      -0.487  13.042  23.010  0.00  0.00    +0.000 NA
ATOM     24  C   UNL     1      -0.935  11.863  22.616  0.00  0.00    +0.000 A 
ATOM     25  O   UNL     1      -2.237  11.605  22.980  0.00  0.00    +0.000 OA
ATOM     26  C   UNL     1      -2.603  12.735  23.672  0.00  0.00    +0.000 A 
ATOM     27  C   UNL     1      -3.971  12.792  24.260  0.00  0.00    +0.000 C 
ENDBRANCH  15  24
ENDBRANCH   1  18
TORSDOF 3
ENDMDL
MODEL 9
REMARK VINA RESULT:      -8.4      1.914      2.956
REMARK  Name = 
REMARK  5 active torsions:
REMARK  status: ('A' for Active; 'I' for Inactive)
REMARK    1  A    between atoms: C_1  and  C_2
REMARK    2  A    between atoms: C_4  and  C_5
REMARK    3  A    between atoms: C_8  and  N_9
REMARK    4  A    between atoms: C_10  and  C_12
REMARK    5  A    between atoms: C_25  and  C_26
REMARK                            x       y       z     vdW  Elec       q    Type
REMARK                         _______ _______ _______ _____ _____    ______ ____
ROOT
ATOM      1  N   UNL     1       2.265   7.289  19.183  0.00  0.00    +0.000 N 
ATOM      2  C   UNL     1       2.582   6.020  19.657  0.00  0.00    +0.000 C 
ATOM      3  O   UNL     1       2.275   5.565  20.749  0.00  0.00    +0.000 OA
ATOM      4  H   UNL     1       2.527   7.524  18.231  0.00  0.00    +0.000 HD
ENDROOT
BRANCH   2   5
ATOM      5  C   UNL     1       3.297   5.105  18.703  0.00  0.00    +0.000 A 
ATOM      6  C   UNL     1       2.500   4.196  17.979  0.00  0.00    +0.000 A 
ATOM      7  C   UNL     1       3.055   3.383  16.989  0.00  0.00    +0.000 A 
ATOM      8  C   UNL     1       4.375   3.571  16.618  0.00  0.00    +0.000 A 
ATOM      9  C   UNL     1       5.193   4.434  17.356  0.00  0.00    +0.000 A 
ATOM     10  C   UNL     1       6.526   4.585  17.040  0.00  0.00    +0.000 A 
ATOM     11  C   UNL     1       7.416   4.806  18.056  0.00  0.00    +0.000 A 
ATOM     12  N   UNL     1       7.022   5.309  19.241  0.00  0.00    +0.000 NA
ATOM     13  C   UNL     1       5.690   5.531  19.392  0.00  0.00    +0.000 A 
ATOM     14  C   UNL     1       4.712   5.080  18.511  0.00  0.00    +0.000 A 
ENDBRANCH   2   5
BRANCH   1  18
ATOM     15  C   UNL     1       0.229  10.476  21.198  0.00  0.00    +0.000 A 
ATOM     16  C   UNL     1       0.548   9.283  21.870  0.00  0.00    +0.000 A 
ATOM     17  C   UNL     1       1.206   8.224  21.220  0.00  0.00    +0.000 A 
ATOM     18  C   UNL     1       1.567   8.321  19.887  0.00  0.00    +0.000 A 
ATOM     19  C   UNL     1       1.231   9.499  19.191  0.00  0.00    +0.000 A 
ATOM     20  C   UNL     1       0.567  10.565  19.848  0.00  0.00    +0.000 A 
BRANCH  15  24
ATOM     21  C   UNL     1      -2.994  13.027  23.921  0.00  0.00    +0.000 C 
ATOM     22  C   UNL     1      -1.784  12.715  23.127  0.00  0.00    +0.000 A 
ATOM     23  N   UNL     1      -1.572  11.450  22.641  0.00  0.00    +0.000 NA
ATOM     24  C   UNL     1      -0.439  11.540  21.967  0.00  0.00    +0.000 A 
ATOM     25  O   UNL     1       0.128  12.794  21.984  0.00  0.00    +0.000 OA
ATOM     26  C   UNL     1      -0.759  13.534  22.729  0.00  0.00    +0.000 A 
ATOM     27  C   UNL     1      -0.478  14.983  22.929  0.00  0.00    +0.000 C 
ENDBRANCH  15  24
ENDBRANCH   1  18
TORSDOF 3
ENDMDL
