MODEL 1
REMARK VINA RESULT:      -8.9      0.000      0.000
REMARK  Name = 
REMARK  6 active torsions:
REMARK  status: ('A' for Active; 'I' for Inactive)
REMARK    1  A    between atoms: C_1  and  N_2
REMARK    2  A    between atoms: C_6  and  C_7
REMARK    3  A    between atoms: C_7  and  C_8
REMARK    4  A    between atoms: C_8  and  C_9
REMARK    5  A    between atoms: C_13  and  N_14
REMARK    6  A    between atoms: C_21  and  C_22
REMARK                            x       y       z     vdW  Elec       q    Type
REMARK                         _______ _______ _______ _____ _____    ______ ____
ROOT
ATOM      1  C   UNL     1       1.418   8.630  20.255  0.00  0.00    +0.000 A 
ATOM      2  C   UNL     1       1.205   9.669  19.341  0.00  0.00    +0.000 A 
ATOM      3  C   UNL     1       1.557   9.500  18.018  0.00  0.00    +0.000 A 
ATOM      4  C   UNL     1       2.200   8.332  17.625  0.00  0.00    +0.000 A 
ATOM      5  C   UNL     1       2.627   7.356  18.543  0.00  0.00    +0.000 A 
ATOM      6  C   UNL     1       2.164   7.492  19.870  0.00  0.00    +0.000 A 
ENDROOT
BRANCH   5   7
ATOM      7  N   UNL     1       3.450   6.263  18.072  0.00  0.00    +0.000 N 
ATOM      8  C   UNL     1       4.859   6.533  17.582  0.00  0.00    +0.000 C 
ATOM      9  C   UNL     1       5.818   5.238  17.598  0.00  0.00    +0.000 A 
ATOM     10  C   UNL     1       5.752   4.680  18.879  0.00  0.00    +0.000 A 
ATOM     11  C   UNL     1       4.603   3.938  19.090  0.00  0.00    +0.000 A 
ATOM     12  C   UNL     1       3.765   3.783  17.972  0.00  0.00    +0.000 A 
ATOM     13  C   UNL     1       4.364   3.623  16.728  0.00  0.00    +0.000 A 
ATOM     14  C   UNL     1       5.508   4.370  16.533  0.00  0.00    +0.000 A 
ATOM     15  C   UNL     1       2.849   4.969  17.879  0.00  0.00    +0.000 C 
ATOM     16  O   UNL     1       1.670   4.712  17.659  0.00  0.00    +0.000 OA
BRANCH  14  17
ATOM     17  C   UNL     1       6.243   4.343  15.228  0.00  0.00    +0.000 C 
ATOM     18  F   UNL     1       6.115   3.170  14.554  0.00  0.00    +0.000 F 
ATOM     19  F   UNL     1       5.814   5.315  14.377  0.00  0.00    +0.000 F 
ATOM     20  F   UNL     1       7.581   4.547  15.379  0.00  0.00    +0.000 F 
ENDBRANCH  14  17
ENDBRANCH   5   7
BRANCH   1  21
ATOM     21  C   UNL     1       0.764   8.756  21.616  0.00  0.00    +0.000 C 
BRANCH  21  22
ATOM     22  C   UNL     1      -0.677   9.279  21.516  0.00  0.00    +0.000 C 
BRANCH  22  28
ATOM     23  C   UNL     1      -1.674  11.715  19.812  0.00  0.00    +0.000 C 
ATOM     24  N   UNL     1      -1.233  11.745  21.182  0.00  0.00    +0.000 N 
ATOM     25  C   UNL     1      -1.106  12.860  21.950  0.00  0.00    +0.000 A 
ATOM     26  N   UNL     1      -0.701  12.525  23.152  0.00  0.00    +0.000 NA
ATOM     27  N   UNL     1      -0.526  11.161  23.162  0.00  0.00    +0.000 NA
ATOM     28  C   UNL     1      -0.827  10.694  21.967  0.00  0.00    +0.000 A 
ENDBRANCH  22  28
ENDBRANCH  21  22
ENDBRANCH   1  21
TORSDOF 5
ENDMDL
MODEL 2
REMARK VINA RESULT:      -8.8      0.736      1.079
REMARK  Name = 
REMARK  6 active torsions:
REMARK  status: ('A' for Active; 'I' for Inactive)
REMARK    1  A    between atoms: C_1  and  N_2
REMARK    2  A    between atoms: C_6  and  C_7
REMARK    3  A    between atoms: C_7  and  C_8
REMARK    4  A    between atoms: C_8  and  C_9
REMARK    5  A    between atoms: C_13  and  N_14
REMARK    6  A    between atoms: C_21  and  C_22
REMARK                            x       y       z     vdW  Elec       q    Type
REMARK                         _______ _______ _______ _____ _____    ______ ____
ROOT
ATOM      1  C   UNL     1       1.174   8.565  20.192  0.00  0.00    +0.000 A 
ATOM      2  C   UNL     1       1.041   9.649  19.315  0.00  0.00    +0.000 A 
ATOM      3  C   UNL     1       1.521   9.550  18.026  0.00  0.00    +0.000 A 
ATOM      4  C   UNL     1       2.211   8.408  17.638  0.00  0.00    +0.000 A 
ATOM      5  C   UNL     1       2.556   7.387  18.541  0.00  0.00    +0.000 A 
ATOM      6  C   UNL     1       1.966   7.452  19.823  0.00  0.00    +0.000 A 
ENDROOT
BRANCH   5   7
ATOM      7  N   UNL     1       3.432   6.324  18.098  0.00  0.00    +0.000 N 
ATOM      8  C   UNL     1       4.826   6.649  17.599  0.00  0.00    +0.000 C 
ATOM      9  C   UNL     1       5.847   5.404  17.647  0.00  0.00    +0.000 A 
ATOM     10  C   UNL     1       5.808   4.876  18.941  0.00  0.00    +0.000 A 
ATOM     11  C   UNL     1       4.697   4.084  19.173  0.00  0.00    +0.000 A 
ATOM     12  C   UNL     1       3.867   3.860  18.060  0.00  0.00    +0.000 A 
ATOM     13  C   UNL     1       4.473   3.699  16.820  0.00  0.00    +0.000 A 
ATOM     14  C   UNL     1       5.579   4.495  16.604  0.00  0.00    +0.000 A 
ATOM     15  C   UNL     1       2.894   4.998  17.938  0.00  0.00    +0.000 C 
ATOM     16  O   UNL     1       1.729   4.678  17.726  0.00  0.00    +0.000 OA
BRANCH  14  17
ATOM     17  C   UNL     1       6.315   4.471  15.300  0.00  0.00    +0.000 C 
ATOM     18  F   UNL     1       5.972   5.483  14.460  0.00  0.00    +0.000 F 
ATOM     19  F   UNL     1       7.663   4.564  15.471  0.00  0.00    +0.000 F 
ATOM     20  F   UNL     1       6.109   3.318  14.606  0.00  0.00    +0.000 F 
ENDBRANCH  14  17
ENDBRANCH   5   7
BRANCH   1  21
ATOM     21  C   UNL     1       0.391   8.616  21.487  0.00  0.00    +0.000 C 
BRANCH  21  22
ATOM     22  C   UNL     1       0.771   9.835  22.341  0.00  0.00    +0.000 C 
BRANCH  22  28
ATOM     23  C   UNL     1       0.527  12.720  21.137  0.00  0.00    +0.000 C 
ATOM     24  N   UNL     1      -0.410  12.072  22.017  0.00  0.00    +0.000 N 
ATOM     25  C   UNL     1      -1.533  12.637  22.535  0.00  0.00    +0.000 A 
ATOM     26  N   UNL     1      -2.166  11.761  23.279  0.00  0.00    +0.000 NA
ATOM     27  N   UNL     1      -1.422  10.605  23.276  0.00  0.00    +0.000 NA
ATOM     28  C   UNL     1      -0.353  10.800  22.532  0.00  0.00    +0.000 A 
ENDBRANCH  22  28
ENDBRANCH  21  22
ENDBRANCH   1  21
TORSDOF 5
ENDMDL
MODEL 3
REMARK VINA RESULT:      -8.6      0.788      1.001
REMARK  Name = 
REMARK  6 active torsions:
REMARK  status: ('A' for Active; 'I' for Inactive)
REMARK    1  A    between atoms: C_1  and  N_2
REMARK    2  A    between atoms: C_6  and  C_7
REMARK    3  A    between atoms: C_7  and  C_8
REMARK    4  A    between atoms: C_8  and  C_9
REMARK    5  A    between atoms: C_13  and  N_14
REMARK    6  A    between atoms: C_21  and  C_22
REMARK                            x       y       z     vdW  Elec       q    Type
REMARK                         _______ _______ _______ _____ _____    ______ ____
ROOT
ATOM      1  C   UNL     1       1.274   8.934  20.201  0.00  0.00    +0.000 A 
ATOM      2  C   UNL     1       0.929   9.835  19.186  0.00  0.00    +0.000 A 
ATOM      3  C   UNL     1       1.195   9.521  17.870  0.00  0.00    +0.000 A 
ATOM      4  C   UNL     1       1.884   8.350  17.573  0.00  0.00    +0.000 A 
ATOM      5  C   UNL     1       2.438   7.523  18.565  0.00  0.00    +0.000 A 
ATOM      6  C   UNL     1       2.063   7.799  19.899  0.00  0.00    +0.000 A 
ENDROOT
BRANCH   5   7
ATOM      7  N   UNL     1       3.294   6.427  18.168  0.00  0.00    +0.000 N 
ATOM      8  C   UNL     1       4.699   6.705  17.670  0.00  0.00    +0.000 C 
ATOM      9  C   UNL     1       5.693   5.441  17.771  0.00  0.00    +0.000 A 
ATOM     10  C   UNL     1       5.633   4.961  19.083  0.00  0.00    +0.000 A 
ATOM     11  C   UNL     1       4.503   4.201  19.332  0.00  0.00    +0.000 A 
ATOM     12  C   UNL     1       3.678   3.955  18.221  0.00  0.00    +0.000 A 
ATOM     13  C   UNL     1       4.290   3.737  16.993  0.00  0.00    +0.000 A 
ATOM     14  C   UNL     1       5.415   4.502  16.759  0.00  0.00    +0.000 A 
ATOM     15  C   UNL     1       2.730   5.107  18.050  0.00  0.00    +0.000 C 
ATOM     16  O   UNL     1       1.560   4.804  17.839  0.00  0.00    +0.000 OA
BRANCH  14  17
ATOM     17  C   UNL     1       6.161   4.416  15.463  0.00  0.00    +0.000 C 
ATOM     18  F   UNL     1       5.959   3.251  14.793  0.00  0.00    +0.000 F 
ATOM     19  F   UNL     1       5.810   5.411  14.603  0.00  0.00    +0.000 F 
ATOM     20  F   UNL     1       7.508   4.527  15.628  0.00  0.00    +0.000 F 
ENDBRANCH  14  17
ENDBRANCH   5   7
BRANCH   1  21
ATOM     21  C   UNL     1       0.713   9.193  21.584  0.00  0.00    +0.000 C 
BRANCH  21  22
ATOM     22  C   UNL     1      -0.563  10.049  21.535  0.00  0.00    +0.000 C 
BRANCH  22  28
ATOM     23  C   UNL     1      -2.481  11.808  23.284  0.00  0.00    +0.000 C 
ATOM     24  N   UNL     1      -1.226  12.214  22.707  0.00  0.00    +0.000 N 
ATOM     25  C   UNL     1      -0.694  13.465  22.767  0.00  0.00    +0.000 A 
ATOM     26  N   UNL     1       0.467  13.480  22.155  0.00  0.00    +0.000 NA
ATOM     27  N   UNL     1       0.685  12.218  21.654  0.00  0.00    +0.000 NA
ATOM     28  C   UNL     1      -0.346  11.461  21.970  0.00  0.00    +0.000 A 
ENDBRANCH  22  28
ENDBRANCH  21  22
ENDBRANCH   1  21
TORSDOF 5
ENDMDL
MODEL 4
REMARK VINA RESULT:      -8.5      1.731      2.605
REMARK  Name = 
REMARK  6 active torsions:
REMARK  status: ('A' for Active; 'I' for Inactive)
REMARK    1  A    between atoms: C_1  and  N_2
REMARK    2  A    between atoms: C_6  and  C_7
REMARK    3  A    between atoms: C_7  and  C_8
REMARK    4  A    between atoms: C_8  and  C_9
REMARK    5  A    between atoms: C_13  and  N_14
REMARK    6  A    between atoms: C_21  and  C_22
REMARK                            x       y       z     vdW  Elec       q    Type
REMARK                         _______ _______ _______ _____ _____    ______ ____
ROOT
ATOM      1  C   UNL     1       1.186   9.331  18.895  0.00  0.00    +0.000 A 
ATOM      2  C   UNL     1       0.718   9.079  20.190  0.00  0.00    +0.000 A 
ATOM      3  C   UNL     1       1.230   8.019  20.910  0.00  0.00    +0.000 A 
ATOM      4  C   UNL     1       2.142   7.161  20.308  0.00  0.00    +0.000 A 
ATOM      5  C   UNL     1       2.480   7.246  18.945  0.00  0.00    +0.000 A 
ATOM      6  C   UNL     1       2.034   8.395  18.256  0.00  0.00    +0.000 A 
ENDROOT
BRANCH   5   7
ATOM      7  N   UNL     1       3.292   6.204  18.357  0.00  0.00    +0.000 N 
ATOM      8  C   UNL     1       4.681   6.525  17.843  0.00  0.00    +0.000 C 
ATOM      9  C   UNL     1       5.648   5.242  17.717  0.00  0.00    +0.000 A 
ATOM     10  C   UNL     1       5.630   4.579  18.948  0.00  0.00    +0.000 A 
ATOM     11  C   UNL     1       4.493   3.812  19.136  0.00  0.00    +0.000 A 
ATOM     12  C   UNL     1       3.617   3.743  18.039  0.00  0.00    +0.000 A 
ATOM     13  C   UNL     1       4.173   3.693  16.766  0.00  0.00    +0.000 A 
ATOM     14  C   UNL     1       5.305   4.463  16.595  0.00  0.00    +0.000 A 
ATOM     15  C   UNL     1       2.691   4.925  18.077  0.00  0.00    +0.000 C 
ATOM     16  O   UNL     1       1.507   4.677  17.877  0.00  0.00    +0.000 OA
BRANCH  14  17
ATOM     17  C   UNL     1       5.995   4.552  15.268  0.00  0.00    +0.000 C 
ATOM     18  F   UNL     1       6.152   3.349  14.654  0.00  0.00    +0.000 F 
ATOM     19  F   UNL     1       5.314   5.337  14.388  0.00  0.00    +0.000 F 
ATOM     20  F   UNL     1       7.240   5.094  15.362  0.00  0.00    +0.000 F 
ENDBRANCH  14  17
ENDBRANCH   5   7
BRANCH   1  21
ATOM     21  C   UNL     1       0.807  10.653  18.261  0.00  0.00    +0.000 C 
BRANCH  21  22
ATOM     22  C   UNL     1      -0.323  11.356  19.031  0.00  0.00    +0.000 C 
BRANCH  22  28
ATOM     23  C   UNL     1      -3.050  12.532  20.035  0.00  0.00    +0.000 C 
ATOM     24  N   UNL     1      -2.824  11.800  18.817  0.00  0.00    +0.000 N 
ATOM     25  C   UNL     1      -3.782  11.433  17.923  0.00  0.00    +0.000 A 
ATOM     26  N   UNL     1      -3.227  10.798  16.918  0.00  0.00    +0.000 NA
ATOM     27  N   UNL     1      -1.879  10.719  17.174  0.00  0.00    +0.000 NA
ATOM     28  C   UNL     1      -1.640  11.306  18.329  0.00  0.00    +0.000 A 
ENDBRANCH  22  28
ENDBRANCH  21  22
ENDBRANCH   1  21
TORSDOF 5
ENDMDL
MODEL 5
REMARK VINA RESULT:      -8.4      1.719      2.491
REMARK  Name = 
REMARK  6 active torsions:
REMARK  status: ('A' for Active; 'I' for Inactive)
REMARK    1  A    between atoms: C_1  and  N_2
REMARK    2  A    between atoms: C_6  and  C_7
REMARK    3  A    between atoms: C_7  and  C_8
REMARK    4  A    between atoms: C_8  and  C_9
REMARK    5  A    between atoms: C_13  and  N_14
REMARK    6  A    between atoms: C_21  and  C_22
REMARK                            x       y       z     vdW  Elec       q    Type
REMARK                         _______ _______ _______ _____ _____    ______ ____
ROOT
ATOM      1  C   UNL     1       1.866   6.855  20.636  0.00  0.00    +0.000 A 
ATOM      2  C   UNL     1       1.039   5.729  20.728  0.00  0.00    +0.000 A 
ATOM      3  C   UNL     1       1.455   4.528  20.191  0.00  0.00    +0.000 A 
ATOM      4  C   UNL     1       2.652   4.471  19.487  0.00  0.00    +0.000 A 
ATOM      5  C   UNL     1       3.409   5.617  19.184  0.00  0.00    +0.000 A 
ATOM      6  C   UNL     1       3.029   6.813  19.831  0.00  0.00    +0.000 A 
ENDROOT
BRANCH   5   7
ATOM      7  N   UNL     1       4.542   5.494  18.292  0.00  0.00    +0.000 N 
ATOM      8  C   UNL     1       4.467   6.066  16.890  0.00  0.00    +0.000 C 
ATOM      9  C   UNL     1       5.905   6.337  16.216  0.00  0.00    +0.000 A 
ATOM     10  C   UNL     1       6.653   7.107  17.112  0.00  0.00    +0.000 A 
ATOM     11  C   UNL     1       7.186   6.366  18.152  0.00  0.00    +0.000 A 
ATOM     12  C   UNL     1       6.981   4.977  18.078  0.00  0.00    +0.000 A 
ATOM     13  C   UNL     1       7.034   4.379  16.825  0.00  0.00    +0.000 A 
ATOM     14  C   UNL     1       6.499   5.130  15.798  0.00  0.00    +0.000 A 
ATOM     15  C   UNL     1       5.642   4.648  18.675  0.00  0.00    +0.000 C 
ATOM     16  O   UNL     1       5.626   3.691  19.443  0.00  0.00    +0.000 OA
BRANCH  14  17
ATOM     17  C   UNL     1       6.441   4.604  14.396  0.00  0.00    +0.000 C 
ATOM     18  F   UNL     1       5.241   4.801  13.790  0.00  0.00    +0.000 F 
ATOM     19  F   UNL     1       7.370   5.190  13.591  0.00  0.00    +0.000 F 
ATOM     20  F   UNL     1       6.683   3.267  14.330  0.00  0.00    +0.000 F 
ENDBRANCH  14  17
ENDBRANCH   5   7
BRANCH   1  21
ATOM     21  C   UNL     1       1.498   8.060  21.476  0.00  0.00    +0.000 C 
BRANCH  21  22
ATOM     22  C   UNL     1      -0.002   8.384  21.391  0.00  0.00    +0.000 C 
BRANCH  22  28
ATOM     23  C   UNL     1      -0.979  10.777  19.617  0.00  0.00    +0.000 C 
ATOM     24  N   UNL     1      -0.728  10.802  21.034  0.00  0.00    +0.000 N 
ATOM     25  C   UNL     1      -0.806  11.899  21.834  0.00  0.00    +0.000 A 
ATOM     26  N   UNL     1      -0.535  11.562  23.073  0.00  0.00    +0.000 NA
ATOM     27  N   UNL     1      -0.240  10.219  23.080  0.00  0.00    +0.000 NA
ATOM     28  C   UNL     1      -0.337   9.766  21.846  0.00  0.00    +0.000 A 
ENDBRANCH  22  28
ENDBRANCH  21  22
ENDBRANCH   1  21
TORSDOF 5
ENDMDL
MODEL 6
REMARK VINA RESULT:      -8.4      1.598      2.180
REMARK  Name = 
REMARK  6 active torsions:
REMARK  status: ('A' for Active; 'I' for Inactive)
REMARK    1  A    between atoms: C_1  and  N_2
REMARK    2  A    between atoms: C_6  and  C_7
REMARK    3  A    between atoms: C_7  and  C_8
REMARK    4  A    between atoms: C_8  and  C_9
REMARK    5  A    between atoms: C_13  and  N_14
REMARK    6  A    between atoms: C_21  and  C_22
REMARK                            x       y       z     vdW  Elec       q    Type
REMARK                         _______ _______ _______ _____ _____    ______ ____
ROOT
ATOM      1  C   UNL     1       1.368   9.263  19.035  0.00  0.00    +0.000 A 
ATOM      2  C   UNL     1       0.811   8.945  20.280  0.00  0.00    +0.000 A 
ATOM      3  C   UNL     1       1.217   7.804  20.940  0.00  0.00    +0.000 A 
ATOM      4  C   UNL     1       2.110   6.937  20.322  0.00  0.00    +0.000 A 
ATOM      5  C   UNL     1       2.530   7.103  18.990  0.00  0.00    +0.000 A 
ATOM      6  C   UNL     1       2.194   8.327  18.371  0.00  0.00    +0.000 A 
ENDROOT
BRANCH   5   7
ATOM      7  N   UNL     1       3.312   6.058  18.366  0.00  0.00    +0.000 N 
ATOM      8  C   UNL     1       4.750   6.323  17.968  0.00  0.00    +0.000 C 
ATOM      9  C   UNL     1       5.639   4.991  17.792  0.00  0.00    +0.000 A 
ATOM     10  C   UNL     1       5.495   4.232  18.958  0.00  0.00    +0.000 A 
ATOM     11  C   UNL     1       4.302   3.533  19.008  0.00  0.00    +0.000 A 
ATOM     12  C   UNL     1       3.499   3.615  17.857  0.00  0.00    +0.000 A 
ATOM     13  C   UNL     1       4.135   3.631  16.622  0.00  0.00    +0.000 A 
ATOM     14  C   UNL     1       5.323   4.332  16.587  0.00  0.00    +0.000 A 
ATOM     15  C   UNL     1       2.650   4.852  17.940  0.00  0.00    +0.000 C 
ATOM     16  O   UNL     1       1.469   4.704  17.647  0.00  0.00    +0.000 OA
BRANCH  14  17
ATOM     17  C   UNL     1       6.105   4.481  15.318  0.00  0.00    +0.000 C 
ATOM     18  F   UNL     1       5.735   5.554  14.571  0.00  0.00    +0.000 F 
ATOM     19  F   UNL     1       7.438   4.627  15.552  0.00  0.00    +0.000 F 
ATOM     20  F   UNL     1       5.988   3.396  14.504  0.00  0.00    +0.000 F 
ENDBRANCH  14  17
ENDBRANCH   5   7
BRANCH   1  21
ATOM     21  C   UNL     1       1.104  10.651  18.489  0.00  0.00    +0.000 C 
BRANCH  21  22
ATOM     22  C   UNL     1       0.140  11.448  19.383  0.00  0.00    +0.000 C 
BRANCH  22  28
ATOM     23  C   UNL     1      -0.125  14.508  18.753  0.00  0.00    +0.000 C 
ATOM     24  N   UNL     1       0.688  13.907  19.777  0.00  0.00    +0.000 N 
ATOM     25  C   UNL     1       1.540  14.570  20.605  0.00  0.00    +0.000 A 
ATOM     26  N   UNL     1       2.105  13.721  21.430  0.00  0.00    +0.000 NA
ATOM     27  N   UNL     1       1.637  12.467  21.115  0.00  0.00    +0.000 NA
ATOM     28  C   UNL     1       0.798  12.578  20.104  0.00  0.00    +0.000 A 
ENDBRANCH  22  28
ENDBRANCH  21  22
ENDBRANCH   1  21
TORSDOF 5
ENDMDL
MODEL 7
REMARK VINA RESULT:      -8.4      1.785      2.770
REMARK  Name = 
REMARK  6 active torsions:
REMARK  status: ('A' for Active; 'I' for Inactive)
REMARK    1  A    between atoms: C_1  and  N_2
REMARK    2  A    between atoms: C_6  and  C_7
REMARK    3  A    between atoms: C_7  and  C_8
REMARK    4  A    between atoms: C_8  and  C_9
REMARK    5  A    between atoms: C_13  and  N_14
REMARK    6  A    between atoms: C_21  and  C_22
REMARK                            x       y       z     vdW  Elec       q    Type
REMARK                         _______ _______ _______ _____ _____    ______ ____
ROOT
ATOM      1  C   UNL     1       1.732   6.734  20.480  0.00  0.00    +0.000 A 
ATOM      2  C   UNL     1       1.118   5.518  20.805  0.00  0.00    +0.000 A 
ATOM      3  C   UNL     1       1.736   4.329  20.479  0.00  0.00    +0.000 A 
ATOM      4  C   UNL     1       2.921   4.351  19.753  0.00  0.00    +0.000 A 
ATOM      5  C   UNL     1       3.462   5.535  19.220  0.00  0.00    +0.000 A 
ATOM      6  C   UNL     1       2.880   6.746  19.653  0.00  0.00    +0.000 A 
ENDROOT
BRANCH   5   7
ATOM      7  N   UNL     1       4.594   5.447  18.322  0.00  0.00    +0.000 N 
ATOM      8  C   UNL     1       4.517   6.070  16.943  0.00  0.00    +0.000 C 
ATOM      9  C   UNL     1       5.953   6.369  16.277  0.00  0.00    +0.000 A 
ATOM     10  C   UNL     1       6.701   7.107  17.200  0.00  0.00    +0.000 A 
ATOM     11  C   UNL     1       7.236   6.329  18.212  0.00  0.00    +0.000 A 
ATOM     12  C   UNL     1       7.034   4.944  18.087  0.00  0.00    +0.000 A 
ATOM     13  C   UNL     1       7.087   4.392  16.813  0.00  0.00    +0.000 A 
ATOM     14  C   UNL     1       6.549   5.179  15.815  0.00  0.00    +0.000 A 
ATOM     15  C   UNL     1       5.696   4.590  18.672  0.00  0.00    +0.000 C 
ATOM     16  O   UNL     1       5.683   3.605  19.405  0.00  0.00    +0.000 OA
BRANCH  14  17
ATOM     17  C   UNL     1       6.491   4.706  14.394  0.00  0.00    +0.000 C 
ATOM     18  F   UNL     1       7.451   5.246  13.599  0.00  0.00    +0.000 F 
ATOM     19  F   UNL     1       6.638   3.356  14.298  0.00  0.00    +0.000 F 
ATOM     20  F   UNL     1       5.301   4.992  13.797  0.00  0.00    +0.000 F 
ENDBRANCH  14  17
ENDBRANCH   5   7
BRANCH   1  21
ATOM     21  C   UNL     1       1.160   7.991  21.102  0.00  0.00    +0.000 C 
BRANCH  21  22
ATOM     22  C   UNL     1       1.098   9.152  20.097  0.00  0.00    +0.000 C 
BRANCH  22  28
ATOM     23  C   UNL     1       1.127  11.984  18.751  0.00  0.00    +0.000 C 
ATOM     24  N   UNL     1       0.749  11.678  20.105  0.00  0.00    +0.000 N 
ATOM     25  C   UNL     1       0.405  12.587  21.057  0.00  0.00    +0.000 A 
ATOM     26  N   UNL     1       0.098  11.966  22.171  0.00  0.00    +0.000 NA
ATOM     27  N   UNL     1       0.276  10.620  21.954  0.00  0.00    +0.000 NA
ATOM     28  C   UNL     1       0.688  10.449  20.714  0.00  0.00    +0.000 A 
ENDBRANCH  22  28
ENDBRANCH  21  22
ENDBRANCH   1  21
TORSDOF 5
ENDMDL
MODEL 8
REMARK VINA RESULT:      -8.3      1.385      2.170
REMARK  Name = 
REMARK  6 active torsions:
REMARK  status: ('A' for Active; 'I' for Inactive)
REMARK    1  A    between atoms: C_1  and  N_2
REMARK    2  A    between atoms: C_6  and  C_7
REMARK    3  A    between atoms: C_7  and  C_8
REMARK    4  A    between atoms: C_8  and  C_9
REMARK    5  A    between atoms: C_13  and  N_14
REMARK    6  A    between atoms: C_21  and  C_22
REMARK                            x       y       z     vdW  Elec       q    Type
REMARK                         _______ _______ _______ _____ _____    ______ ____
ROOT
ATOM      1  C   UNL     1       1.129   9.210  19.118  0.00  0.00    +0.000 A 
ATOM      2  C   UNL     1       0.724   8.896  20.422  0.00  0.00    +0.000 A 
ATOM      3  C   UNL     1       1.291   7.822  21.075  0.00  0.00    +0.000 A 
ATOM      4  C   UNL     1       2.193   7.009  20.399  0.00  0.00    +0.000 A 
ATOM      5  C   UNL     1       2.467   7.155  19.028  0.00  0.00    +0.000 A 
ATOM      6  C   UNL     1       1.966   8.320  18.405  0.00  0.00    +0.000 A 
ENDROOT
BRANCH   5   7
ATOM      7  N   UNL     1       3.274   6.155  18.363  0.00  0.00    +0.000 N 
ATOM      8  C   UNL     1       4.662   6.509  17.867  0.00  0.00    +0.000 C 
ATOM      9  C   UNL     1       5.623   5.235  17.645  0.00  0.00    +0.000 A 
ATOM     10  C   UNL     1       5.609   4.485  18.826  0.00  0.00    +0.000 A 
ATOM     11  C   UNL     1       4.470   3.710  18.962  0.00  0.00    +0.000 A 
ATOM     12  C   UNL     1       3.589   3.723  17.867  0.00  0.00    +0.000 A 
ATOM     13  C   UNL     1       4.140   3.763  16.592  0.00  0.00    +0.000 A 
ATOM     14  C   UNL     1       5.274   4.541  16.471  0.00  0.00    +0.000 A 
ATOM     15  C   UNL     1       2.668   4.902  17.994  0.00  0.00    +0.000 C 
ATOM     16  O   UNL     1       1.481   4.672  17.782  0.00  0.00    +0.000 OA
BRANCH  14  17
ATOM     17  C   UNL     1       5.958   4.722  15.151  0.00  0.00    +0.000 C 
ATOM     18  F   UNL     1       7.315   4.712  15.234  0.00  0.00    +0.000 F 
ATOM     19  F   UNL     1       5.628   3.743  14.264  0.00  0.00    +0.000 F 
ATOM     20  F   UNL     1       5.625   5.896  14.547  0.00  0.00    +0.000 F 
ENDBRANCH  14  17
ENDBRANCH   5   7
BRANCH   1  21
ATOM     21  C   UNL     1       0.693  10.547  18.556  0.00  0.00    +0.000 C 
BRANCH  21  22
ATOM     22  C   UNL     1      -0.760  10.515  18.056  0.00  0.00    +0.000 C 
BRANCH  22  28
ATOM     23  C   UNL     1      -3.784  11.117  17.489  0.00  0.00    +0.000 C 
ATOM     24  N   UNL     1      -3.012  11.572  18.615  0.00  0.00    +0.000 N 
ATOM     25  C   UNL     1      -3.453  12.407  19.595  0.00  0.00    +0.000 A 
ATOM     26  N   UNL     1      -2.499  12.598  20.475  0.00  0.00    +0.000 NA
ATOM     27  N   UNL     1      -1.396  11.898  20.045  0.00  0.00    +0.000 NA
ATOM     28  C   UNL     1      -1.700  11.296  18.913  0.00  0.00    +0.000 A 
ENDBRANCH  22  28
ENDBRANCH  21  22
ENDBRANCH   1  21
TORSDOF 5
ENDMDL
MODEL 9
REMARK VINA RESULT:      -8.3      1.757      2.740
REMARK  Name = 
REMARK  6 active torsions:
REMARK  status: ('A' for Active; 'I' for Inactive)
REMARK    1  A    between atoms: C_1  and  N_2
REMARK    2  A    between atoms: C_6  and  C_7
REMARK    3  A    between atoms: C_7  and  C_8
REMARK    4  A    between atoms: C_8  and  C_9
REMARK    5  A    between atoms: C_13  and  N_14
REMARK    6  A    between atoms: C_21  and  C_22
REMARK                            x       y       z     vdW  Elec       q    Type
REMARK                         _______ _______ _______ _____ _____    ______ ____
ROOT
ATOM      1  C   UNL     1       1.743   6.926  20.448  0.00  0.00    +0.000 A 
ATOM      2  C   UNL     1       1.193   5.722  20.907  0.00  0.00    +0.000 A 
ATOM      3  C   UNL     1       1.862   4.536  20.688  0.00  0.00    +0.000 A 
ATOM      4  C   UNL     1       3.031   4.540  19.936  0.00  0.00    +0.000 A 
ATOM      5  C   UNL     1       3.506   5.686  19.276  0.00  0.00    +0.000 A 
ATOM      6  C   UNL     1       2.874   6.907  19.599  0.00  0.00    +0.000 A 
ENDROOT
BRANCH   5   7
ATOM      7  N   UNL     1       4.625   5.561  18.367  0.00  0.00    +0.000 N 
ATOM      8  C   UNL     1       4.542   6.159  16.977  0.00  0.00    +0.000 C 
ATOM      9  C   UNL     1       5.976   6.418  16.288  0.00  0.00    +0.000 A 
ATOM     10  C   UNL     1       6.748   7.159  17.188  0.00  0.00    +0.000 A 
ATOM     11  C   UNL     1       7.281   6.391  18.209  0.00  0.00    +0.000 A 
ATOM     12  C   UNL     1       7.052   5.007  18.112  0.00  0.00    +0.000 A 
ATOM     13  C   UNL     1       7.079   4.431  16.848  0.00  0.00    +0.000 A 
ATOM     14  C   UNL     1       6.544   5.209  15.842  0.00  0.00    +0.000 A 
ATOM     15  C   UNL     1       5.715   4.689  18.720  0.00  0.00    +0.000 C 
ATOM     16  O   UNL     1       5.692   3.720  19.471  0.00  0.00    +0.000 OA
BRANCH  14  17
ATOM     17  C   UNL     1       6.459   4.710  14.432  0.00  0.00    +0.000 C 
ATOM     18  F   UNL     1       5.280   5.000  13.820  0.00  0.00    +0.000 F 
ATOM     19  F   UNL     1       7.433   5.239  13.641  0.00  0.00    +0.000 F 
ATOM     20  F   UNL     1       6.606   3.359  14.346  0.00  0.00    +0.000 F 
ENDBRANCH  14  17
ENDBRANCH   5   7
BRANCH   1  21
ATOM     21  C   UNL     1       1.122   8.212  20.954  0.00  0.00    +0.000 C 
BRANCH  21  22
ATOM     22  C   UNL     1       1.070   9.293  19.862  0.00  0.00    +0.000 C 
BRANCH  22  28
ATOM     23  C   UNL     1      -1.207  10.160  17.889  0.00  0.00    +0.000 C 
ATOM     24  N   UNL     1      -0.947  10.704  19.196  0.00  0.00    +0.000 N 
ATOM     25  C   UNL     1      -1.609  11.745  19.768  0.00  0.00    +0.000 A 
ATOM     26  N   UNL     1      -1.131  11.967  20.969  0.00  0.00    +0.000 NA
ATOM     27  N   UNL     1      -0.109  11.071  21.177  0.00  0.00    +0.000 NA
ATOM     28  C   UNL     1       0.015  10.323  20.099  0.00  0.00    +0.000 A 
ENDBRANCH  22  28
ENDBRANCH  21  22
ENDBRANCH   1  21
TORSDOF 5
ENDMDL
