MODEL 1
REMARK VINA RESULT:      -9.0      0.000      0.000
REMARK  Name = 
REMARK  6 active torsions:
REMARK  status: ('A' for Active; 'I' for Inactive)
REMARK    1  A    between atoms: C_1  and  C_2
REMARK    2  A    between atoms: C_2  and  C_3
REMARK    3  A    between atoms: C_2  and  C_10
REMARK    4  A    between atoms: C_3  and  C_4
REMARK    5  A    between atoms: N_8  and  C_9
REMARK    6  A    between atoms: C_14  and  N_15
REMARK                            x       y       z     vdW  Elec       q    Type
REMARK                         _______ _______ _______ _____ _____    ______ ____
ROOT
ATOM      1  C   UNL     1       4.483   5.018  17.195  0.00  0.00    +0.000 A 
ATOM      2  C   UNL     1       3.667   3.889  17.077  0.00  0.00    +0.000 A 
ATOM      3  C   UNL     1       2.354   3.918  17.551  0.00  0.00    +0.000 A 
ATOM      4  C   UNL     1       1.849   5.063  18.176  0.00  0.00    +0.000 A 
ATOM      5  C   UNL     1       2.646   6.197  18.333  0.00  0.00    +0.000 A 
ATOM      6  C   UNL     1       3.945   6.163  17.799  0.00  0.00    +0.000 A 
ENDROOT
BRANCH   5   7
ATOM      7  N   UNL     1       2.224   7.338  19.064  0.00  0.00    +0.000 N 
ATOM      8  C   UNL     1       1.955   7.254  20.495  0.00  0.00    +0.000 C 
ATOM      9  C   UNL     1       1.391   8.584  20.809  0.00  0.00    +0.000 A 
ATOM     10  C   UNL     1       0.917   9.087  21.991  0.00  0.00    +0.000 A 
ATOM     11  N   UNL     1       0.393  10.331  22.066  0.00  0.00    +0.000 NA
ATOM     12  C   UNL     1       0.349  11.072  20.925  0.00  0.00    +0.000 A 
ATOM     13  C   UNL     1       0.813  10.645  19.693  0.00  0.00    +0.000 A 
ATOM     14  C   UNL     1       1.342   9.373  19.676  0.00  0.00    +0.000 A 
ATOM     15  C   UNL     1       1.882   8.593  18.550  0.00  0.00    +0.000 C 
ATOM     16  O   UNL     1       1.952   9.045  17.424  0.00  0.00    +0.000 OA
ENDBRANCH   5   7
BRANCH   1  18
ATOM     17  C   UNL     1       6.925   4.699  17.920  0.00  0.00    +0.000 C 
ATOM     18  C   UNL     1       5.943   4.971  16.767  0.00  0.00    +0.000 C 
BRANCH  18  19
ATOM     19  C   UNL     1       6.143   4.014  15.564  0.00  0.00    +0.000 C 
BRANCH  19  20
ATOM     20  C   UNL     1       6.906   4.605  14.421  0.00  0.00    +0.000 A 
ATOM     21  N   UNL     1       7.848   5.527  14.510  0.00  0.00    +0.000 NA
ATOM     22  N   UNL     1       8.321   5.796  13.250  0.00  0.00    +0.000 NA
ATOM     23  C   UNL     1       7.634   5.063  12.409  0.00  0.00    +0.000 A 
ATOM     24  N   UNL     1       6.736   4.301  13.093  0.00  0.00    +0.000 N 
ATOM     25  C   UNL     1       5.796   3.389  12.500  0.00  0.00    +0.000 C 
ENDBRANCH  19  20
ENDBRANCH  18  19
ENDBRANCH   1  18
TORSDOF 4
ENDMDL
MODEL 2
REMARK VINA RESULT:      -8.5      1.109      1.561
REMARK  Name = 
REMARK  6 active torsions:
REMARK  status: ('A' for Active; 'I' for Inactive)
REMARK    1  A    between atoms: C_1  and  C_2
REMARK    2  A    between atoms: C_2  and  C_3
REMARK    3  A    between atoms: C_2  and  C_10
REMARK    4  A    between atoms: C_3  and  C_4
REMARK    5  A    between atoms: N_8  and  C_9
REMARK    6  A    between atoms: C_14  and  N_15
REMARK                            x       y       z     vdW  Elec       q    Type
REMARK                         _______ _______ _______ _____ _____    ______ ____
ROOT
ATOM      1  C   UNL     1       4.568   4.971  17.074  0.00  0.00    +0.000 A 
ATOM      2  C   UNL     1       3.846   3.773  17.091  0.00  0.00    +0.000 A 
ATOM      3  C   UNL     1       2.519   3.759  17.524  0.00  0.00    +0.000 A 
ATOM      4  C   UNL     1       1.905   4.933  17.976  0.00  0.00    +0.000 A 
ATOM      5  C   UNL     1       2.607   6.139  17.996  0.00  0.00    +0.000 A 
ATOM      6  C   UNL     1       3.923   6.139  17.504  0.00  0.00    +0.000 A 
ENDROOT
BRANCH   5   7
ATOM      7  N   UNL     1       2.074   7.329  18.555  0.00  0.00    +0.000 N 
ATOM      8  C   UNL     1       2.005   8.559  17.773  0.00  0.00    +0.000 C 
ATOM      9  C   UNL     1       1.561   9.562  18.764  0.00  0.00    +0.000 A 
ATOM     10  C   UNL     1       1.351  10.908  18.627  0.00  0.00    +0.000 A 
ATOM     11  N   UNL     1       0.982  11.673  19.679  0.00  0.00    +0.000 NA
ATOM     12  C   UNL     1       0.827  11.062  20.886  0.00  0.00    +0.000 A 
ATOM     13  C   UNL     1       1.011   9.709  21.110  0.00  0.00    +0.000 A 
ATOM     14  C   UNL     1       1.379   8.977  20.003  0.00  0.00    +0.000 A 
ATOM     15  C   UNL     1       1.693   7.543  19.884  0.00  0.00    +0.000 C 
ATOM     16  O   UNL     1       1.622   6.785  20.830  0.00  0.00    +0.000 OA
ENDBRANCH   5   7
BRANCH   1  18
ATOM     17  C   UNL     1       6.999   4.827  17.885  0.00  0.00    +0.000 C 
ATOM     18  C   UNL     1       6.041   4.985  16.692  0.00  0.00    +0.000 C 
BRANCH  18  19
ATOM     19  C   UNL     1       6.332   3.982  15.546  0.00  0.00    +0.000 C 
BRANCH  19  20
ATOM     20  C   UNL     1       7.005   4.582  14.352  0.00  0.00    +0.000 A 
ATOM     21  N   UNL     1       7.923   5.531  14.374  0.00  0.00    +0.000 NA
ATOM     22  N   UNL     1       8.309   5.799  13.084  0.00  0.00    +0.000 NA
ATOM     23  C   UNL     1       7.592   5.039  12.295  0.00  0.00    +0.000 A 
ATOM     24  N   UNL     1       6.761   4.259  13.040  0.00  0.00    +0.000 N 
ATOM     25  C   UNL     1       5.814   3.314  12.516  0.00  0.00    +0.000 C 
ENDBRANCH  19  20
ENDBRANCH  18  19
ENDBRANCH   1  18
TORSDOF 4
ENDMDL
MODEL 3
REMARK VINA RESULT:      -8.4      1.955      3.019
REMARK  Name = 
REMARK  6 active torsions:
REMARK  status: ('A' for Active; 'I' for Inactive)
REMARK    1  A    between atoms: C_1  and  C_2
REMARK    2  A    between atoms: C_2  and  C_3
REMARK    3  A    between atoms: C_2  and  C_10
REMARK    4  A    between atoms: C_3  and  C_4
REMARK    5  A    between atoms: N_8  and  C_9
REMARK    6  A    between atoms: C_14  and  N_15
REMARK                            x       y       z     vdW  Elec       q    Type
REMARK                         _______ _______ _______ _____ _____    ______ ____
ROOT
ATOM      1  C   UNL     1       4.152   4.579  16.834  0.00  0.00    +0.000 A 
ATOM      2  C   UNL     1       3.362   3.431  16.950  0.00  0.00    +0.000 A 
ATOM      3  C   UNL     1       2.164   3.471  17.665  0.00  0.00    +0.000 A 
ATOM      4  C   UNL     1       1.755   4.648  18.302  0.00  0.00    +0.000 A 
ATOM      5  C   UNL     1       2.535   5.804  18.227  0.00  0.00    +0.000 A 
ATOM      6  C   UNL     1       3.707   5.754  17.456  0.00  0.00    +0.000 A 
ENDROOT
BRANCH   5   7
ATOM      7  N   UNL     1       2.228   6.985  18.951  0.00  0.00    +0.000 N 
ATOM      8  C   UNL     1       1.979   6.941  20.388  0.00  0.00    +0.000 C 
ATOM      9  C   UNL     1       1.539   8.319  20.694  0.00  0.00    +0.000 A 
ATOM     10  C   UNL     1       1.133   8.875  21.878  0.00  0.00    +0.000 A 
ATOM     11  N   UNL     1       0.722  10.161  21.946  0.00  0.00    +0.000 NA
ATOM     12  C   UNL     1       0.723  10.890  20.796  0.00  0.00    +0.000 A 
ATOM     13  C   UNL     1       1.124  10.410  19.562  0.00  0.00    +0.000 A 
ATOM     14  C   UNL     1       1.539   9.097  19.552  0.00  0.00    +0.000 A 
ATOM     15  C   UNL     1       1.988   8.260  18.427  0.00  0.00    +0.000 C 
ATOM     16  O   UNL     1       2.077   8.691  17.294  0.00  0.00    +0.000 OA
ENDBRANCH   5   7
BRANCH   1  18
ATOM     17  C   UNL     1       5.424   4.134  14.649  0.00  0.00    +0.000 C 
ATOM     18  C   UNL     1       5.503   4.525  16.135  0.00  0.00    +0.000 C 
BRANCH  18  19
ATOM     19  C   UNL     1       6.309   5.827  16.374  0.00  0.00    +0.000 C 
BRANCH  19  20
ATOM     20  C   UNL     1       7.101   5.844  17.644  0.00  0.00    +0.000 A 
ATOM     21  N   UNL     1       7.280   4.820  18.460  0.00  0.00    +0.000 NA
ATOM     22  N   UNL     1       8.077   5.224  19.502  0.00  0.00    +0.000 NA
ATOM     23  C   UNL     1       8.339   6.495  19.326  0.00  0.00    +0.000 A 
ATOM     24  N   UNL     1       7.750   6.929  18.178  0.00  0.00    +0.000 N 
ATOM     25  C   UNL     1       7.802   8.274  17.672  0.00  0.00    +0.000 C 
ENDBRANCH  19  20
ENDBRANCH  18  19
ENDBRANCH   1  18
TORSDOF 4
ENDMDL
MODEL 4
REMARK VINA RESULT:      -8.0      1.655      2.805
REMARK  Name = 
REMARK  6 active torsions:
REMARK  status: ('A' for Active; 'I' for Inactive)
REMARK    1  A    between atoms: C_1  and  C_2
REMARK    2  A    between atoms: C_2  and  C_3
REMARK    3  A    between atoms: C_2  and  C_10
REMARK    4  A    between atoms: C_3  and  C_4
REMARK    5  A    between atoms: N_8  and  C_9
REMARK    6  A    between atoms: C_14  and  N_15
REMARK                            x       y       z     vdW  Elec       q    Type
REMARK                         _______ _______ _______ _____ _____    ______ ____
ROOT
ATOM      1  C   UNL     1       4.182   4.483  16.876  0.00  0.00    +0.000 A 
ATOM      2  C   UNL     1       3.408   3.330  17.044  0.00  0.00    +0.000 A 
ATOM      3  C   UNL     1       2.224   3.381  17.782  0.00  0.00    +0.000 A 
ATOM      4  C   UNL     1       1.814   4.573  18.388  0.00  0.00    +0.000 A 
ATOM      5  C   UNL     1       2.578   5.734  18.261  0.00  0.00    +0.000 A 
ATOM      6  C   UNL     1       3.736   5.672  17.468  0.00  0.00    +0.000 A 
ENDROOT
BRANCH   5   7
ATOM      7  N   UNL     1       2.272   6.935  18.952  0.00  0.00    +0.000 N 
ATOM      8  C   UNL     1       2.000   6.927  20.385  0.00  0.00    +0.000 C 
ATOM      9  C   UNL     1       1.569   8.315  20.652  0.00  0.00    +0.000 A 
ATOM     10  C   UNL     1       1.150   8.903  21.816  0.00  0.00    +0.000 A 
ATOM     11  N   UNL     1       0.750  10.194  21.848  0.00  0.00    +0.000 NA
ATOM     12  C   UNL     1       0.776  10.896  20.681  0.00  0.00    +0.000 A 
ATOM     13  C   UNL     1       1.192  10.384  19.466  0.00  0.00    +0.000 A 
ATOM     14  C   UNL     1       1.594   9.067  19.493  0.00  0.00    +0.000 A 
ATOM     15  C   UNL     1       2.053   8.199  18.395  0.00  0.00    +0.000 C 
ATOM     16  O   UNL     1       2.164   8.604  17.254  0.00  0.00    +0.000 OA
ENDBRANCH   5   7
BRANCH   1  18
ATOM     17  C   UNL     1       5.651   5.426  14.993  0.00  0.00    +0.000 C 
ATOM     18  C   UNL     1       5.520   4.422  16.152  0.00  0.00    +0.000 C 
BRANCH  18  19
ATOM     19  C   UNL     1       6.702   4.497  17.152  0.00  0.00    +0.000 C 
BRANCH  19  20
ATOM     20  C   UNL     1       7.212   5.880  17.409  0.00  0.00    +0.000 A 
ATOM     21  N   UNL     1       7.224   6.875  16.541  0.00  0.00    +0.000 NA
ATOM     22  N   UNL     1       7.749   7.986  17.154  0.00  0.00    +0.000 NA
ATOM     23  C   UNL     1       8.085   7.639  18.371  0.00  0.00    +0.000 A 
ATOM     24  N   UNL     1       7.769   6.331  18.579  0.00  0.00    +0.000 N 
ATOM     25  C   UNL     1       8.011   5.599  19.792  0.00  0.00    +0.000 C 
ENDBRANCH  19  20
ENDBRANCH  18  19
ENDBRANCH   1  18
TORSDOF 4
ENDMDL
MODEL 5
REMARK VINA RESULT:      -7.9      2.257      3.464
REMARK  Name = 
REMARK  6 active torsions:
REMARK  status: ('A' for Active; 'I' for Inactive)
REMARK    1  A    between atoms: C_1  and  C_2
REMARK    2  A    between atoms: C_2  and  C_3
REMARK    3  A    between atoms: C_2  and  C_10
REMARK    4  A    between atoms: C_3  and  C_4
REMARK    5  A    between atoms: N_8  and  C_9
REMARK    6  A    between atoms: C_14  and  N_15
REMARK                            x       y       z     vdW  Elec       q    Type
REMARK                         _______ _______ _______ _____ _____    ______ ____
ROOT
ATOM      1  C   UNL     1       4.718   4.141  16.660  0.00  0.00    +0.000 A 
ATOM      2  C   UNL     1       4.307   2.869  17.073  0.00  0.00    +0.000 A 
ATOM      3  C   UNL     1       3.218   2.728  17.934  0.00  0.00    +0.000 A 
ATOM      4  C   UNL     1       2.544   3.854  18.419  0.00  0.00    +0.000 A 
ATOM      5  C   UNL     1       2.945   5.138  18.046  0.00  0.00    +0.000 A 
ATOM      6  C   UNL     1       4.009   5.252  17.136  0.00  0.00    +0.000 A 
ENDROOT
BRANCH   5   7
ATOM      7  N   UNL     1       2.375   6.313  18.600  0.00  0.00    +0.000 N 
ATOM      8  C   UNL     1       2.267   7.537  17.813  0.00  0.00    +0.000 C 
ATOM      9  C   UNL     1       1.793   8.529  18.801  0.00  0.00    +0.000 A 
ATOM     10  C   UNL     1       1.540   9.868  18.658  0.00  0.00    +0.000 A 
ATOM     11  N   UNL     1       1.148  10.625  19.708  0.00  0.00    +0.000 NA
ATOM     12  C   UNL     1       1.013  10.014  20.917  0.00  0.00    +0.000 A 
ATOM     13  C   UNL     1       1.240   8.669  21.146  0.00  0.00    +0.000 A 
ATOM     14  C   UNL     1       1.630   7.944  20.042  0.00  0.00    +0.000 A 
ATOM     15  C   UNL     1       1.989   6.521  19.928  0.00  0.00    +0.000 C 
ATOM     16  O   UNL     1       1.943   5.764  20.878  0.00  0.00    +0.000 OA
ENDBRANCH   5   7
BRANCH   1  18
ATOM     17  C   UNL     1       5.704   4.127  14.290  0.00  0.00    +0.000 C 
ATOM     18  C   UNL     1       5.959   4.314  15.796  0.00  0.00    +0.000 C 
BRANCH  18  19
ATOM     19  C   UNL     1       6.689   5.641  16.124  0.00  0.00    +0.000 C 
BRANCH  19  20
ATOM     20  C   UNL     1       7.309   5.689  17.485  0.00  0.00    +0.000 A 
ATOM     21  N   UNL     1       7.508   4.656  18.283  0.00  0.00    +0.000 NA
ATOM     22  N   UNL     1       8.114   5.099  19.432  0.00  0.00    +0.000 NA
ATOM     23  C   UNL     1       8.239   6.399  19.334  0.00  0.00    +0.000 A 
ATOM     24  N   UNL     1       7.749   6.816  18.133  0.00  0.00    +0.000 N 
ATOM     25  C   UNL     1       7.699   8.180  17.683  0.00  0.00    +0.000 C 
ENDBRANCH  19  20
ENDBRANCH  18  19
ENDBRANCH   1  18
TORSDOF 4
ENDMDL
MODEL 6
REMARK VINA RESULT:      -7.8      1.916      2.948
REMARK  Name = 
REMARK  6 active torsions:
REMARK  status: ('A' for Active; 'I' for Inactive)
REMARK    1  A    between atoms: C_1  and  C_2
REMARK    2  A    between atoms: C_2  and  C_3
REMARK    3  A    between atoms: C_2  and  C_10
REMARK    4  A    between atoms: C_3  and  C_4
REMARK    5  A    between atoms: N_8  and  C_9
REMARK    6  A    between atoms: C_14  and  N_15
REMARK                            x       y       z     vdW  Elec       q    Type
REMARK                         _______ _______ _______ _____ _____    ______ ____
ROOT
ATOM      1  C   UNL     1       4.542   4.459  17.729  0.00  0.00    +0.000 A 
ATOM      2  C   UNL     1       4.471   3.461  18.706  0.00  0.00    +0.000 A 
ATOM      3  C   UNL     1       3.679   3.645  19.841  0.00  0.00    +0.000 A 
ATOM      4  C   UNL     1       2.974   4.838  20.031  0.00  0.00    +0.000 A 
ATOM      5  C   UNL     1       3.046   5.863  19.087  0.00  0.00    +0.000 A 
ATOM      6  C   UNL     1       3.804   5.634  17.928  0.00  0.00    +0.000 A 
ENDROOT
BRANCH   5   7
ATOM      7  N   UNL     1       2.450   7.136  19.287  0.00  0.00    +0.000 N 
ATOM      8  C   UNL     1       1.805   7.471  20.553  0.00  0.00    +0.000 C 
ATOM      9  C   UNL     1       1.185   8.784  20.275  0.00  0.00    +0.000 A 
ATOM     10  C   UNL     1       0.413   9.584  21.075  0.00  0.00    +0.000 A 
ATOM     11  N   UNL     1      -0.104  10.746  20.616  0.00  0.00    +0.000 NA
ATOM     12  C   UNL     1       0.166  11.098  19.329  0.00  0.00    +0.000 A 
ATOM     13  C   UNL     1       0.941  10.354  18.458  0.00  0.00    +0.000 A 
ATOM     14  C   UNL     1       1.448   9.184  18.979  0.00  0.00    +0.000 A 
ATOM     15  C   UNL     1       2.267   8.144  18.335  0.00  0.00    +0.000 C 
ATOM     16  O   UNL     1       2.640   8.235  17.182  0.00  0.00    +0.000 OA
ENDBRANCH   5   7
BRANCH   1  18
ATOM     17  C   UNL     1       5.102   5.206  15.338  0.00  0.00    +0.000 C 
ATOM     18  C   UNL     1       5.472   4.310  16.533  0.00  0.00    +0.000 C 
BRANCH  18  19
ATOM     19  C   UNL     1       6.956   4.450  16.956  0.00  0.00    +0.000 C 
BRANCH  19  20
ATOM     20  C   UNL     1       7.372   5.842  17.314  0.00  0.00    +0.000 A 
ATOM     21  N   UNL     1       7.499   6.853  16.474  0.00  0.00    +0.000 NA
ATOM     22  N   UNL     1       7.878   7.967  17.182  0.00  0.00    +0.000 NA
ATOM     23  C   UNL     1       8.015   7.608  18.434  0.00  0.00    +0.000 A 
ATOM     24  N   UNL     1       7.709   6.287  18.568  0.00  0.00    +0.000 N 
ATOM     25  C   UNL     1       7.766   5.539  19.794  0.00  0.00    +0.000 C 
ENDBRANCH  19  20
ENDBRANCH  18  19
ENDBRANCH   1  18
TORSDOF 4
ENDMDL
MODEL 7
REMARK VINA RESULT:      -7.7      1.830      8.800
REMARK  Name = 
REMARK  6 active torsions:
REMARK  status: ('A' for Active; 'I' for Inactive)
REMARK    1  A    between atoms: C_1  and  C_2
REMARK    2  A    between atoms: C_2  and  C_3
REMARK    3  A    between atoms: C_2  and  C_10
REMARK    4  A    between atoms: C_3  and  C_4
REMARK    5  A    between atoms: N_8  and  C_9
REMARK    6  A    between atoms: C_14  and  N_15
REMARK                            x       y       z     vdW  Elec       q    Type
REMARK                         _______ _______ _______ _____ _____    ______ ____
ROOT
ATOM      1  C   UNL     1       1.845   7.547  20.111  0.00  0.00    +0.000 A 
ATOM      2  C   UNL     1       1.289   6.598  20.975  0.00  0.00    +0.000 A 
ATOM      3  C   UNL     1       1.745   5.279  20.958  0.00  0.00    +0.000 A 
ATOM      4  C   UNL     1       2.739   4.882  20.056  0.00  0.00    +0.000 A 
ATOM      5  C   UNL     1       3.295   5.799  19.163  0.00  0.00    +0.000 A 
ATOM      6  C   UNL     1       2.859   7.132  19.237  0.00  0.00    +0.000 A 
ENDROOT
BRANCH   5   7
ATOM      7  N   UNL     1       4.215   5.423  18.150  0.00  0.00    +0.000 N 
ATOM      8  C   UNL     1       5.494   6.112  18.007  0.00  0.00    +0.000 C 
ATOM      9  C   UNL     1       6.044   5.539  16.760  0.00  0.00    +0.000 A 
ATOM     10  C   UNL     1       7.209   5.821  16.096  0.00  0.00    +0.000 A 
ATOM     11  N   UNL     1       7.518   5.211  14.930  0.00  0.00    +0.000 NA
ATOM     12  C   UNL     1       6.634   4.304  14.433  0.00  0.00    +0.000 A 
ATOM     13  C   UNL     1       5.442   3.954  15.042  0.00  0.00    +0.000 A 
ATOM     14  C   UNL     1       5.180   4.601  16.230  0.00  0.00    +0.000 A 
ATOM     15  C   UNL     1       4.007   4.507  17.114  0.00  0.00    +0.000 C 
ATOM     16  O   UNL     1       3.079   3.757  16.882  0.00  0.00    +0.000 OA
ENDBRANCH   5   7
BRANCH   1  18
ATOM     17  C   UNL     1       1.313   9.589  18.649  0.00  0.00    +0.000 C 
ATOM     18  C   UNL     1       1.295   8.965  20.056  0.00  0.00    +0.000 C 
BRANCH  18  19
ATOM     19  C   UNL     1      -0.094   9.054  20.738  0.00  0.00    +0.000 C 
BRANCH  19  20
ATOM     20  C   UNL     1      -0.358  10.348  21.443  0.00  0.00    +0.000 A 
ATOM     21  N   UNL     1      -0.035  10.630  22.692  0.00  0.00    +0.000 NA
ATOM     22  N   UNL     1      -0.425  11.917  22.966  0.00  0.00    +0.000 NA
ATOM     23  C   UNL     1      -1.014  12.385  21.894  0.00  0.00    +0.000 A 
ATOM     24  N   UNL     1      -0.998  11.440  20.913  0.00  0.00    +0.000 N 
ATOM     25  C   UNL     1      -1.571  11.590  19.603  0.00  0.00    +0.000 C 
ENDBRANCH  19  20
ENDBRANCH  18  19
ENDBRANCH   1  18
TORSDOF 4
ENDMDL
MODEL 8
REMARK VINA RESULT:      -7.7      2.084      3.249
REMARK  Name = 
REMARK  6 active torsions:
REMARK  status: ('A' for Active; 'I' for Inactive)
REMARK    1  A    between atoms: C_1  and  C_2
REMARK    2  A    between atoms: C_2  and  C_3
REMARK    3  A    between atoms: C_2  and  C_10
REMARK    4  A    between atoms: C_3  and  C_4
REMARK    5  A    between atoms: N_8  and  C_9
REMARK    6  A    between atoms: C_14  and  N_15
REMARK                            x       y       z     vdW  Elec       q    Type
REMARK                         _______ _______ _______ _____ _____    ______ ____
ROOT
ATOM      1  C   UNL     1       4.495   4.347  17.367  0.00  0.00    +0.000 A 
ATOM      2  C   UNL     1       4.283   3.321  18.293  0.00  0.00    +0.000 A 
ATOM      3  C   UNL     1       3.381   3.498  19.343  0.00  0.00    +0.000 A 
ATOM      4  C   UNL     1       2.702   4.711  19.502  0.00  0.00    +0.000 A 
ATOM      5  C   UNL     1       2.911   5.764  18.609  0.00  0.00    +0.000 A 
ATOM      6  C   UNL     1       3.781   5.543  17.529  0.00  0.00    +0.000 A 
ENDROOT
BRANCH   5   7
ATOM      7  N   UNL     1       2.342   7.051  18.792  0.00  0.00    +0.000 N 
ATOM      8  C   UNL     1       2.506   8.093  17.784  0.00  0.00    +0.000 C 
ATOM      9  C   UNL     1       1.925   9.285  18.437  0.00  0.00    +0.000 A 
ATOM     10  C   UNL     1       1.824  10.576  17.992  0.00  0.00    +0.000 A 
ATOM     11  N   UNL     1       1.290  11.547  18.767  0.00  0.00    +0.000 NA
ATOM     12  C   UNL     1       0.855  11.201  20.009  0.00  0.00    +0.000 A 
ATOM     13  C   UNL     1       0.912   9.922  20.533  0.00  0.00    +0.000 A 
ATOM     14  C   UNL     1       1.458   8.972  19.699  0.00  0.00    +0.000 A 
ATOM     15  C   UNL     1       1.708   7.541  19.939  0.00  0.00    +0.000 C 
ATOM     16  O   UNL     1       1.401   6.995  20.980  0.00  0.00    +0.000 OA
ENDBRANCH   5   7
BRANCH   1  18
ATOM     17  C   UNL     1       5.288   5.092  15.041  0.00  0.00    +0.000 C 
ATOM     18  C   UNL     1       5.542   4.202  16.271  0.00  0.00    +0.000 C 
BRANCH  18  19
ATOM     19  C   UNL     1       6.974   4.356  16.842  0.00  0.00    +0.000 C 
BRANCH  19  20
ATOM     20  C   UNL     1       7.347   5.755  17.217  0.00  0.00    +0.000 A 
ATOM     21  N   UNL     1       7.459   6.777  16.386  0.00  0.00    +0.000 NA
ATOM     22  N   UNL     1       7.799   7.894  17.108  0.00  0.00    +0.000 NA
ATOM     23  C   UNL     1       7.927   7.529  18.359  0.00  0.00    +0.000 A 
ATOM     24  N   UNL     1       7.656   6.199  18.478  0.00  0.00    +0.000 N 
ATOM     25  C   UNL     1       7.715   5.444  19.699  0.00  0.00    +0.000 C 
ENDBRANCH  19  20
ENDBRANCH  18  19
ENDBRANCH   1  18
TORSDOF 4
ENDMDL
MODEL 9
REMARK VINA RESULT:      -7.7      0.880      1.390
REMARK  Name = 
REMARK  6 active torsions:
REMARK  status: ('A' for Active; 'I' for Inactive)
REMARK    1  A    between atoms: C_1  and  C_2
REMARK    2  A    between atoms: C_2  and  C_3
REMARK    3  A    between atoms: C_2  and  C_10
REMARK    4  A    between atoms: C_3  and  C_4
REMARK    5  A    between atoms: N_8  and  C_9
REMARK    6  A    between atoms: C_14  and  N_15
REMARK                            x       y       z     vdW  Elec       q    Type
REMARK                         _______ _______ _______ _____ _____    ______ ____
ROOT
ATOM      1  C   UNL     1       4.827   5.667  16.806  0.00  0.00    +0.000 A 
ATOM      2  C   UNL     1       4.305   4.370  16.849  0.00  0.00    +0.000 A 
ATOM      3  C   UNL     1       3.097   4.120  17.503  0.00  0.00    +0.000 A 
ATOM      4  C   UNL     1       2.411   5.154  18.150  0.00  0.00    +0.000 A 
ATOM      5  C   UNL     1       2.919   6.453  18.148  0.00  0.00    +0.000 A 
ATOM      6  C   UNL     1       4.107   6.691  17.437  0.00  0.00    +0.000 A 
ENDROOT
BRANCH   5   7
ATOM      7  N   UNL     1       2.328   7.511  18.888  0.00  0.00    +0.000 N 
ATOM      8  C   UNL     1       1.995   7.344  20.298  0.00  0.00    +0.000 C 
ATOM      9  C   UNL     1       1.263   8.587  20.618  0.00  0.00    +0.000 A 
ATOM     10  C   UNL     1       0.671   8.989  21.786  0.00  0.00    +0.000 A 
ATOM     11  N   UNL     1       0.001  10.161  21.869  0.00  0.00    +0.000 NA
ATOM     12  C   UNL     1      -0.068  10.933  20.749  0.00  0.00    +0.000 A 
ATOM     13  C   UNL     1       0.508  10.607  19.534  0.00  0.00    +0.000 A 
ATOM     14  C   UNL     1       1.182   9.407  19.509  0.00  0.00    +0.000 A 
ATOM     15  C   UNL     1       1.870   8.736  18.393  0.00  0.00    +0.000 C 
ATOM     16  O   UNL     1       1.946   9.234  17.287  0.00  0.00    +0.000 OA
ENDBRANCH   5   7
BRANCH   1  18
ATOM     17  C   UNL     1       7.112   6.813  17.039  0.00  0.00    +0.000 C 
ATOM     18  C   UNL     1       6.186   5.937  16.176  0.00  0.00    +0.000 C 
BRANCH  18  19
ATOM     19  C   UNL     1       6.860   4.622  15.711  0.00  0.00    +0.000 C 
BRANCH  19  20
ATOM     20  C   UNL     1       6.659   4.299  14.263  0.00  0.00    +0.000 A 
ATOM     21  N   UNL     1       5.770   3.454  13.773  0.00  0.00    +0.000 NA
ATOM     22  N   UNL     1       5.882   3.445  12.405  0.00  0.00    +0.000 NA
ATOM     23  C   UNL     1       6.862   4.253  12.086  0.00  0.00    +0.000 A 
ATOM     24  N   UNL     1       7.381   4.811  13.214  0.00  0.00    +0.000 N 
ATOM     25  C   UNL     1       8.483   5.733  13.256  0.00  0.00    +0.000 C 
ENDBRANCH  19  20
ENDBRANCH  18  19
ENDBRANCH   1  18
TORSDOF 4
ENDMDL
