MODEL 1
REMARK VINA RESULT:      -9.4      0.000      0.000
REMARK  Name = 
REMARK  4 active torsions:
REMARK  status: ('A' for Active; 'I' for Inactive)
REMARK    1  A    between atoms: C_1  and  C_2
REMARK    2  A    between atoms: C_2  and  N_3
REMARK    3  A    between atoms: C_2  and  C_15
REMARK    4  A    between atoms: C_4  and  C_6
REMARK                            x       y       z     vdW  Elec       q    Type
REMARK                         _______ _______ _______ _____ _____    ______ ____
ROOT
ATOM      1  N   UNL     1       5.791   5.277  18.431  0.00  0.00    +0.000 N 
ATOM      2  C   UNL     1       4.674   6.068  18.230  0.00  0.00    +0.000 C 
ATOM      3  O   UNL     1       4.674   7.014  17.441  0.00  0.00    +0.000 OA
ATOM      4  H   UNL     1       5.676   4.452  19.011  0.00  0.00    +0.000 HD
ENDROOT
BRANCH   2   5
ATOM      5  C   UNL     1       3.481   5.699  19.010  0.00  0.00    +0.000 A 
ATOM      6  N   UNL     1       2.974   6.499  19.973  0.00  0.00    +0.000 NA
ATOM      7  N   UNL     1       1.918   5.807  20.442  0.00  0.00    +0.000 N 
ATOM      8  C   UNL     1       1.717   4.593  19.843  0.00  0.00    +0.000 A 
ATOM      9  C   UNL     1       0.758   3.595  20.058  0.00  0.00    +0.000 A 
ATOM     10  C   UNL     1       0.840   2.445  19.264  0.00  0.00    +0.000 A 
ATOM     11  C   UNL     1       1.834   2.310  18.295  0.00  0.00    +0.000 A 
ATOM     12  C   UNL     1       2.779   3.326  18.094  0.00  0.00    +0.000 A 
ATOM     13  C   UNL     1       2.722   4.489  18.889  0.00  0.00    +0.000 A 
ATOM     14  H   UNL     1       1.369   6.216  21.189  0.00  0.00    +0.000 HD
ENDBRANCH   2   5
BRANCH   1  16
ATOM     15  C   UNL     1       7.554   6.873  17.753  0.00  0.00    +0.000 C 
ATOM     16  C   UNL     1       6.977   5.465  17.622  0.00  0.00    +0.000 C 
BRANCH  16  17
ATOM     17  C   UNL     1       6.733   5.102  16.194  0.00  0.00    +0.000 A 
ATOM     18  C   UNL     1       5.859   4.188  15.637  0.00  0.00    +0.000 A 
ATOM     19  C   UNL     1       6.181   4.094  14.262  0.00  0.00    +0.000 A 
ATOM     20  C   UNL     1       5.727   3.316  13.182  0.00  0.00    +0.000 A 
ATOM     21  C   UNL     1       6.317   3.496  11.924  0.00  0.00    +0.000 A 
ATOM     22  C   UNL     1       7.340   4.431  11.742  0.00  0.00    +0.000 A 
ATOM     23  C   UNL     1       7.812   5.210  12.807  0.00  0.00    +0.000 A 
ATOM     24  C   UNL     1       7.210   5.005  14.049  0.00  0.00    +0.000 A 
ATOM     25  O   UNL     1       7.539   5.630  15.222  0.00  0.00    +0.000 OA
ENDBRANCH  16  17
ENDBRANCH   1  16
TORSDOF 3
ENDMDL
MODEL 2
REMARK VINA RESULT:      -9.0      1.923      2.816
REMARK  Name = 
REMARK  4 active torsions:
REMARK  status: ('A' for Active; 'I' for Inactive)
REMARK    1  A    between atoms: C_1  and  C_2
REMARK    2  A    between atoms: C_2  and  N_3
REMARK    3  A    between atoms: C_2  and  C_15
REMARK    4  A    between atoms: C_4  and  C_6
REMARK                            x       y       z     vdW  Elec       q    Type
REMARK                         _______ _______ _______ _____ _____    ______ ____
ROOT
ATOM      1  N   UNL     1       5.360   5.492  18.492  0.00  0.00    +0.000 N 
ATOM      2  C   UNL     1       4.167   4.908  18.875  0.00  0.00    +0.000 C 
ATOM      3  O   UNL     1       3.930   3.714  18.686  0.00  0.00    +0.000 OA
ATOM      4  H   UNL     1       5.522   6.451  18.782  0.00  0.00    +0.000 HD
ENDROOT
BRANCH   2   5
ATOM      5  C   UNL     1       3.200   5.802  19.535  0.00  0.00    +0.000 A 
ATOM      6  N   UNL     1       2.637   5.502  20.725  0.00  0.00    +0.000 NA
ATOM      7  N   UNL     1       1.823   6.548  20.967  0.00  0.00    +0.000 N 
ATOM      8  C   UNL     1       1.818   7.508  19.992  0.00  0.00    +0.000 A 
ATOM      9  C   UNL     1       1.109   8.709  19.871  0.00  0.00    +0.000 A 
ATOM     10  C   UNL     1       1.331   9.472  18.719  0.00  0.00    +0.000 A 
ATOM     11  C   UNL     1       2.230   9.050  17.740  0.00  0.00    +0.000 A 
ATOM     12  C   UNL     1       2.933   7.847  17.887  0.00  0.00    +0.000 A 
ATOM     13  C   UNL     1       2.718   7.056  19.035  0.00  0.00    +0.000 A 
ATOM     14  H   UNL     1       1.282   6.546  21.824  0.00  0.00    +0.000 HD
ENDBRANCH   2   5
BRANCH   1  16
ATOM     15  C   UNL     1       7.808   5.145  18.427  0.00  0.00    +0.000 C 
ATOM     16  C   UNL     1       6.433   4.681  17.953  0.00  0.00    +0.000 C 
BRANCH  16  17
ATOM     17  C   UNL     1       6.364   4.598  16.464  0.00  0.00    +0.000 A 
ATOM     18  C   UNL     1       5.555   3.834  15.643  0.00  0.00    +0.000 A 
ATOM     19  C   UNL     1       6.046   3.985  14.325  0.00  0.00    +0.000 A 
ATOM     20  C   UNL     1       5.721   3.437  13.070  0.00  0.00    +0.000 A 
ATOM     21  C   UNL     1       6.466   3.826  11.949  0.00  0.00    +0.000 A 
ATOM     22  C   UNL     1       7.515   4.741  12.071  0.00  0.00    +0.000 A 
ATOM     23  C   UNL     1       7.861   5.292  13.312  0.00  0.00    +0.000 A 
ATOM     24  C   UNL     1       7.105   4.882  14.412  0.00  0.00    +0.000 A 
ATOM     25  O   UNL     1       7.292   5.267  15.712  0.00  0.00    +0.000 OA
ENDBRANCH  16  17
ENDBRANCH   1  16
TORSDOF 3
ENDMDL
MODEL 3
REMARK VINA RESULT:      -8.9      1.707      1.889
REMARK  Name = 
REMARK  4 active torsions:
REMARK  status: ('A' for Active; 'I' for Inactive)
REMARK    1  A    between atoms: C_1  and  C_2
REMARK    2  A    between atoms: C_2  and  N_3
REMARK    3  A    between atoms: C_2  and  C_15
REMARK    4  A    between atoms: C_4  and  C_6
REMARK                            x       y       z     vdW  Elec       q    Type
REMARK                         _______ _______ _______ _____ _____    ______ ____
ROOT
ATOM      1  N   UNL     1       6.658   4.253  18.372  0.00  0.00    +0.000 N 
ATOM      2  C   UNL     1       5.375   4.645  18.706  0.00  0.00    +0.000 C 
ATOM      3  O   UNL     1       4.896   5.714  18.328  0.00  0.00    +0.000 OA
ATOM      4  H   UNL     1       6.937   3.311  18.628  0.00  0.00    +0.000 HD
ENDROOT
BRANCH   2   5
ATOM      5  C   UNL     1       4.612   3.695  19.534  0.00  0.00    +0.000 A 
ATOM      6  N   UNL     1       5.170   2.579  20.050  0.00  0.00    +0.000 NA
ATOM      7  N   UNL     1       4.157   1.992  20.715  0.00  0.00    +0.000 N 
ATOM      8  C   UNL     1       2.965   2.660  20.649  0.00  0.00    +0.000 A 
ATOM      9  C   UNL     1       1.702   2.369  21.182  0.00  0.00    +0.000 A 
ATOM     10  C   UNL     1       0.669   3.275  20.915  0.00  0.00    +0.000 A 
ATOM     11  C   UNL     1       0.897   4.421  20.155  0.00  0.00    +0.000 A 
ATOM     12  C   UNL     1       2.171   4.694  19.637  0.00  0.00    +0.000 A 
ATOM     13  C   UNL     1       3.225   3.791  19.885  0.00  0.00    +0.000 A 
ATOM     14  H   UNL     1       4.340   1.118  21.195  0.00  0.00    +0.000 HD
ENDBRANCH   2   5
BRANCH   1  16
ATOM     15  C   UNL     1       7.433   6.532  17.805  0.00  0.00    +0.000 C 
ATOM     16  C   UNL     1       7.451   5.046  17.455  0.00  0.00    +0.000 C 
BRANCH  16  17
ATOM     17  C   UNL     1       7.050   4.811  16.036  0.00  0.00    +0.000 A 
ATOM     18  C   UNL     1       6.102   3.959  15.500  0.00  0.00    +0.000 A 
ATOM     19  C   UNL     1       6.277   3.981  14.096  0.00  0.00    +0.000 A 
ATOM     20  C   UNL     1       5.695   3.304  13.008  0.00  0.00    +0.000 A 
ATOM     21  C   UNL     1       6.153   3.584  11.714  0.00  0.00    +0.000 A 
ATOM     22  C   UNL     1       7.172   4.518  11.504  0.00  0.00    +0.000 A 
ATOM     23  C   UNL     1       7.771   5.196  12.574  0.00  0.00    +0.000 A 
ATOM     24  C   UNL     1       7.298   4.893  13.852  0.00  0.00    +0.000 A 
ATOM     25  O   UNL     1       7.761   5.410  15.031  0.00  0.00    +0.000 OA
ENDBRANCH  16  17
ENDBRANCH   1  16
TORSDOF 3
ENDMDL
MODEL 4
REMARK VINA RESULT:      -8.8      2.707      7.346
REMARK  Name = 
REMARK  4 active torsions:
REMARK  status: ('A' for Active; 'I' for Inactive)
REMARK    1  A    between atoms: C_1  and  C_2
REMARK    2  A    between atoms: C_2  and  N_3
REMARK    3  A    between atoms: C_2  and  C_15
REMARK    4  A    between atoms: C_4  and  C_6
REMARK                            x       y       z     vdW  Elec       q    Type
REMARK                         _______ _______ _______ _____ _____    ______ ____
ROOT
ATOM      1  N   UNL     1       4.271   5.254  16.943  0.00  0.00    +0.000 N 
ATOM      2  C   UNL     1       5.557   4.757  17.047  0.00  0.00    +0.000 C 
ATOM      3  O   UNL     1       5.955   4.173  18.055  0.00  0.00    +0.000 OA
ATOM      4  H   UNL     1       3.987   5.621  16.040  0.00  0.00    +0.000 HD
ENDROOT
BRANCH   2   5
ATOM      5  C   UNL     1       6.418   4.960  15.869  0.00  0.00    +0.000 A 
ATOM      6  N   UNL     1       7.519   5.740  15.907  0.00  0.00    +0.000 NA
ATOM      7  N   UNL     1       8.004   5.672  14.652  0.00  0.00    +0.000 N 
ATOM      8  C   UNL     1       7.269   4.898  13.795  0.00  0.00    +0.000 A 
ATOM      9  C   UNL     1       7.432   4.599  12.436  0.00  0.00    +0.000 A 
ATOM     10  C   UNL     1       6.477   3.766  11.844  0.00  0.00    +0.000 A 
ATOM     11  C   UNL     1       5.413   3.252  12.585  0.00  0.00    +0.000 A 
ATOM     12  C   UNL     1       5.274   3.560  13.945  0.00  0.00    +0.000 A 
ATOM     13  C   UNL     1       6.220   4.406  14.561  0.00  0.00    +0.000 A 
ATOM     14  H   UNL     1       8.847   6.190  14.434  0.00  0.00    +0.000 HD
ENDBRANCH   2   5
BRANCH   1  16
ATOM     15  C   UNL     1       2.145   4.122  17.505  0.00  0.00    +0.000 C 
ATOM     16  C   UNL     1       3.299   4.997  17.986  0.00  0.00    +0.000 C 
BRANCH  16  17
ATOM     17  C   UNL     1       2.808   6.265  18.604  0.00  0.00    +0.000 A 
ATOM     18  C   UNL     1       2.353   6.523  19.883  0.00  0.00    +0.000 A 
ATOM     19  C   UNL     1       1.817   7.833  19.873  0.00  0.00    +0.000 A 
ATOM     20  C   UNL     1       1.156   8.648  20.810  0.00  0.00    +0.000 A 
ATOM     21  C   UNL     1       0.743   9.928  20.420  0.00  0.00    +0.000 A 
ATOM     22  C   UNL     1       0.982  10.392  19.124  0.00  0.00    +0.000 A 
ATOM     23  C   UNL     1       1.631   9.594  18.173  0.00  0.00    +0.000 A 
ATOM     24  C   UNL     1       2.026   8.321  18.587  0.00  0.00    +0.000 A 
ATOM     25  O   UNL     1       2.641   7.372  17.817  0.00  0.00    +0.000 OA
ENDBRANCH  16  17
ENDBRANCH   1  16
TORSDOF 3
ENDMDL
MODEL 5
REMARK VINA RESULT:      -8.7      2.735      3.455
REMARK  Name = 
REMARK  4 active torsions:
REMARK  status: ('A' for Active; 'I' for Inactive)
REMARK    1  A    between atoms: C_1  and  C_2
REMARK    2  A    between atoms: C_2  and  N_3
REMARK    3  A    between atoms: C_2  and  C_15
REMARK    4  A    between atoms: C_4  and  C_6
REMARK                            x       y       z     vdW  Elec       q    Type
REMARK                         _______ _______ _______ _____ _____    ______ ____
ROOT
ATOM      1  N   UNL     1       4.747   7.094  17.459  0.00  0.00    +0.000 N 
ATOM      2  C   UNL     1       3.498   6.816  17.984  0.00  0.00    +0.000 C 
ATOM      3  O   UNL     1       3.156   5.674  18.293  0.00  0.00    +0.000 OA
ATOM      4  H   UNL     1       4.991   8.072  17.335  0.00  0.00    +0.000 HD
ENDROOT
BRANCH   2   5
ATOM      5  C   UNL     1       2.606   7.975  18.161  0.00  0.00    +0.000 A 
ATOM      6  N   UNL     1       2.427   8.901  17.195  0.00  0.00    +0.000 NA
ATOM      7  N   UNL     1       1.568   9.779  17.747  0.00  0.00    +0.000 N 
ATOM      8  C   UNL     1       1.188   9.481  19.027  0.00  0.00    +0.000 A 
ATOM      9  C   UNL     1       0.343  10.143  19.926  0.00  0.00    +0.000 A 
ATOM     10  C   UNL     1       0.171   9.565  21.189  0.00  0.00    +0.000 A 
ATOM     11  C   UNL     1       0.813   8.374  21.528  0.00  0.00    +0.000 A 
ATOM     12  C   UNL     1       1.650   7.727  20.608  0.00  0.00    +0.000 A 
ATOM     13  C   UNL     1       1.846   8.296  19.333  0.00  0.00    +0.000 A 
ATOM     14  H   UNL     1       1.280  10.580  17.197  0.00  0.00    +0.000 HD
ENDBRANCH   2   5
BRANCH   1  16
ATOM     15  C   UNL     1       7.115   6.512  17.870  0.00  0.00    +0.000 C 
ATOM     16  C   UNL     1       5.750   6.054  17.364  0.00  0.00    +0.000 C 
BRANCH  16  17
ATOM     17  C   UNL     1       5.835   5.498  15.980  0.00  0.00    +0.000 A 
ATOM     18  C   UNL     1       5.056   4.551  15.342  0.00  0.00    +0.000 A 
ATOM     19  C   UNL     1       5.698   4.246  14.119  0.00  0.00    +0.000 A 
ATOM     20  C   UNL     1       5.463   3.339  13.069  0.00  0.00    +0.000 A 
ATOM     21  C   UNL     1       6.356   3.309  11.989  0.00  0.00    +0.000 A 
ATOM     22  C   UNL     1       7.462   4.163  11.953  0.00  0.00    +0.000 A 
ATOM     23  C   UNL     1       7.718   5.067  12.993  0.00  0.00    +0.000 A 
ATOM     24  C   UNL     1       6.816   5.071  14.058  0.00  0.00    +0.000 A 
ATOM     25  O   UNL     1       6.894   5.844  15.184  0.00  0.00    +0.000 OA
ENDBRANCH  16  17
ENDBRANCH   1  16
TORSDOF 3
ENDMDL
MODEL 6
REMARK VINA RESULT:      -8.6      2.935      7.508
REMARK  Name = 
REMARK  4 active torsions:
REMARK  status: ('A' for Active; 'I' for Inactive)
REMARK    1  A    between atoms: C_1  and  C_2
REMARK    2  A    between atoms: C_2  and  N_3
REMARK    3  A    between atoms: C_2  and  C_15
REMARK    4  A    between atoms: C_4  and  C_6
REMARK                            x       y       z     vdW  Elec       q    Type
REMARK                         _______ _______ _______ _____ _____    ______ ____
ROOT
ATOM      1  N   UNL     1       4.289   5.600  17.051  0.00  0.00    +0.000 N 
ATOM      2  C   UNL     1       5.445   4.840  17.055  0.00  0.00    +0.000 C 
ATOM      3  O   UNL     1       5.701   4.041  17.955  0.00  0.00    +0.000 OA
ATOM      4  H   UNL     1       4.099   6.151  16.220  0.00  0.00    +0.000 HD
ENDROOT
BRANCH   2   5
ATOM      5  C   UNL     1       6.344   5.039  15.905  0.00  0.00    +0.000 A 
ATOM      6  N   UNL     1       7.438   5.827  15.974  0.00  0.00    +0.000 NA
ATOM      7  N   UNL     1       7.966   5.752  14.737  0.00  0.00    +0.000 N 
ATOM      8  C   UNL     1       7.267   4.964  13.863  0.00  0.00    +0.000 A 
ATOM      9  C   UNL     1       7.479   4.654  12.514  0.00  0.00    +0.000 A 
ATOM     10  C   UNL     1       6.551   3.808  11.897  0.00  0.00    +0.000 A 
ATOM     11  C   UNL     1       5.466   3.292  12.605  0.00  0.00    +0.000 A 
ATOM     12  C   UNL     1       5.278   3.613  13.957  0.00  0.00    +0.000 A 
ATOM     13  C   UNL     1       6.195   4.471  14.597  0.00  0.00    +0.000 A 
ATOM     14  H   UNL     1       8.813   6.274  14.544  0.00  0.00    +0.000 HD
ENDBRANCH   2   5
BRANCH   1  16
ATOM     15  C   UNL     1       2.289   4.289  17.680  0.00  0.00    +0.000 C 
ATOM     16  C   UNL     1       3.272   5.393  18.062  0.00  0.00    +0.000 C 
BRANCH  16  17
ATOM     17  C   UNL     1       2.567   6.665  18.400  0.00  0.00    +0.000 A 
ATOM     18  C   UNL     1       2.367   7.809  17.650  0.00  0.00    +0.000 A 
ATOM     19  C   UNL     1       1.822   8.782  18.520  0.00  0.00    +0.000 A 
ATOM     20  C   UNL     1       1.464  10.138  18.401  0.00  0.00    +0.000 A 
ATOM     21  C   UNL     1       0.953  10.803  19.523  0.00  0.00    +0.000 A 
ATOM     22  C   UNL     1       0.801  10.135  20.742  0.00  0.00    +0.000 A 
ATOM     23  C   UNL     1       1.160   8.788  20.883  0.00  0.00    +0.000 A 
ATOM     24  C   UNL     1       1.671   8.152  19.751  0.00  0.00    +0.000 A 
ATOM     25  O   UNL     1       2.112   6.859  19.676  0.00  0.00    +0.000 OA
ENDBRANCH  16  17
ENDBRANCH   1  16
TORSDOF 3
ENDMDL
MODEL 7
REMARK VINA RESULT:      -8.5      2.014      6.784
REMARK  Name = 
REMARK  4 active torsions:
REMARK  status: ('A' for Active; 'I' for Inactive)
REMARK    1  A    between atoms: C_1  and  C_2
REMARK    2  A    between atoms: C_2  and  N_3
REMARK    3  A    between atoms: C_2  and  C_15
REMARK    4  A    between atoms: C_4  and  C_6
REMARK                            x       y       z     vdW  Elec       q    Type
REMARK                         _______ _______ _______ _____ _____    ______ ____
ROOT
ATOM      1  N   UNL     1       6.808   5.204  17.337  0.00  0.00    +0.000 N 
ATOM      2  C   UNL     1       6.343   5.865  16.214  0.00  0.00    +0.000 C 
ATOM      3  O   UNL     1       5.509   6.769  16.283  0.00  0.00    +0.000 OA
ATOM      4  H   UNL     1       7.574   4.551  17.207  0.00  0.00    +0.000 HD
ENDROOT
BRANCH   2   5
ATOM      5  C   UNL     1       6.919   5.428  14.931  0.00  0.00    +0.000 A 
ATOM      6  N   UNL     1       8.147   5.812  14.524  0.00  0.00    +0.000 NA
ATOM      7  N   UNL     1       8.287   5.219  13.323  0.00  0.00    +0.000 N 
ATOM      8  C   UNL     1       7.210   4.478  12.920  0.00  0.00    +0.000 A 
ATOM      9  C   UNL     1       6.968   3.741  11.754  0.00  0.00    +0.000 A 
ATOM     10  C   UNL     1       5.732   3.094  11.649  0.00  0.00    +0.000 A 
ATOM     11  C   UNL     1       4.787   3.178  12.671  0.00  0.00    +0.000 A 
ATOM     12  C   UNL     1       5.054   3.916  13.832  0.00  0.00    +0.000 A 
ATOM     13  C   UNL     1       6.290   4.585  13.956  0.00  0.00    +0.000 A 
ATOM     14  H   UNL     1       9.150   5.366  12.812  0.00  0.00    +0.000 HD
ENDBRANCH   2   5
BRANCH   1  16
ATOM     15  C   UNL     1       7.551   5.548  19.670  0.00  0.00    +0.000 C 
ATOM     16  C   UNL     1       6.410   5.639  18.660  0.00  0.00    +0.000 C 
BRANCH  16  17
ATOM     17  C   UNL     1       5.195   4.912  19.135  0.00  0.00    +0.000 A 
ATOM     18  C   UNL     1       4.829   3.586  18.994  0.00  0.00    +0.000 A 
ATOM     19  C   UNL     1       3.493   3.478  19.447  0.00  0.00    +0.000 A 
ATOM     20  C   UNL     1       2.541   2.443  19.505  0.00  0.00    +0.000 A 
ATOM     21  C   UNL     1       1.270   2.724  20.022  0.00  0.00    +0.000 A 
ATOM     22  C   UNL     1       0.949   4.007  20.473  0.00  0.00    +0.000 A 
ATOM     23  C   UNL     1       1.880   5.053  20.416  0.00  0.00    +0.000 A 
ATOM     24  C   UNL     1       3.136   4.746  19.891  0.00  0.00    +0.000 A 
ATOM     25  O   UNL     1       4.176   5.618  19.714  0.00  0.00    +0.000 OA
ENDBRANCH  16  17
ENDBRANCH   1  16
TORSDOF 3
ENDMDL
MODEL 8
REMARK VINA RESULT:      -8.5      2.978      3.922
REMARK  Name = 
REMARK  4 active torsions:
REMARK  status: ('A' for Active; 'I' for Inactive)
REMARK    1  A    between atoms: C_1  and  C_2
REMARK    2  A    between atoms: C_2  and  N_3
REMARK    3  A    between atoms: C_2  and  C_15
REMARK    4  A    between atoms: C_4  and  C_6
REMARK                            x       y       z     vdW  Elec       q    Type
REMARK                         _______ _______ _______ _____ _____    ______ ____
ROOT
ATOM      1  N   UNL     1       4.224   6.440  17.799  0.00  0.00    +0.000 N 
ATOM      2  C   UNL     1       2.989   6.508  18.420  0.00  0.00    +0.000 C 
ATOM      3  O   UNL     1       2.462   5.526  18.942  0.00  0.00    +0.000 OA
ATOM      4  H   UNL     1       4.638   7.314  17.493  0.00  0.00    +0.000 HD
ENDROOT
BRANCH   2   5
ATOM      5  C   UNL     1       2.352   7.836  18.428  0.00  0.00    +0.000 A 
ATOM      6  N   UNL     1       2.375   8.653  17.353  0.00  0.00    +0.000 NA
ATOM      7  N   UNL     1       1.708   9.747  17.767  0.00  0.00    +0.000 N 
ATOM      8  C   UNL     1       1.262   9.691  19.059  0.00  0.00    +0.000 A 
ATOM      9  C   UNL     1       0.559  10.615  19.844  0.00  0.00    +0.000 A 
ATOM     10  C   UNL     1       0.259  10.243  21.159  0.00  0.00    +0.000 A 
ATOM     11  C   UNL     1       0.641   8.998  21.658  0.00  0.00    +0.000 A 
ATOM     12  C   UNL     1       1.339   8.088  20.852  0.00  0.00    +0.000 A 
ATOM     13  C   UNL     1       1.660   8.445  19.526  0.00  0.00    +0.000 A 
ATOM     14  H   UNL     1       1.595  10.516  17.116  0.00  0.00    +0.000 HD
ENDBRANCH   2   5
BRANCH   1  16
ATOM     15  C   UNL     1       5.994   5.203  19.004  0.00  0.00    +0.000 C 
ATOM     16  C   UNL     1       5.000   5.217  17.846  0.00  0.00    +0.000 C 
BRANCH  16  17
ATOM     17  C   UNL     1       5.672   4.943  16.541  0.00  0.00    +0.000 A 
ATOM     18  C   UNL     1       6.804   5.503  15.978  0.00  0.00    +0.000 A 
ATOM     19  C   UNL     1       6.878   5.032  14.646  0.00  0.00    +0.000 A 
ATOM     20  C   UNL     1       7.727   5.270  13.550  0.00  0.00    +0.000 A 
ATOM     21  C   UNL     1       7.470   4.611  12.341  0.00  0.00    +0.000 A 
ATOM     22  C   UNL     1       6.390   3.732  12.222  0.00  0.00    +0.000 A 
ATOM     23  C   UNL     1       5.527   3.488  13.299  0.00  0.00    +0.000 A 
ATOM     24  C   UNL     1       5.804   4.162  14.489  0.00  0.00    +0.000 A 
ATOM     25  O   UNL     1       5.076   4.097  15.646  0.00  0.00    +0.000 OA
ENDBRANCH  16  17
ENDBRANCH   1  16
TORSDOF 3
ENDMDL
MODEL 9
REMARK VINA RESULT:      -8.4      3.107      7.316
REMARK  Name = 
REMARK  4 active torsions:
REMARK  status: ('A' for Active; 'I' for Inactive)
REMARK    1  A    between atoms: C_1  and  C_2
REMARK    2  A    between atoms: C_2  and  N_3
REMARK    3  A    between atoms: C_2  and  C_15
REMARK    4  A    between atoms: C_4  and  C_6
REMARK                            x       y       z     vdW  Elec       q    Type
REMARK                         _______ _______ _______ _____ _____    ______ ____
ROOT
ATOM      1  N   UNL     1       4.023   5.481  18.990  0.00  0.00    +0.000 N 
ATOM      2  C   UNL     1       4.936   4.444  19.060  0.00  0.00    +0.000 C 
ATOM      3  O   UNL     1       4.852   3.551  19.903  0.00  0.00    +0.000 OA
ATOM      4  H   UNL     1       4.098   6.113  18.200  0.00  0.00    +0.000 HD
ENDROOT
BRANCH   2   5
ATOM      5  C   UNL     1       6.010   4.471  18.052  0.00  0.00    +0.000 A 
ATOM      6  N   UNL     1       7.314   4.551  18.390  0.00  0.00    +0.000 NA
ATOM      7  N   UNL     1       7.954   4.562  17.205  0.00  0.00    +0.000 N 
ATOM      8  C   UNL     1       7.133   4.505  16.111  0.00  0.00    +0.000 A 
ATOM      9  C   UNL     1       7.409   4.512  14.738  0.00  0.00    +0.000 A 
ATOM     10  C   UNL     1       6.317   4.452  13.864  0.00  0.00    +0.000 A 
ATOM     11  C   UNL     1       5.012   4.379  14.349  0.00  0.00    +0.000 A 
ATOM     12  C   UNL     1       4.762   4.367  15.729  0.00  0.00    +0.000 A 
ATOM     13  C   UNL     1       5.845   4.437  16.628  0.00  0.00    +0.000 A 
ATOM     14  H   UNL     1       8.965   4.619  17.205  0.00  0.00    +0.000 HD
ENDBRANCH   2   5
BRANCH   1  16
ATOM     15  C   UNL     1       1.820   4.443  19.425  0.00  0.00    +0.000 C 
ATOM     16  C   UNL     1       2.854   5.485  19.846  0.00  0.00    +0.000 C 
BRANCH  16  17
ATOM     17  C   UNL     1       2.251   6.848  19.945  0.00  0.00    +0.000 A 
ATOM     18  C   UNL     1       1.506   7.429  20.954  0.00  0.00    +0.000 A 
ATOM     19  C   UNL     1       1.013   8.655  20.448  0.00  0.00    +0.000 A 
ATOM     20  C   UNL     1       0.160   9.664  20.933  0.00  0.00    +0.000 A 
ATOM     21  C   UNL     1      -0.123  10.762  20.111  0.00  0.00    +0.000 A 
ATOM     22  C   UNL     1       0.430  10.858  18.831  0.00  0.00    +0.000 A 
ATOM     23  C   UNL     1       1.275   9.861  18.327  0.00  0.00    +0.000 A 
ATOM     24  C   UNL     1       1.535   8.776  19.165  0.00  0.00    +0.000 A 
ATOM     25  O   UNL     1       2.300   7.682  18.862  0.00  0.00    +0.000 OA
ENDBRANCH  16  17
ENDBRANCH   1  16
TORSDOF 3
ENDMDL
