MODEL 1
REMARK VINA RESULT:      -8.8      0.000      0.000
REMARK  Name = 
REMARK  5 active torsions:
REMARK  status: ('A' for Active; 'I' for Inactive)
REMARK    1  A    between atoms: C_2  and  C_3
REMARK    2  A    between atoms: C_3  and  C_4
REMARK    3  A    between atoms: C_4  and  C_5
REMARK    4  A    between atoms: C_5  and  C_6
REMARK    5  A    between atoms: N_15  and  C_16
REMARK                            x       y       z     vdW  Elec       q    Type
REMARK                         _______ _______ _______ _____ _____    ______ ____
ROOT
ATOM      1  O   UNL     1       5.497   7.499  17.074  0.00  0.00    +0.000 OA
ATOM      2  C   UNL     1       6.458   6.825  17.431  0.00  0.00    +0.000 C 
ATOM      3  N   UNL     1       6.394   5.562  17.999  0.00  0.00    +0.000 N 
ATOM      4  H   UNL     1       7.232   5.195  18.428  0.00  0.00    +0.000 HD
ENDROOT
BRANCH   3   5
ATOM      5  C   UNL     1       5.209   4.817  18.185  0.00  0.00    +0.000 A 
ATOM      6  C   UNL     1       4.727   3.879  17.281  0.00  0.00    +0.000 A 
ATOM      7  N   UNL     1       3.565   3.193  17.432  0.00  0.00    +0.000 NA
ATOM      8  C   UNL     1       2.827   3.438  18.520  0.00  0.00    +0.000 A 
ATOM      9  C   UNL     1       1.607   2.794  18.660  0.00  0.00    +0.000 A 
ATOM     10  C   UNL     1       0.786   3.012  19.767  0.00  0.00    +0.000 A 
ATOM     11  C   UNL     1       1.194   3.887  20.768  0.00  0.00    +0.000 A 
ATOM     12  C   UNL     1       2.416   4.551  20.650  0.00  0.00    +0.000 A 
ATOM     13  C   UNL     1       3.236   4.342  19.525  0.00  0.00    +0.000 A 
ATOM     14  C   UNL     1       4.458   5.019  19.344  0.00  0.00    +0.000 A 
ENDBRANCH   3   5
BRANCH   2  15
ATOM     15  C   UNL     1       7.866   7.378  17.328  0.00  0.00    +0.000 C 
BRANCH  15  16
ATOM     16  C   UNL     1       8.200   8.340  18.465  0.00  0.00    +0.000 C 
BRANCH  16  17
ATOM     17  C   UNL     1       8.482   9.764  17.978  0.00  0.00    +0.000 C 
BRANCH  17  18
ATOM     18  C   UNL     1       9.298  10.553  18.951  0.00  0.00    +0.000 A 
ATOM     19  C   UNL     1       9.201  10.498  20.328  0.00  0.00    +0.000 A 
ATOM     20  N   UNL     1      10.105  11.378  20.858  0.00  0.00    +0.000 N 
ATOM     21  C   UNL     1      10.792  12.019  19.855  0.00  0.00    +0.000 A 
ATOM     22  C   UNL     1      11.793  12.995  19.929  0.00  0.00    +0.000 A 
ATOM     23  C   UNL     1      12.321  13.476  18.728  0.00  0.00    +0.000 A 
ATOM     24  C   UNL     1      11.869  12.994  17.502  0.00  0.00    +0.000 A 
ATOM     25  C   UNL     1      10.868  12.015  17.445  0.00  0.00    +0.000 A 
ATOM     26  C   UNL     1      10.314  11.517  18.644  0.00  0.00    +0.000 A 
ATOM     27  H   UNL     1      10.249  11.543  21.845  0.00  0.00    +0.000 HD
ENDBRANCH  17  18
ENDBRANCH  16  17
ENDBRANCH  15  16
ENDBRANCH   2  15
TORSDOF 5
ENDMDL
MODEL 2
REMARK VINA RESULT:      -8.8      1.007      1.007
REMARK  Name = 
REMARK  5 active torsions:
REMARK  status: ('A' for Active; 'I' for Inactive)
REMARK    1  A    between atoms: C_2  and  C_3
REMARK    2  A    between atoms: C_3  and  C_4
REMARK    3  A    between atoms: C_4  and  C_5
REMARK    4  A    between atoms: C_5  and  C_6
REMARK    5  A    between atoms: N_15  and  C_16
REMARK                            x       y       z     vdW  Elec       q    Type
REMARK                         _______ _______ _______ _____ _____    ______ ____
ROOT
ATOM      1  O   UNL     1       7.532   5.933  18.873  0.00  0.00    +0.000 OA
ATOM      2  C   UNL     1       7.006   6.628  18.010  0.00  0.00    +0.000 C 
ATOM      3  N   UNL     1       5.753   6.419  17.455  0.00  0.00    +0.000 N 
ATOM      4  H   UNL     1       5.515   6.937  16.622  0.00  0.00    +0.000 HD
ENDROOT
BRANCH   3   5
ATOM      5  C   UNL     1       4.848   5.411  17.856  0.00  0.00    +0.000 A 
ATOM      6  C   UNL     1       4.838   4.121  17.340  0.00  0.00    +0.000 A 
ATOM      7  N   UNL     1       3.942   3.163  17.687  0.00  0.00    +0.000 NA
ATOM      8  C   UNL     1       2.997   3.478  18.579  0.00  0.00    +0.000 A 
ATOM      9  C   UNL     1       2.034   2.532  18.898  0.00  0.00    +0.000 A 
ATOM     10  C   UNL     1       1.018   2.800  19.815  0.00  0.00    +0.000 A 
ATOM     11  C   UNL     1       0.963   4.042  20.440  0.00  0.00    +0.000 A 
ATOM     12  C   UNL     1       1.917   5.013  20.135  0.00  0.00    +0.000 A 
ATOM     13  C   UNL     1       2.933   4.746  19.198  0.00  0.00    +0.000 A 
ATOM     14  C   UNL     1       3.893   5.709  18.829  0.00  0.00    +0.000 A 
ENDBRANCH   3   5
BRANCH   2  15
ATOM     15  C   UNL     1       7.754   7.800  17.406  0.00  0.00    +0.000 C 
BRANCH  15  16
ATOM     16  C   UNL     1       8.442   8.661  18.463  0.00  0.00    +0.000 C 
BRANCH  16  17
ATOM     17  C   UNL     1       8.751  10.077  17.972  0.00  0.00    +0.000 C 
BRANCH  17  18
ATOM     18  C   UNL     1       9.398  10.921  19.022  0.00  0.00    +0.000 A 
ATOM     19  C   UNL     1       9.480  10.625  20.369  0.00  0.00    +0.000 A 
ATOM     20  N   UNL     1      10.132  11.651  20.996  0.00  0.00    +0.000 N 
ATOM     21  C   UNL     1      10.474  12.624  20.088  0.00  0.00    +0.000 A 
ATOM     22  C   UNL     1      11.137  13.843  20.280  0.00  0.00    +0.000 A 
ATOM     23  C   UNL     1      11.354  14.648  19.158  0.00  0.00    +0.000 A 
ATOM     24  C   UNL     1      10.930  14.245  17.894  0.00  0.00    +0.000 A 
ATOM     25  C   UNL     1      10.271  13.021  17.718  0.00  0.00    +0.000 A 
ATOM     26  C   UNL     1      10.034  12.193  18.837  0.00  0.00    +0.000 A 
ATOM     27  H   UNL     1      10.333  11.697  21.986  0.00  0.00    +0.000 HD
ENDBRANCH  17  18
ENDBRANCH  16  17
ENDBRANCH  15  16
ENDBRANCH   2  15
TORSDOF 5
ENDMDL
MODEL 3
REMARK VINA RESULT:      -8.6      1.252      1.346
REMARK  Name = 
REMARK  5 active torsions:
REMARK  status: ('A' for Active; 'I' for Inactive)
REMARK    1  A    between atoms: C_2  and  C_3
REMARK    2  A    between atoms: C_3  and  C_4
REMARK    3  A    between atoms: C_4  and  C_5
REMARK    4  A    between atoms: C_5  and  C_6
REMARK    5  A    between atoms: N_15  and  C_16
REMARK                            x       y       z     vdW  Elec       q    Type
REMARK                         _______ _______ _______ _____ _____    ______ ____
ROOT
ATOM      1  O   UNL     1       7.564   5.331  16.742  0.00  0.00    +0.000 OA
ATOM      2  C   UNL     1       7.127   6.380  17.205  0.00  0.00    +0.000 C 
ATOM      3  N   UNL     1       5.986   6.508  17.982  0.00  0.00    +0.000 N 
ATOM      4  H   UNL     1       5.624   7.439  18.137  0.00  0.00    +0.000 HD
ENDROOT
BRANCH   3   5
ATOM      5  C   UNL     1       5.184   5.434  18.427  0.00  0.00    +0.000 A 
ATOM      6  C   UNL     1       5.654   4.375  19.193  0.00  0.00    +0.000 A 
ATOM      7  N   UNL     1       4.900   3.317  19.586  0.00  0.00    +0.000 NA
ATOM      8  C   UNL     1       3.618   3.283  19.205  0.00  0.00    +0.000 A 
ATOM      9  C   UNL     1       2.848   2.180  19.543  0.00  0.00    +0.000 A 
ATOM     10  C   UNL     1       1.508   2.079  19.170  0.00  0.00    +0.000 A 
ATOM     11  C   UNL     1       0.912   3.110  18.450  0.00  0.00    +0.000 A 
ATOM     12  C   UNL     1       1.665   4.230  18.094  0.00  0.00    +0.000 A 
ATOM     13  C   UNL     1       3.022   4.322  18.458  0.00  0.00    +0.000 A 
ATOM     14  C   UNL     1       3.830   5.415  18.087  0.00  0.00    +0.000 A 
ENDBRANCH   3   5
BRANCH   2  15
ATOM     15  C   UNL     1       7.809   7.699  16.899  0.00  0.00    +0.000 C 
BRANCH  15  16
ATOM     16  C   UNL     1       8.135   8.495  18.160  0.00  0.00    +0.000 C 
BRANCH  16  17
ATOM     17  C   UNL     1       8.313   9.992  17.892  0.00  0.00    +0.000 C 
BRANCH  17  18
ATOM     18  C   UNL     1       9.224  10.648  18.879  0.00  0.00    +0.000 A 
ATOM     19  C   UNL     1       9.220  10.451  20.246  0.00  0.00    +0.000 A 
ATOM     20  N   UNL     1      10.191  11.242  20.796  0.00  0.00    +0.000 N 
ATOM     21  C   UNL     1      10.831  11.963  19.817  0.00  0.00    +0.000 A 
ATOM     22  C   UNL     1      11.872  12.895  19.918  0.00  0.00    +0.000 A 
ATOM     23  C   UNL     1      12.333  13.484  18.738  0.00  0.00    +0.000 A 
ATOM     24  C   UNL     1      11.779  13.148  17.506  0.00  0.00    +0.000 A 
ATOM     25  C   UNL     1      10.740  12.211  17.421  0.00  0.00    +0.000 A 
ATOM     26  C   UNL     1      10.251  11.607  18.599  0.00  0.00    +0.000 A 
ATOM     27  H   UNL     1      10.410  11.297  21.782  0.00  0.00    +0.000 HD
ENDBRANCH  17  18
ENDBRANCH  16  17
ENDBRANCH  15  16
ENDBRANCH   2  15
TORSDOF 5
ENDMDL
MODEL 4
REMARK VINA RESULT:      -8.5      6.651      9.225
REMARK  Name = 
REMARK  5 active torsions:
REMARK  status: ('A' for Active; 'I' for Inactive)
REMARK    1  A    between atoms: C_2  and  C_3
REMARK    2  A    between atoms: C_3  and  C_4
REMARK    3  A    between atoms: C_4  and  C_5
REMARK    4  A    between atoms: C_5  and  C_6
REMARK    5  A    between atoms: N_15  and  C_16
REMARK                            x       y       z     vdW  Elec       q    Type
REMARK                         _______ _______ _______ _____ _____    ______ ____
ROOT
ATOM      1  O   UNL     1      -0.646   8.114  21.378  0.00  0.00    +0.000 OA
ATOM      2  C   UNL     1       0.438   8.564  21.734  0.00  0.00    +0.000 C 
ATOM      3  N   UNL     1       1.680   8.085  21.345  0.00  0.00    +0.000 N 
ATOM      4  H   UNL     1       2.490   8.409  21.854  0.00  0.00    +0.000 HD
ENDROOT
BRANCH   3   5
ATOM      5  C   UNL     1       1.892   7.047  20.411  0.00  0.00    +0.000 A 
ATOM      6  C   UNL     1       2.363   7.244  19.119  0.00  0.00    +0.000 A 
ATOM      7  N   UNL     1       2.525   6.256  18.203  0.00  0.00    +0.000 NA
ATOM      8  C   UNL     1       2.204   5.008  18.560  0.00  0.00    +0.000 A 
ATOM      9  C   UNL     1       2.302   3.995  17.617  0.00  0.00    +0.000 A 
ATOM     10  C   UNL     1       1.975   2.674  17.923  0.00  0.00    +0.000 A 
ATOM     11  C   UNL     1       1.548   2.348  19.206  0.00  0.00    +0.000 A 
ATOM     12  C   UNL     1       1.436   3.348  20.173  0.00  0.00    +0.000 A 
ATOM     13  C   UNL     1       1.752   4.684  19.857  0.00  0.00    +0.000 A 
ATOM     14  C   UNL     1       1.617   5.732  20.789  0.00  0.00    +0.000 A 
ENDBRANCH   3   5
BRANCH   2  15
ATOM     15  C   UNL     1       0.508   9.705  22.729  0.00  0.00    +0.000 C 
BRANCH  15  16
ATOM     16  C   UNL     1      -0.414  10.863  22.356  0.00  0.00    +0.000 C 
BRANCH  16  17
ATOM     17  C   UNL     1      -0.094  11.463  20.984  0.00  0.00    +0.000 C 
BRANCH  17  18
ATOM     18  C   UNL     1      -1.324  11.786  20.198  0.00  0.00    +0.000 A 
ATOM     19  C   UNL     1      -2.285  12.719  20.536  0.00  0.00    +0.000 A 
ATOM     20  N   UNL     1      -3.254  12.707  19.571  0.00  0.00    +0.000 N 
ATOM     21  C   UNL     1      -2.955  11.776  18.606  0.00  0.00    +0.000 A 
ATOM     22  C   UNL     1      -3.659  11.417  17.450  0.00  0.00    +0.000 A 
ATOM     23  C   UNL     1      -3.110  10.421  16.637  0.00  0.00    +0.000 A 
ATOM     24  C   UNL     1      -1.901   9.814  16.967  0.00  0.00    +0.000 A 
ATOM     25  C   UNL     1      -1.207  10.186  18.125  0.00  0.00    +0.000 A 
ATOM     26  C   UNL     1      -1.744  11.185  18.966  0.00  0.00    +0.000 A 
ATOM     27  H   UNL     1      -4.079  13.292  19.564  0.00  0.00    +0.000 HD
ENDBRANCH  17  18
ENDBRANCH  16  17
ENDBRANCH  15  16
ENDBRANCH   2  15
TORSDOF 5
ENDMDL
MODEL 5
REMARK VINA RESULT:      -8.5      5.509      7.619
REMARK  Name = 
REMARK  5 active torsions:
REMARK  status: ('A' for Active; 'I' for Inactive)
REMARK    1  A    between atoms: C_2  and  C_3
REMARK    2  A    between atoms: C_3  and  C_4
REMARK    3  A    between atoms: C_4  and  C_5
REMARK    4  A    between atoms: C_5  and  C_6
REMARK    5  A    between atoms: N_15  and  C_16
REMARK                            x       y       z     vdW  Elec       q    Type
REMARK                         _______ _______ _______ _____ _____    ______ ____
ROOT
ATOM      1  O   UNL     1       1.464   4.408  18.502  0.00  0.00    +0.000 OA
ATOM      2  C   UNL     1       2.596   4.580  18.942  0.00  0.00    +0.000 C 
ATOM      3  N   UNL     1       3.109   5.781  19.406  0.00  0.00    +0.000 N 
ATOM      4  H   UNL     1       4.106   5.839  19.558  0.00  0.00    +0.000 HD
ENDROOT
BRANCH   3   5
ATOM      5  C   UNL     1       2.380   6.986  19.515  0.00  0.00    +0.000 A 
ATOM      6  C   UNL     1       2.250   7.915  18.491  0.00  0.00    +0.000 A 
ATOM      7  N   UNL     1       1.590   9.095  18.604  0.00  0.00    +0.000 NA
ATOM      8  C   UNL     1       1.031   9.392  19.782  0.00  0.00    +0.000 A 
ATOM      9  C   UNL     1       0.407  10.622  19.937  0.00  0.00    +0.000 A 
ATOM     10  C   UNL     1      -0.188  10.996  21.142  0.00  0.00    +0.000 A 
ATOM     11  C   UNL     1      -0.171  10.119  22.221  0.00  0.00    +0.000 A 
ATOM     12  C   UNL     1       0.454   8.877  22.094  0.00  0.00    +0.000 A 
ATOM     13  C   UNL     1       1.067   8.508  20.882  0.00  0.00    +0.000 A 
ATOM     14  C   UNL     1       1.742   7.282  20.721  0.00  0.00    +0.000 A 
ENDBRANCH   3   5
BRANCH   2  15
ATOM     15  C   UNL     1       3.595   3.441  18.960  0.00  0.00    +0.000 C 
BRANCH  15  16
ATOM     16  C   UNL     1       4.837   3.740  18.123  0.00  0.00    +0.000 C 
BRANCH  16  17
ATOM     17  C   UNL     1       4.517   3.984  16.646  0.00  0.00    +0.000 C 
BRANCH  17  18
ATOM     18  C   UNL     1       5.683   4.533  15.889  0.00  0.00    +0.000 A 
ATOM     19  C   UNL     1       6.644   5.392  16.385  0.00  0.00    +0.000 A 
ATOM     20  N   UNL     1       7.529   5.673  15.380  0.00  0.00    +0.000 N 
ATOM     21  C   UNL     1       7.165   5.021  14.227  0.00  0.00    +0.000 A 
ATOM     22  C   UNL     1       7.765   5.023  12.961  0.00  0.00    +0.000 A 
ATOM     23  C   UNL     1       7.168   4.255  11.958  0.00  0.00    +0.000 A 
ATOM     24  C   UNL     1       6.019   3.511  12.214  0.00  0.00    +0.000 A 
ATOM     25  C   UNL     1       5.431   3.517  13.485  0.00  0.00    +0.000 A 
ATOM     26  C   UNL     1       6.012   4.290  14.515  0.00  0.00    +0.000 A 
ATOM     27  H   UNL     1       8.336   6.276  15.465  0.00  0.00    +0.000 HD
ENDBRANCH  17  18
ENDBRANCH  16  17
ENDBRANCH  15  16
ENDBRANCH   2  15
TORSDOF 5
ENDMDL
MODEL 6
REMARK VINA RESULT:      -8.4      1.445      2.030
REMARK  Name = 
REMARK  5 active torsions:
REMARK  status: ('A' for Active; 'I' for Inactive)
REMARK    1  A    between atoms: C_2  and  C_3
REMARK    2  A    between atoms: C_3  and  C_4
REMARK    3  A    between atoms: C_4  and  C_5
REMARK    4  A    between atoms: C_5  and  C_6
REMARK    5  A    between atoms: N_15  and  C_16
REMARK                            x       y       z     vdW  Elec       q    Type
REMARK                         _______ _______ _______ _____ _____    ______ ____
ROOT
ATOM      1  O   UNL     1       7.623   6.144  18.622  0.00  0.00    +0.000 OA
ATOM      2  C   UNL     1       7.107   6.856  17.766  0.00  0.00    +0.000 C 
ATOM      3  N   UNL     1       5.841   6.686  17.229  0.00  0.00    +0.000 N 
ATOM      4  H   UNL     1       5.607   7.213  16.399  0.00  0.00    +0.000 HD
ENDROOT
BRANCH   3   5
ATOM      5  C   UNL     1       4.910   5.707  17.640  0.00  0.00    +0.000 A 
ATOM      6  C   UNL     1       4.752   4.473  17.022  0.00  0.00    +0.000 A 
ATOM      7  N   UNL     1       3.829   3.546  17.383  0.00  0.00    +0.000 NA
ATOM      8  C   UNL     1       3.008   3.838  18.398  0.00  0.00    +0.000 A 
ATOM      9  C   UNL     1       2.017   2.930  18.740  0.00  0.00    +0.000 A 
ATOM     10  C   UNL     1       1.124   3.178  19.784  0.00  0.00    +0.000 A 
ATOM     11  C   UNL     1       1.226   4.357  20.514  0.00  0.00    +0.000 A 
ATOM     12  C   UNL     1       2.212   5.290  20.187  0.00  0.00    +0.000 A 
ATOM     13  C   UNL     1       3.102   5.045  19.125  0.00  0.00    +0.000 A 
ATOM     14  C   UNL     1       4.087   5.974  18.735  0.00  0.00    +0.000 A 
ENDBRANCH   3   5
BRANCH   2  15
ATOM     15  C   UNL     1       7.882   8.006  17.154  0.00  0.00    +0.000 C 
BRANCH  15  16
ATOM     16  C   UNL     1       7.836   9.265  18.016  0.00  0.00    +0.000 C 
BRANCH  16  17
ATOM     17  C   UNL     1       9.052   9.402  18.937  0.00  0.00    +0.000 C 
BRANCH  17  18
ATOM     18  C   UNL     1       9.638  10.777  18.913  0.00  0.00    +0.000 A 
ATOM     19  C   UNL     1      10.321  11.353  17.858  0.00  0.00    +0.000 A 
ATOM     20  N   UNL     1      10.709  12.609  18.233  0.00  0.00    +0.000 N 
ATOM     21  C   UNL     1      10.303  12.871  19.520  0.00  0.00    +0.000 A 
ATOM     22  C   UNL     1      10.486  14.014  20.308  0.00  0.00    +0.000 A 
ATOM     23  C   UNL     1       9.957  14.002  21.602  0.00  0.00    +0.000 A 
ATOM     24  C   UNL     1       9.267  12.892  22.083  0.00  0.00    +0.000 A 
ATOM     25  C   UNL     1       9.090  11.758  21.281  0.00  0.00    +0.000 A 
ATOM     26  C   UNL     1       9.620  11.742  19.973  0.00  0.00    +0.000 A 
ATOM     27  H   UNL     1      11.227  13.258  17.654  0.00  0.00    +0.000 HD
ENDBRANCH  17  18
ENDBRANCH  16  17
ENDBRANCH  15  16
ENDBRANCH   2  15
TORSDOF 5
ENDMDL
MODEL 7
REMARK VINA RESULT:      -8.3      1.731      2.537
REMARK  Name = 
REMARK  5 active torsions:
REMARK  status: ('A' for Active; 'I' for Inactive)
REMARK    1  A    between atoms: C_2  and  C_3
REMARK    2  A    between atoms: C_3  and  C_4
REMARK    3  A    between atoms: C_4  and  C_5
REMARK    4  A    between atoms: C_5  and  C_6
REMARK    5  A    between atoms: N_15  and  C_16
REMARK                            x       y       z     vdW  Elec       q    Type
REMARK                         _______ _______ _______ _____ _____    ______ ____
ROOT
ATOM      1  O   UNL     1       7.290   6.002  18.651  0.00  0.00    +0.000 OA
ATOM      2  C   UNL     1       7.001   6.813  17.778  0.00  0.00    +0.000 C 
ATOM      3  N   UNL     1       5.770   6.922  17.150  0.00  0.00    +0.000 N 
ATOM      4  H   UNL     1       5.714   7.492  16.318  0.00  0.00    +0.000 HD
ENDROOT
BRANCH   3   5
ATOM      5  C   UNL     1       4.625   6.162  17.475  0.00  0.00    +0.000 A 
ATOM      6  C   UNL     1       3.426   6.707  17.917  0.00  0.00    +0.000 A 
ATOM      7  N   UNL     1       2.338   5.979  18.274  0.00  0.00    +0.000 NA
ATOM      8  C   UNL     1       2.422   4.647  18.205  0.00  0.00    +0.000 A 
ATOM      9  C   UNL     1       1.342   3.884  18.627  0.00  0.00    +0.000 A 
ATOM     10  C   UNL     1       1.369   2.490  18.588  0.00  0.00    +0.000 A 
ATOM     11  C   UNL     1       2.497   1.835  18.107  0.00  0.00    +0.000 A 
ATOM     12  C   UNL     1       3.599   2.577  17.680  0.00  0.00    +0.000 A 
ATOM     13  C   UNL     1       3.576   3.984  17.735  0.00  0.00    +0.000 A 
ATOM     14  C   UNL     1       4.679   4.773  17.352  0.00  0.00    +0.000 A 
ENDBRANCH   3   5
BRANCH   2  15
ATOM     15  C   UNL     1       8.045   7.774  17.246  0.00  0.00    +0.000 C 
BRANCH  15  16
ATOM     16  C   UNL     1       7.941   9.160  17.879  0.00  0.00    +0.000 C 
BRANCH  16  17
ATOM     17  C   UNL     1       8.961   9.383  18.999  0.00  0.00    +0.000 C 
BRANCH  17  18
ATOM     18  C   UNL     1       9.554  10.754  18.971  0.00  0.00    +0.000 A 
ATOM     19  C   UNL     1      10.224  11.331  17.909  0.00  0.00    +0.000 A 
ATOM     20  N   UNL     1      10.623  12.585  18.283  0.00  0.00    +0.000 N 
ATOM     21  C   UNL     1      10.236  12.844  19.576  0.00  0.00    +0.000 A 
ATOM     22  C   UNL     1      10.435  13.983  20.365  0.00  0.00    +0.000 A 
ATOM     23  C   UNL     1       9.924  13.969  21.666  0.00  0.00    +0.000 A 
ATOM     24  C   UNL     1       9.236  12.861  22.153  0.00  0.00    +0.000 A 
ATOM     25  C   UNL     1       9.042  11.730  21.350  0.00  0.00    +0.000 A 
ATOM     26  C   UNL     1       9.555  11.716  20.034  0.00  0.00    +0.000 A 
ATOM     27  H   UNL     1      11.135  13.233  17.699  0.00  0.00    +0.000 HD
ENDBRANCH  17  18
ENDBRANCH  16  17
ENDBRANCH  15  16
ENDBRANCH   2  15
TORSDOF 5
ENDMDL
MODEL 8
REMARK VINA RESULT:      -8.2      1.487      1.656
REMARK  Name = 
REMARK  5 active torsions:
REMARK  status: ('A' for Active; 'I' for Inactive)
REMARK    1  A    between atoms: C_2  and  C_3
REMARK    2  A    between atoms: C_3  and  C_4
REMARK    3  A    between atoms: C_4  and  C_5
REMARK    4  A    between atoms: C_5  and  C_6
REMARK    5  A    between atoms: N_15  and  C_16
REMARK                            x       y       z     vdW  Elec       q    Type
REMARK                         _______ _______ _______ _____ _____    ______ ____
ROOT
ATOM      1  O   UNL     1       8.155   6.633  18.873  0.00  0.00    +0.000 OA
ATOM      2  C   UNL     1       7.532   7.221  17.994  0.00  0.00    +0.000 C 
ATOM      3  N   UNL     1       6.285   6.859  17.507  0.00  0.00    +0.000 N 
ATOM      4  H   UNL     1       5.966   7.301  16.657  0.00  0.00    +0.000 HD
ENDROOT
BRANCH   3   5
ATOM      5  C   UNL     1       5.499   5.796  18.003  0.00  0.00    +0.000 A 
ATOM      6  C   UNL     1       5.996   4.750  18.770  0.00  0.00    +0.000 A 
ATOM      7  N   UNL     1       5.255   3.702  19.211  0.00  0.00    +0.000 NA
ATOM      8  C   UNL     1       3.959   3.665  18.881  0.00  0.00    +0.000 A 
ATOM      9  C   UNL     1       3.201   2.569  19.268  0.00  0.00    +0.000 A 
ATOM     10  C   UNL     1       1.846   2.466  18.949  0.00  0.00    +0.000 A 
ATOM     11  C   UNL     1       1.226   3.485  18.234  0.00  0.00    +0.000 A 
ATOM     12  C   UNL     1       1.967   4.596  17.829  0.00  0.00    +0.000 A 
ATOM     13  C   UNL     1       3.337   4.691  18.138  0.00  0.00    +0.000 A 
ATOM     14  C   UNL     1       4.133   5.774  17.716  0.00  0.00    +0.000 A 
ENDBRANCH   3   5
BRANCH   2  15
ATOM     15  C   UNL     1       8.137   8.420  17.293  0.00  0.00    +0.000 C 
BRANCH  15  16
ATOM     16  C   UNL     1       8.152   9.666  18.175  0.00  0.00    +0.000 C 
BRANCH  16  17
ATOM     17  C   UNL     1       9.283   9.655  19.207  0.00  0.00    +0.000 C 
BRANCH  17  18
ATOM     18  C   UNL     1       9.690  11.030  19.629  0.00  0.00    +0.000 A 
ATOM     19  C   UNL     1       9.358  11.648  20.819  0.00  0.00    +0.000 A 
ATOM     20  N   UNL     1       9.907  12.901  20.820  0.00  0.00    +0.000 N 
ATOM     21  C   UNL     1      10.590  13.124  19.648  0.00  0.00    +0.000 A 
ATOM     22  C   UNL     1      11.292  14.255  19.215  0.00  0.00    +0.000 A 
ATOM     23  C   UNL     1      11.898  14.202  17.957  0.00  0.00    +0.000 A 
ATOM     24  C   UNL     1      11.809  13.058  17.168  0.00  0.00    +0.000 A 
ATOM     25  C   UNL     1      11.106  11.933  17.616  0.00  0.00    +0.000 A 
ATOM     26  C   UNL     1      10.478  11.964  18.880  0.00  0.00    +0.000 A 
ATOM     27  H   UNL     1       9.824  13.574  21.570  0.00  0.00    +0.000 HD
ENDBRANCH  17  18
ENDBRANCH  16  17
ENDBRANCH  15  16
ENDBRANCH   2  15
TORSDOF 5
ENDMDL
MODEL 9
REMARK VINA RESULT:      -8.2      1.768      2.171
REMARK  Name = 
REMARK  5 active torsions:
REMARK  status: ('A' for Active; 'I' for Inactive)
REMARK    1  A    between atoms: C_2  and  C_3
REMARK    2  A    between atoms: C_3  and  C_4
REMARK    3  A    between atoms: C_4  and  C_5
REMARK    4  A    between atoms: C_5  and  C_6
REMARK    5  A    between atoms: N_15  and  C_16
REMARK                            x       y       z     vdW  Elec       q    Type
REMARK                         _______ _______ _______ _____ _____    ______ ____
ROOT
ATOM      1  O   UNL     1       8.061   6.838  18.666  0.00  0.00    +0.000 OA
ATOM      2  C   UNL     1       7.559   7.618  17.863  0.00  0.00    +0.000 C 
ATOM      3  N   UNL     1       6.431   7.375  17.095  0.00  0.00    +0.000 N 
ATOM      4  H   UNL     1       6.232   8.010  16.336  0.00  0.00    +0.000 HD
ENDROOT
BRANCH   3   5
ATOM      5  C   UNL     1       5.632   6.212  17.174  0.00  0.00    +0.000 A 
ATOM      6  C   UNL     1       5.980   4.988  16.617  0.00  0.00    +0.000 A 
ATOM      7  N   UNL     1       5.197   3.880  16.650  0.00  0.00    +0.000 NA
ATOM      8  C   UNL     1       4.006   3.969  17.251  0.00  0.00    +0.000 A 
ATOM      9  C   UNL     1       3.165   2.866  17.239  0.00  0.00    +0.000 A 
ATOM     10  C   UNL     1       1.907   2.896  17.841  0.00  0.00    +0.000 A 
ATOM     11  C   UNL     1       1.476   4.052  18.483  0.00  0.00    +0.000 A 
ATOM     12  C   UNL     1       2.301   5.178  18.507  0.00  0.00    +0.000 A 
ATOM     13  C   UNL     1       3.564   5.150  17.885  0.00  0.00    +0.000 A 
ATOM     14  C   UNL     1       4.413   6.274  17.850  0.00  0.00    +0.000 A 
ENDBRANCH   3   5
BRANCH   2  15
ATOM     15  C   UNL     1       8.205   8.962  17.590  0.00  0.00    +0.000 C 
BRANCH  15  16
ATOM     16  C   UNL     1       8.939   9.515  18.809  0.00  0.00    +0.000 C 
BRANCH  16  17
ATOM     17  C   UNL     1       9.504  10.919  18.580  0.00  0.00    +0.000 C 
BRANCH  17  18
ATOM     18  C   UNL     1       9.599  11.714  19.842  0.00  0.00    +0.000 A 
ATOM     19  C   UNL     1       9.298  11.263  21.113  0.00  0.00    +0.000 A 
ATOM     20  N   UNL     1       9.499  12.291  21.992  0.00  0.00    +0.000 N 
ATOM     21  C   UNL     1       9.920  13.416  21.324  0.00  0.00    +0.000 A 
ATOM     22  C   UNL     1      10.234  14.690  21.813  0.00  0.00    +0.000 A 
ATOM     23  C   UNL     1      10.641  15.657  20.890  0.00  0.00    +0.000 A 
ATOM     24  C   UNL     1      10.735  15.358  19.533  0.00  0.00    +0.000 A 
ATOM     25  C   UNL     1      10.420  14.077  19.060  0.00  0.00    +0.000 A 
ATOM     26  C   UNL     1      10.000  13.084  19.972  0.00  0.00    +0.000 A 
ATOM     27  H   UNL     1       9.356  12.240  22.993  0.00  0.00    +0.000 HD
ENDBRANCH  17  18
ENDBRANCH  16  17
ENDBRANCH  15  16
ENDBRANCH   2  15
TORSDOF 5
ENDMDL
