MODEL 1
REMARK VINA RESULT:      -8.2      0.000      0.000
REMARK  Name = 
REMARK  8 active torsions:
REMARK  status: ('A' for Active; 'I' for Inactive)
REMARK    1  A    between atoms: C_1  and  C_2
REMARK    2  A    between atoms: C_4  and  C_5
REMARK    3  A    between atoms: C_7  and  C_8
REMARK    4  A    between atoms: C_11  and  S_12
REMARK    5  A    between atoms: S_12  and  C_13
REMARK    6  A    between atoms: C_13  and  C_14
REMARK    7  A    between atoms: N_16  and  C_17
REMARK    8  A    between atoms: N_21  and  C_22
REMARK                            x       y       z     vdW  Elec       q    Type
REMARK                         _______ _______ _______ _____ _____    ______ ____
ROOT
ATOM      1  C   UNL     1       2.572   3.758  18.364  0.00  0.00    +0.000 C 
ENDROOT
BRANCH   1   2
ATOM      2  C   UNL     1       3.884   3.658  17.601  0.00  0.00    +0.000 C 
ATOM      3  O   UNL     1       4.766   2.862  17.842  0.00  0.00    +0.000 OA
ATOM      4  N   UNL     1       4.050   4.658  16.571  0.00  0.00    +0.000 N 
ATOM      5  H   UNL     1       3.332   5.356  16.460  0.00  0.00    +0.000 HD
BRANCH   4   6
ATOM      6  C   UNL     1       5.209   4.766  15.809  0.00  0.00    +0.000 A 
ATOM      7  C   UNL     1       5.464   4.226  14.565  0.00  0.00    +0.000 A 
ATOM      8  C   UNL     1       6.763   4.652  14.235  0.00  0.00    +0.000 A 
ATOM      9  N   UNL     1       7.304   5.406  15.186  0.00  0.00    +0.000 NA
ATOM     10  N   UNL     1       6.356   5.454  16.147  0.00  0.00    +0.000 N 
BRANCH  10  11
ATOM     11  C   UNL     1       6.676   6.091  17.410  0.00  0.00    +0.000 C 
ATOM     12  C   UNL     1       7.543   7.342  17.266  0.00  0.00    +0.000 C 
ATOM     13  C   UNL     1       8.276   7.482  18.596  0.00  0.00    +0.000 C 
ATOM     14  C   UNL     1       8.151   6.145  19.322  0.00  0.00    +0.000 C 
ATOM     15  C   UNL     1       7.452   5.187  18.368  0.00  0.00    +0.000 C 
ENDBRANCH  10  11
ENDBRANCH   4   6
ENDBRANCH   1   2
BRANCH   1  16
ATOM     16  S   UNL     1       2.831   4.606  19.965  0.00  0.00    +0.000 S 
BRANCH  16  20
ATOM     17  C   UNL     1       1.656   8.248  19.632  0.00  0.00    +0.000 A 
ATOM     18  N   UNL     1       2.359   8.130  18.524  0.00  0.00    +0.000 NA
ATOM     19  N   UNL     1       2.873   6.859  18.509  0.00  0.00    +0.000 NA
ATOM     20  C   UNL     1       2.450   6.266  19.607  0.00  0.00    +0.000 A 
ATOM     21  O   UNL     1       1.677   7.096  20.388  0.00  0.00    +0.000 OA
BRANCH  17  28
ATOM     22  C   UNL     1      -1.033  10.619  23.133  0.00  0.00    +0.000 C 
ATOM     23  C   UNL     1      -0.394  10.592  21.776  0.00  0.00    +0.000 A 
ATOM     24  C   UNL     1      -0.404  11.732  20.960  0.00  0.00    +0.000 A 
ATOM     25  C   UNL     1       0.225  11.725  19.712  0.00  0.00    +0.000 A 
ATOM     26  C   UNL     1       0.228  12.944  18.837  0.00  0.00    +0.000 C 
ATOM     27  C   UNL     1       0.878  10.560  19.291  0.00  0.00    +0.000 A 
ATOM     28  C   UNL     1       0.903   9.405  20.092  0.00  0.00    +0.000 A 
ATOM     29  C   UNL     1       0.251   9.428  21.331  0.00  0.00    +0.000 A 
ENDBRANCH  17  28
ENDBRANCH  16  20
ENDBRANCH   1  16
TORSDOF 6
ENDMDL
MODEL 2
REMARK VINA RESULT:      -8.1      2.340      3.831
REMARK  Name = 
REMARK  8 active torsions:
REMARK  status: ('A' for Active; 'I' for Inactive)
REMARK    1  A    between atoms: C_1  and  C_2
REMARK    2  A    between atoms: C_4  and  C_5
REMARK    3  A    between atoms: C_7  and  C_8
REMARK    4  A    between atoms: C_11  and  S_12
REMARK    5  A    between atoms: S_12  and  C_13
REMARK    6  A    between atoms: C_13  and  C_14
REMARK    7  A    between atoms: N_16  and  C_17
REMARK    8  A    between atoms: N_21  and  C_22
REMARK                            x       y       z     vdW  Elec       q    Type
REMARK                         _______ _______ _______ _____ _____    ______ ____
ROOT
ATOM      1  C   UNL     1       3.814   1.659  18.583  0.00  0.00    +0.000 C 
ENDROOT
BRANCH   1   2
ATOM      2  C   UNL     1       4.505   2.991  18.332  0.00  0.00    +0.000 C 
ATOM      3  O   UNL     1       5.260   3.535  19.109  0.00  0.00    +0.000 OA
ATOM      4  N   UNL     1       4.136   3.626  17.089  0.00  0.00    +0.000 N 
ATOM      5  H   UNL     1       3.439   3.183  16.512  0.00  0.00    +0.000 HD
BRANCH   4   6
ATOM      6  C   UNL     1       4.616   4.878  16.713  0.00  0.00    +0.000 A 
ATOM      7  C   UNL     1       4.330   6.103  17.279  0.00  0.00    +0.000 A 
ATOM      8  C   UNL     1       5.085   7.035  16.545  0.00  0.00    +0.000 A 
ATOM      9  N   UNL     1       5.801   6.460  15.584  0.00  0.00    +0.000 NA
ATOM     10  N   UNL     1       5.493   5.148  15.685  0.00  0.00    +0.000 N 
BRANCH  10  11
ATOM     11  C   UNL     1       6.002   4.236  14.680  0.00  0.00    +0.000 C 
ATOM     12  C   UNL     1       7.198   4.783  13.899  0.00  0.00    +0.000 C 
ATOM     13  C   UNL     1       7.178   4.050  12.562  0.00  0.00    +0.000 C 
ATOM     14  C   UNL     1       5.799   3.412  12.418  0.00  0.00    +0.000 C 
ATOM     15  C   UNL     1       4.972   3.871  13.610  0.00  0.00    +0.000 C 
ENDBRANCH  10  11
ENDBRANCH   4   6
ENDBRANCH   1   2
BRANCH   1  16
ATOM     16  S   UNL     1       2.030   1.918  18.900  0.00  0.00    +0.000 S 
BRANCH  16  20
ATOM     17  C   UNL     1       1.846   5.437  20.426  0.00  0.00    +0.000 A 
ATOM     18  N   UNL     1       2.226   4.748  21.483  0.00  0.00    +0.000 NA
ATOM     19  N   UNL     1       2.318   3.437  21.093  0.00  0.00    +0.000 NA
ATOM     20  C   UNL     1       1.995   3.397  19.816  0.00  0.00    +0.000 A 
ATOM     21  O   UNL     1       1.664   4.638  19.319  0.00  0.00    +0.000 OA
BRANCH  17  28
ATOM     22  C   UNL     1       1.950   9.725  17.832  0.00  0.00    +0.000 C 
ATOM     23  C   UNL     1       1.648   8.970  19.094  0.00  0.00    +0.000 A 
ATOM     24  C   UNL     1       1.031   9.611  20.178  0.00  0.00    +0.000 A 
ATOM     25  C   UNL     1       0.712   8.905  21.341  0.00  0.00    +0.000 A 
ATOM     26  C   UNL     1       0.041   9.580  22.501  0.00  0.00    +0.000 C 
ATOM     27  C   UNL     1       1.008   7.538  21.404  0.00  0.00    +0.000 A 
ATOM     28  C   UNL     1       1.625   6.873  20.329  0.00  0.00    +0.000 A 
ATOM     29  C   UNL     1       1.954   7.604  19.181  0.00  0.00    +0.000 A 
ENDBRANCH  17  28
ENDBRANCH  16  20
ENDBRANCH   1  16
TORSDOF 6
ENDMDL
MODEL 3
REMARK VINA RESULT:      -8.1      2.180      7.548
REMARK  Name = 
REMARK  8 active torsions:
REMARK  status: ('A' for Active; 'I' for Inactive)
REMARK    1  A    between atoms: C_1  and  C_2
REMARK    2  A    between atoms: C_4  and  C_5
REMARK    3  A    between atoms: C_7  and  C_8
REMARK    4  A    between atoms: C_11  and  S_12
REMARK    5  A    between atoms: S_12  and  C_13
REMARK    6  A    between atoms: C_13  and  C_14
REMARK    7  A    between atoms: N_16  and  C_17
REMARK    8  A    between atoms: N_21  and  C_22
REMARK                            x       y       z     vdW  Elec       q    Type
REMARK                         _______ _______ _______ _____ _____    ______ ____
ROOT
ATOM      1  C   UNL     1       1.354   3.300  21.426  0.00  0.00    +0.000 C 
ENDROOT
BRANCH   1   2
ATOM      2  C   UNL     1       1.357   4.364  20.340  0.00  0.00    +0.000 C 
ATOM      3  O   UNL     1       0.878   4.225  19.234  0.00  0.00    +0.000 OA
ATOM      4  N   UNL     1       2.056   5.576  20.697  0.00  0.00    +0.000 N 
ATOM      5  H   UNL     1       2.516   5.619  21.592  0.00  0.00    +0.000 HD
BRANCH   4   6
ATOM      6  C   UNL     1       2.220   6.638  19.813  0.00  0.00    +0.000 A 
ATOM      7  C   UNL     1       3.049   6.708  18.712  0.00  0.00    +0.000 A 
ATOM      8  C   UNL     1       2.819   7.979  18.155  0.00  0.00    +0.000 A 
ATOM      9  N   UNL     1       1.915   8.673  18.839  0.00  0.00    +0.000 NA
ATOM     10  N   UNL     1       1.572   7.854  19.857  0.00  0.00    +0.000 N 
BRANCH  10  11
ATOM     11  C   UNL     1       0.693   8.361  20.892  0.00  0.00    +0.000 C 
ATOM     12  C   UNL     1      -0.122   9.583  20.465  0.00  0.00    +0.000 C 
ATOM     13  C   UNL     1      -0.450  10.322  21.758  0.00  0.00    +0.000 C 
ATOM     14  C   UNL     1       0.479   9.776  22.839  0.00  0.00    +0.000 C 
ATOM     15  C   UNL     1       1.432   8.808  22.154  0.00  0.00    +0.000 C 
ENDBRANCH  10  11
ENDBRANCH   4   6
ENDBRANCH   1   2
BRANCH   1  16
ATOM     16  S   UNL     1       2.962   2.426  21.467  0.00  0.00    +0.000 S 
BRANCH  16  20
ATOM     17  C   UNL     1       4.504   3.188  18.033  0.00  0.00    +0.000 A 
ATOM     18  N   UNL     1       3.710   2.187  17.712  0.00  0.00    +0.000 NA
ATOM     19  N   UNL     1       3.090   1.782  18.865  0.00  0.00    +0.000 NA
ATOM     20  C   UNL     1       3.534   2.563  19.829  0.00  0.00    +0.000 A 
ATOM     21  O   UNL     1       4.457   3.482  19.378  0.00  0.00    +0.000 OA
BRANCH  17  28
ATOM     22  C   UNL     1       6.392   4.165  13.494  0.00  0.00    +0.000 C 
ATOM     23  C   UNL     1       6.286   4.478  14.958  0.00  0.00    +0.000 A 
ATOM     24  C   UNL     1       6.921   5.608  15.493  0.00  0.00    +0.000 A 
ATOM     25  C   UNL     1       6.794   5.926  16.848  0.00  0.00    +0.000 A 
ATOM     26  C   UNL     1       7.462   7.139  17.427  0.00  0.00    +0.000 C 
ATOM     27  C   UNL     1       6.009   5.103  17.665  0.00  0.00    +0.000 A 
ATOM     28  C   UNL     1       5.361   3.966  17.150  0.00  0.00    +0.000 A 
ATOM     29  C   UNL     1       5.518   3.654  15.794  0.00  0.00    +0.000 A 
ENDBRANCH  17  28
ENDBRANCH  16  20
ENDBRANCH   1  16
TORSDOF 6
ENDMDL
MODEL 4
REMARK VINA RESULT:      -8.0      1.562      1.964
REMARK  Name = 
REMARK  8 active torsions:
REMARK  status: ('A' for Active; 'I' for Inactive)
REMARK    1  A    between atoms: C_1  and  C_2
REMARK    2  A    between atoms: C_4  and  C_5
REMARK    3  A    between atoms: C_7  and  C_8
REMARK    4  A    between atoms: C_11  and  S_12
REMARK    5  A    between atoms: S_12  and  C_13
REMARK    6  A    between atoms: C_13  and  C_14
REMARK    7  A    between atoms: N_16  and  C_17
REMARK    8  A    between atoms: N_21  and  C_22
REMARK                            x       y       z     vdW  Elec       q    Type
REMARK                         _______ _______ _______ _____ _____    ______ ____
ROOT
ATOM      1  C   UNL     1       2.318   4.620  18.493  0.00  0.00    +0.000 C 
ENDROOT
BRANCH   1   2
ATOM      2  C   UNL     1       3.595   4.263  17.749  0.00  0.00    +0.000 C 
ATOM      3  O   UNL     1       4.268   3.277  17.963  0.00  0.00    +0.000 OA
ATOM      4  N   UNL     1       4.012   5.247  16.777  0.00  0.00    +0.000 N 
ATOM      5  H   UNL     1       3.474   6.095  16.691  0.00  0.00    +0.000 HD
BRANCH   4   6
ATOM      6  C   UNL     1       5.188   5.127  16.043  0.00  0.00    +0.000 A 
ATOM      7  C   UNL     1       5.396   4.417  14.878  0.00  0.00    +0.000 A 
ATOM      8  C   UNL     1       6.741   4.645  14.540  0.00  0.00    +0.000 A 
ATOM      9  N   UNL     1       7.354   5.438  15.413  0.00  0.00    +0.000 NA
ATOM     10  N   UNL     1       6.403   5.710  16.334  0.00  0.00    +0.000 N 
BRANCH  10  11
ATOM     11  C   UNL     1       6.778   6.451  17.523  0.00  0.00    +0.000 C 
ATOM     12  C   UNL     1       7.578   7.721  17.231  0.00  0.00    +0.000 C 
ATOM     13  C   UNL     1       8.391   7.986  18.494  0.00  0.00    +0.000 C 
ATOM     14  C   UNL     1       8.372   6.703  19.320  0.00  0.00    +0.000 C 
ATOM     15  C   UNL     1       7.655   5.651  18.487  0.00  0.00    +0.000 C 
ENDBRANCH  10  11
ENDBRANCH   4   6
ENDBRANCH   1   2
BRANCH   1  16
ATOM     16  S   UNL     1       2.667   5.852  19.801  0.00  0.00    +0.000 S 
BRANCH  16  20
ATOM     17  C   UNL     1       1.536   9.284  18.500  0.00  0.00    +0.000 A 
ATOM     18  N   UNL     1       2.348   8.925  17.527  0.00  0.00    +0.000 NA
ATOM     19  N   UNL     1       2.859   7.698  17.864  0.00  0.00    +0.000 NA
ATOM     20  C   UNL     1       2.326   7.371  19.024  0.00  0.00    +0.000 A 
ATOM     21  O   UNL     1       1.478   8.344  19.506  0.00  0.00    +0.000 OA
BRANCH  17  28
ATOM     22  C   UNL     1       1.171  14.256  19.017  0.00  0.00    +0.000 C 
ATOM     23  C   UNL     1       0.528  12.913  18.830  0.00  0.00    +0.000 A 
ATOM     24  C   UNL     1      -0.855  12.807  18.623  0.00  0.00    +0.000 A 
ATOM     25  C   UNL     1      -1.454  11.563  18.409  0.00  0.00    +0.000 A 
ATOM     26  C   UNL     1      -2.931  11.442  18.176  0.00  0.00    +0.000 C 
ATOM     27  C   UNL     1      -0.648  10.419  18.392  0.00  0.00    +0.000 A 
ATOM     28  C   UNL     1       0.741  10.500  18.596  0.00  0.00    +0.000 A 
ATOM     29  C   UNL     1       1.319  11.754  18.828  0.00  0.00    +0.000 A 
ENDBRANCH  17  28
ENDBRANCH  16  20
ENDBRANCH   1  16
TORSDOF 6
ENDMDL
MODEL 5
REMARK VINA RESULT:      -7.9      3.544      7.266
REMARK  Name = 
REMARK  8 active torsions:
REMARK  status: ('A' for Active; 'I' for Inactive)
REMARK    1  A    between atoms: C_1  and  C_2
REMARK    2  A    between atoms: C_4  and  C_5
REMARK    3  A    between atoms: C_7  and  C_8
REMARK    4  A    between atoms: C_11  and  S_12
REMARK    5  A    between atoms: S_12  and  C_13
REMARK    6  A    between atoms: C_13  and  C_14
REMARK    7  A    between atoms: N_16  and  C_17
REMARK    8  A    between atoms: N_21  and  C_22
REMARK                            x       y       z     vdW  Elec       q    Type
REMARK                         _______ _______ _______ _____ _____    ______ ____
ROOT
ATOM      1  C   UNL     1       6.979   4.686  17.186  0.00  0.00    +0.000 C 
ENDROOT
BRANCH   1   2
ATOM      2  C   UNL     1       5.517   5.092  17.088  0.00  0.00    +0.000 C 
ATOM      3  O   UNL     1       4.780   4.808  16.167  0.00  0.00    +0.000 OA
ATOM      4  N   UNL     1       5.059   5.931  18.170  0.00  0.00    +0.000 N 
ATOM      5  H   UNL     1       5.725   6.218  18.870  0.00  0.00    +0.000 HD
BRANCH   4   6
ATOM      6  C   UNL     1       3.770   6.455  18.223  0.00  0.00    +0.000 A 
ATOM      7  C   UNL     1       3.322   7.663  17.728  0.00  0.00    +0.000 A 
ATOM      8  C   UNL     1       1.947   7.695  18.020  0.00  0.00    +0.000 A 
ATOM      9  N   UNL     1       1.539   6.597  18.650  0.00  0.00    +0.000 NA
ATOM     10  N   UNL     1       2.662   5.858  18.784  0.00  0.00    +0.000 N 
BRANCH  10  11
ATOM     11  C   UNL     1       2.602   4.638  19.564  0.00  0.00    +0.000 C 
ATOM     12  C   UNL     1       2.430   3.374  18.720  0.00  0.00    +0.000 C 
ATOM     13  C   UNL     1       1.770   2.357  19.644  0.00  0.00    +0.000 C 
ATOM     14  C   UNL     1       1.213   3.127  20.839  0.00  0.00    +0.000 C 
ATOM     15  C   UNL     1       1.438   4.605  20.556  0.00  0.00    +0.000 C 
ENDBRANCH  10  11
ENDBRANCH   4   6
ENDBRANCH   1   2
BRANCH   1  16
ATOM     16  S   UNL     1       7.731   5.377  18.706  0.00  0.00    +0.000 S 
BRANCH  16  20
ATOM     17  C   UNL     1       8.572   9.103  18.307  0.00  0.00    +0.000 A 
ATOM     18  N   UNL     1       7.788   8.931  17.262  0.00  0.00    +0.000 NA
ATOM     19  N   UNL     1       7.413   7.612  17.257  0.00  0.00    +0.000 NA
ATOM     20  C   UNL     1       7.984   7.051  18.303  0.00  0.00    +0.000 A 
ATOM     21  O   UNL     1       8.758   7.938  19.019  0.00  0.00    +0.000 OA
BRANCH  17  28
ATOM     22  C   UNL     1       9.618  12.458  21.881  0.00  0.00    +0.000 C 
ATOM     23  C   UNL     1       9.750  11.975  20.466  0.00  0.00    +0.000 A 
ATOM     24  C   UNL     1      10.594  12.636  19.562  0.00  0.00    +0.000 A 
ATOM     25  C   UNL     1      10.751  12.168  18.255  0.00  0.00    +0.000 A 
ATOM     26  C   UNL     1      11.660  12.864  17.285  0.00  0.00    +0.000 C 
ATOM     27  C   UNL     1      10.060  11.015  17.862  0.00  0.00    +0.000 A 
ATOM     28  C   UNL     1       9.210  10.334  18.751  0.00  0.00    +0.000 A 
ATOM     29  C   UNL     1       9.052  10.831  20.050  0.00  0.00    +0.000 A 
ENDBRANCH  17  28
ENDBRANCH  16  20
ENDBRANCH   1  16
TORSDOF 6
ENDMDL
MODEL 6
REMARK VINA RESULT:      -7.8      3.353      7.141
REMARK  Name = 
REMARK  8 active torsions:
REMARK  status: ('A' for Active; 'I' for Inactive)
REMARK    1  A    between atoms: C_1  and  C_2
REMARK    2  A    between atoms: C_4  and  C_5
REMARK    3  A    between atoms: C_7  and  C_8
REMARK    4  A    between atoms: C_11  and  S_12
REMARK    5  A    between atoms: S_12  and  C_13
REMARK    6  A    between atoms: C_13  and  C_14
REMARK    7  A    between atoms: N_16  and  C_17
REMARK    8  A    between atoms: N_21  and  C_22
REMARK                            x       y       z     vdW  Elec       q    Type
REMARK                         _______ _______ _______ _____ _____    ______ ____
ROOT
ATOM      1  C   UNL     1       6.238   4.322  17.467  0.00  0.00    +0.000 C 
ENDROOT
BRANCH   1   2
ATOM      2  C   UNL     1       4.852   4.024  18.017  0.00  0.00    +0.000 C 
ATOM      3  O   UNL     1       4.065   3.245  17.523  0.00  0.00    +0.000 OA
ATOM      4  N   UNL     1       4.490   4.809  19.174  0.00  0.00    +0.000 N 
ATOM      5  H   UNL     1       5.137   5.508  19.502  0.00  0.00    +0.000 HD
BRANCH   4   6
ATOM      6  C   UNL     1       3.240   4.722  19.780  0.00  0.00    +0.000 A 
ATOM      7  C   UNL     1       2.599   3.595  20.251  0.00  0.00    +0.000 A 
ATOM      8  C   UNL     1       1.383   4.056  20.787  0.00  0.00    +0.000 A 
ATOM      9  N   UNL     1       1.250   5.374  20.673  0.00  0.00    +0.000 NA
ATOM     10  N   UNL     1       2.378   5.766  20.043  0.00  0.00    +0.000 N 
BRANCH  10  11
ATOM     11  C   UNL     1       2.499   7.150  19.629  0.00  0.00    +0.000 C 
ATOM     12  C   UNL     1       1.521   8.091  20.334  0.00  0.00    +0.000 C 
ATOM     13  C   UNL     1       1.338   9.270  19.384  0.00  0.00    +0.000 C 
ATOM     14  C   UNL     1       1.864   8.835  18.019  0.00  0.00    +0.000 C 
ATOM     15  C   UNL     1       2.240   7.366  18.138  0.00  0.00    +0.000 C 
ENDBRANCH  10  11
ENDBRANCH   4   6
ENDBRANCH   1   2
BRANCH   1  16
ATOM     16  S   UNL     1       6.223   5.889  16.520  0.00  0.00    +0.000 S 
BRANCH  16  20
ATOM     17  C   UNL     1       8.263   8.633  18.268  0.00  0.00    +0.000 A 
ATOM     18  N   UNL     1       8.545   7.607  19.044  0.00  0.00    +0.000 NA
ATOM     19  N   UNL     1       7.857   6.530  18.549  0.00  0.00    +0.000 NA
ATOM     20  C   UNL     1       7.196   6.955  17.491  0.00  0.00    +0.000 A 
ATOM     21  O   UNL     1       7.392   8.298  17.254  0.00  0.00    +0.000 OA
BRANCH  17  28
ATOM     22  C   UNL     1      11.782  11.919  19.662  0.00  0.00    +0.000 C 
ATOM     23  C   UNL     1      10.458  11.618  19.023  0.00  0.00    +0.000 A 
ATOM     24  C   UNL     1       9.720  12.634  18.400  0.00  0.00    +0.000 A 
ATOM     25  C   UNL     1       8.505  12.353  17.768  0.00  0.00    +0.000 A 
ATOM     26  C   UNL     1       7.714  13.433  17.090  0.00  0.00    +0.000 C 
ATOM     27  C   UNL     1       8.040  11.033  17.756  0.00  0.00    +0.000 A 
ATOM     28  C   UNL     1       8.763   9.997  18.373  0.00  0.00    +0.000 A 
ATOM     29  C   UNL     1       9.968  10.303  19.016  0.00  0.00    +0.000 A 
ENDBRANCH  17  28
ENDBRANCH  16  20
ENDBRANCH   1  16
TORSDOF 6
ENDMDL
MODEL 7
REMARK VINA RESULT:      -7.7      0.917      1.948
REMARK  Name = 
REMARK  8 active torsions:
REMARK  status: ('A' for Active; 'I' for Inactive)
REMARK    1  A    between atoms: C_1  and  C_2
REMARK    2  A    between atoms: C_4  and  C_5
REMARK    3  A    between atoms: C_7  and  C_8
REMARK    4  A    between atoms: C_11  and  S_12
REMARK    5  A    between atoms: S_12  and  C_13
REMARK    6  A    between atoms: C_13  and  C_14
REMARK    7  A    between atoms: N_16  and  C_17
REMARK    8  A    between atoms: N_21  and  C_22
REMARK                            x       y       z     vdW  Elec       q    Type
REMARK                         _______ _______ _______ _____ _____    ______ ____
ROOT
ATOM      1  C   UNL     1       3.156   4.167  18.355  0.00  0.00    +0.000 C 
ENDROOT
BRANCH   1   2
ATOM      2  C   UNL     1       4.140   3.801  17.254  0.00  0.00    +0.000 C 
ATOM      3  O   UNL     1       4.596   2.692  17.075  0.00  0.00    +0.000 OA
ATOM      4  N   UNL     1       4.569   4.918  16.445  0.00  0.00    +0.000 N 
ATOM      5  H   UNL     1       4.235   5.838  16.681  0.00  0.00    +0.000 HD
BRANCH   4   6
ATOM      6  C   UNL     1       5.513   4.792  15.430  0.00  0.00    +0.000 A 
ATOM      7  C   UNL     1       5.334   4.284  14.159  0.00  0.00    +0.000 A 
ATOM      8  C   UNL     1       6.587   4.405  13.532  0.00  0.00    +0.000 A 
ATOM      9  N   UNL     1       7.501   4.948  14.331  0.00  0.00    +0.000 NA
ATOM     10  N   UNL     1       6.840   5.162  15.489  0.00  0.00    +0.000 N 
BRANCH  10  11
ATOM     11  C   UNL     1       7.588   5.624  16.642  0.00  0.00    +0.000 C 
ATOM     12  C   UNL     1       7.594   4.637  17.810  0.00  0.00    +0.000 C 
ATOM     13  C   UNL     1       7.827   5.485  19.055  0.00  0.00    +0.000 C 
ATOM     14  C   UNL     1       7.559   6.937  18.669  0.00  0.00    +0.000 C 
ATOM     15  C   UNL     1       7.051   6.927  17.235  0.00  0.00    +0.000 C 
ENDBRANCH  10  11
ENDBRANCH   4   6
ENDBRANCH   1   2
BRANCH   1  16
ATOM     16  S   UNL     1       3.887   5.422  19.470  0.00  0.00    +0.000 S 
BRANCH  16  20
ATOM     17  C   UNL     1       1.792   8.606  18.996  0.00  0.00    +0.000 A 
ATOM     18  N   UNL     1       2.364   8.527  17.812  0.00  0.00    +0.000 NA
ATOM     19  N   UNL     1       3.178   7.425  17.833  0.00  0.00    +0.000 NA
ATOM     20  C   UNL     1       3.056   6.885  19.028  0.00  0.00    +0.000 A 
ATOM     21  O   UNL     1       2.196   7.593  19.839  0.00  0.00    +0.000 OA
BRANCH  17  28
ATOM     22  C   UNL     1      -1.595  12.188  18.095  0.00  0.00    +0.000 C 
ATOM     23  C   UNL     1      -0.831  11.328  19.059  0.00  0.00    +0.000 A 
ATOM     24  C   UNL     1      -1.112  11.371  20.432  0.00  0.00    +0.000 A 
ATOM     25  C   UNL     1      -0.432  10.544  21.329  0.00  0.00    +0.000 A 
ATOM     26  C   UNL     1      -0.735  10.576  22.798  0.00  0.00    +0.000 C 
ATOM     27  C   UNL     1       0.532   9.657  20.833  0.00  0.00    +0.000 A 
ATOM     28  C   UNL     1       0.830   9.595  19.460  0.00  0.00    +0.000 A 
ATOM     29  C   UNL     1       0.151  10.446  18.581  0.00  0.00    +0.000 A 
ENDBRANCH  17  28
ENDBRANCH  16  20
ENDBRANCH   1  16
TORSDOF 6
ENDMDL
MODEL 8
REMARK VINA RESULT:      -7.6      1.072      1.977
REMARK  Name = 
REMARK  8 active torsions:
REMARK  status: ('A' for Active; 'I' for Inactive)
REMARK    1  A    between atoms: C_1  and  C_2
REMARK    2  A    between atoms: C_4  and  C_5
REMARK    3  A    between atoms: C_7  and  C_8
REMARK    4  A    between atoms: C_11  and  S_12
REMARK    5  A    between atoms: S_12  and  C_13
REMARK    6  A    between atoms: C_13  and  C_14
REMARK    7  A    between atoms: N_16  and  C_17
REMARK    8  A    between atoms: N_21  and  C_22
REMARK                            x       y       z     vdW  Elec       q    Type
REMARK                         _______ _______ _______ _____ _____    ______ ____
ROOT
ATOM      1  C   UNL     1       2.646   2.700  18.658  0.00  0.00    +0.000 C 
ENDROOT
BRANCH   1   2
ATOM      2  C   UNL     1       3.227   3.364  17.420  0.00  0.00    +0.000 C 
ATOM      3  O   UNL     1       2.574   3.782  16.488  0.00  0.00    +0.000 OA
ATOM      4  N   UNL     1       4.670   3.408  17.391  0.00  0.00    +0.000 N 
ATOM      5  H   UNL     1       5.179   2.972  18.144  0.00  0.00    +0.000 HD
BRANCH   4   6
ATOM      6  C   UNL     1       5.386   3.920  16.313  0.00  0.00    +0.000 A 
ATOM      7  C   UNL     1       5.471   3.416  15.031  0.00  0.00    +0.000 A 
ATOM      8  C   UNL     1       6.295   4.316  14.333  0.00  0.00    +0.000 A 
ATOM      9  N   UNL     1       6.708   5.321  15.099  0.00  0.00    +0.000 NA
ATOM     10  N   UNL     1       6.163   5.059  16.307  0.00  0.00    +0.000 N 
BRANCH  10  11
ATOM     11  C   UNL     1       6.531   5.896  17.432  0.00  0.00    +0.000 C 
ATOM     12  C   UNL     1       7.268   7.175  17.034  0.00  0.00    +0.000 C 
ATOM     13  C   UNL     1       8.095   7.563  18.254  0.00  0.00    +0.000 C 
ATOM     14  C   UNL     1       8.151   6.341  19.168  0.00  0.00    +0.000 C 
ATOM     15  C   UNL     1       7.462   5.204  18.428  0.00  0.00    +0.000 C 
ENDBRANCH  10  11
ENDBRANCH   4   6
ENDBRANCH   1   2
BRANCH   1  16
ATOM     16  S   UNL     1       3.258   3.529  20.172  0.00  0.00    +0.000 S 
BRANCH  16  20
ATOM     17  C   UNL     1       2.196   7.204  19.833  0.00  0.00    +0.000 A 
ATOM     18  N   UNL     1       3.126   7.146  18.901  0.00  0.00    +0.000 NA
ATOM     19  N   UNL     1       3.626   5.870  18.915  0.00  0.00    +0.000 NA
ATOM     20  C   UNL     1       2.970   5.215  19.850  0.00  0.00    +0.000 A 
ATOM     21  O   UNL     1       2.046   6.006  20.497  0.00  0.00    +0.000 OA
BRANCH  17  28
ATOM     22  C   UNL     1      -0.437  11.282  18.585  0.00  0.00    +0.000 C 
ATOM     23  C   UNL     1       0.063  10.319  19.622  0.00  0.00    +0.000 A 
ATOM     24  C   UNL     1      -0.359  10.423  20.955  0.00  0.00    +0.000 A 
ATOM     25  C   UNL     1       0.072   9.505  21.916  0.00  0.00    +0.000 A 
ATOM     26  C   UNL     1      -0.383   9.603  23.343  0.00  0.00    +0.000 C 
ATOM     27  C   UNL     1       0.928   8.468  21.525  0.00  0.00    +0.000 A 
ATOM     28  C   UNL     1       1.363   8.342  20.194  0.00  0.00    +0.000 A 
ATOM     29  C   UNL     1       0.935   9.284  19.250  0.00  0.00    +0.000 A 
ENDBRANCH  17  28
ENDBRANCH  16  20
ENDBRANCH   1  16
TORSDOF 6
ENDMDL
MODEL 9
REMARK VINA RESULT:      -7.6      1.359      1.636
REMARK  Name = 
REMARK  8 active torsions:
REMARK  status: ('A' for Active; 'I' for Inactive)
REMARK    1  A    between atoms: C_1  and  C_2
REMARK    2  A    between atoms: C_4  and  C_5
REMARK    3  A    between atoms: C_7  and  C_8
REMARK    4  A    between atoms: C_11  and  S_12
REMARK    5  A    between atoms: S_12  and  C_13
REMARK    6  A    between atoms: C_13  and  C_14
REMARK    7  A    between atoms: N_16  and  C_17
REMARK    8  A    between atoms: N_21  and  C_22
REMARK                            x       y       z     vdW  Elec       q    Type
REMARK                         _______ _______ _______ _____ _____    ______ ____
ROOT
ATOM      1  C   UNL     1       3.378   1.902  18.902  0.00  0.00    +0.000 C 
ENDROOT
BRANCH   1   2
ATOM      2  C   UNL     1       3.574   2.774  17.671  0.00  0.00    +0.000 C 
ATOM      3  O   UNL     1       2.706   3.038  16.866  0.00  0.00    +0.000 OA
ATOM      4  N   UNL     1       4.930   3.230  17.475  0.00  0.00    +0.000 N 
ATOM      5  H   UNL     1       5.639   2.917  18.117  0.00  0.00    +0.000 HD
BRANCH   4   6
ATOM      6  C   UNL     1       5.317   3.986  16.372  0.00  0.00    +0.000 A 
ATOM      7  C   UNL     1       5.195   3.665  15.035  0.00  0.00    +0.000 A 
ATOM      8  C   UNL     1       5.713   4.772  14.340  0.00  0.00    +0.000 A 
ATOM      9  N   UNL     1       6.135   5.730  15.159  0.00  0.00    +0.000 NA
ATOM     10  N   UNL     1       5.905   5.232  16.393  0.00  0.00    +0.000 N 
BRANCH  10  11
ATOM     11  C   UNL     1       6.385   5.975  17.543  0.00  0.00    +0.000 C 
ATOM     12  C   UNL     1       7.173   7.233  17.179  0.00  0.00    +0.000 C 
ATOM     13  C   UNL     1       8.089   7.497  18.369  0.00  0.00    +0.000 C 
ATOM     14  C   UNL     1       8.123   6.218  19.203  0.00  0.00    +0.000 C 
ATOM     15  C   UNL     1       7.328   5.170  18.438  0.00  0.00    +0.000 C 
ENDBRANCH  10  11
ENDBRANCH   4   6
ENDBRANCH   1   2
BRANCH   1  16
ATOM     16  S   UNL     1       2.005   2.546  19.926  0.00  0.00    +0.000 S 
BRANCH  16  20
ATOM     17  C   UNL     1       2.151   6.377  20.164  0.00  0.00    +0.000 A 
ATOM     18  N   UNL     1       3.399   6.119  19.833  0.00  0.00    +0.000 NA
ATOM     19  N   UNL     1       3.512   4.757  19.728  0.00  0.00    +0.000 NA
ATOM     20  C   UNL     1       2.324   4.256  19.995  0.00  0.00    +0.000 A 
ATOM     21  O   UNL     1       1.399   5.230  20.301  0.00  0.00    +0.000 OA
BRANCH  17  28
ATOM     22  C   UNL     1      -0.365   9.623  23.037  0.00  0.00    +0.000 C 
ATOM     23  C   UNL     1       0.326   9.285  21.749  0.00  0.00    +0.000 A 
ATOM     24  C   UNL     1       0.501  10.259  20.756  0.00  0.00    +0.000 A 
ATOM     25  C   UNL     1       1.179   9.961  19.571  0.00  0.00    +0.000 A 
ATOM     26  C   UNL     1       1.379  11.001  18.508  0.00  0.00    +0.000 C 
ATOM     27  C   UNL     1       1.694   8.672  19.393  0.00  0.00    +0.000 A 
ATOM     28  C   UNL     1       1.533   7.678  20.375  0.00  0.00    +0.000 A 
ATOM     29  C   UNL     1       0.834   7.993  21.547  0.00  0.00    +0.000 A 
ENDBRANCH  17  28
ENDBRANCH  16  20
ENDBRANCH   1  16
TORSDOF 6
ENDMDL
