MODEL 1
REMARK VINA RESULT:      -9.3      0.000      0.000
REMARK  Name = 
REMARK  5 active torsions:
REMARK  status: ('A' for Active; 'I' for Inactive)
REMARK    1  A    between atoms: C_1  and  C_2
REMARK    2  A    between atoms: C_9  and  S_10
REMARK    3  A    between atoms: S_10  and  N_13
REMARK    4  A    between atoms: C_15  and  C_16
REMARK    5  A    between atoms: C_21  and  C_22
REMARK                            x       y       z     vdW  Elec       q    Type
REMARK                         _______ _______ _______ _____ _____    ______ ____
ROOT
ATOM      1  S   UNL     1       3.507   3.981  18.120  0.00  0.00    +0.000 S 
ATOM      2  O   UNL     1       3.423   3.003  19.185  0.00  0.00    +0.000 OA
ATOM      3  O   UNL     1       2.804   3.747  16.873  0.00  0.00    +0.000 OA
ENDROOT
BRANCH   1  12
ATOM      4  C   UNL     1       0.313   8.926  22.262  0.00  0.00    +0.000 C 
ATOM      5  C   UNL     1       0.567   9.739  21.025  0.00  0.00    +0.000 C 
ATOM      6  O   UNL     1       0.204  10.921  21.000  0.00  0.00    +0.000 OA
ATOM      7  N   UNL     1       1.203   9.165  19.947  0.00  0.00    +0.000 N 
ATOM      8  C   UNL     1       1.509  10.000  18.775  0.00  0.00    +0.000 C 
ATOM      9  C   UNL     1       2.038   9.080  17.677  0.00  0.00    +0.000 C 
ATOM     10  C   UNL     1       2.250   7.803  18.429  0.00  0.00    +0.000 A 
ATOM     11  C   UNL     1       2.819   6.639  17.930  0.00  0.00    +0.000 A 
ATOM     12  C   UNL     1       2.878   5.521  18.766  0.00  0.00    +0.000 A 
ATOM     13  C   UNL     1       2.336   5.572  20.059  0.00  0.00    +0.000 A 
ATOM     14  C   UNL     1       1.760   6.756  20.544  0.00  0.00    +0.000 A 
ATOM     15  C   UNL     1       1.722   7.873  19.724  0.00  0.00    +0.000 A 
ENDBRANCH   1  12
BRANCH   1  16
ATOM     16  N   UNL     1       5.105   4.346  17.743  0.00  0.00    +0.000 N 
ATOM     17  C   UNL     1       6.088   4.434  18.845  0.00  0.00    +0.000 C 
ATOM     18  C   UNL     1       6.974   5.644  18.544  0.00  0.00    +0.000 C 
ATOM     19  C   UNL     1       7.963   5.900  19.674  0.00  0.00    +0.000 C 
ATOM     20  O   UNL     1       7.727   5.435  17.339  0.00  0.00    +0.000 OA
ATOM     21  C   UNL     1       6.966   4.969  16.286  0.00  0.00    +0.000 A 
ATOM     22  C   UNL     1       7.574   5.088  15.033  0.00  0.00    +0.000 A 
ATOM     23  C   UNL     1       6.910   4.647  13.890  0.00  0.00    +0.000 A 
ATOM     24  C   UNL     1       5.646   4.062  14.000  0.00  0.00    +0.000 A 
ATOM     25  C   UNL     1       4.906   3.578  12.787  0.00  0.00    +0.000 C 
ATOM     26  C   UNL     1       5.048   3.934  15.267  0.00  0.00    +0.000 A 
ATOM     27  C   UNL     1       5.687   4.390  16.421  0.00  0.00    +0.000 A 
ENDBRANCH   1  16
TORSDOF 2
ENDMDL
MODEL 2
REMARK VINA RESULT:      -8.5      0.873      1.832
REMARK  Name = 
REMARK  5 active torsions:
REMARK  status: ('A' for Active; 'I' for Inactive)
REMARK    1  A    between atoms: C_1  and  C_2
REMARK    2  A    between atoms: C_9  and  S_10
REMARK    3  A    between atoms: S_10  and  N_13
REMARK    4  A    between atoms: C_15  and  C_16
REMARK    5  A    between atoms: C_21  and  C_22
REMARK                            x       y       z     vdW  Elec       q    Type
REMARK                         _______ _______ _______ _____ _____    ______ ____
ROOT
ATOM      1  S   UNL     1       4.011   4.229  17.823  0.00  0.00    +0.000 S 
ATOM      2  O   UNL     1       4.201   3.437  19.020  0.00  0.00    +0.000 OA
ATOM      3  O   UNL     1       3.255   3.681  16.713  0.00  0.00    +0.000 OA
ENDROOT
BRANCH   1  12
ATOM      4  C   UNL     1       1.754  11.053  18.196  0.00  0.00    +0.000 C 
ATOM      5  C   UNL     1       1.179  10.513  19.474  0.00  0.00    +0.000 C 
ATOM      6  O   UNL     1       0.539  11.272  20.211  0.00  0.00    +0.000 OA
ATOM      7  N   UNL     1       1.363   9.188  19.800  0.00  0.00    +0.000 N 
ATOM      8  C   UNL     1       0.727   8.662  21.019  0.00  0.00    +0.000 C 
ATOM      9  C   UNL     1       1.242   7.239  21.231  0.00  0.00    +0.000 C 
ATOM     10  C   UNL     1       1.936   6.972  19.932  0.00  0.00    +0.000 A 
ATOM     11  C   UNL     1       2.511   5.771  19.539  0.00  0.00    +0.000 A 
ATOM     12  C   UNL     1       3.172   5.727  18.308  0.00  0.00    +0.000 A 
ATOM     13  C   UNL     1       3.283   6.882  17.520  0.00  0.00    +0.000 A 
ATOM     14  C   UNL     1       2.699   8.088  17.937  0.00  0.00    +0.000 A 
ATOM     15  C   UNL     1       2.022   8.128  19.146  0.00  0.00    +0.000 A 
ENDBRANCH   1  12
BRANCH   1  16
ATOM     16  N   UNL     1       5.476   4.789  17.215  0.00  0.00    +0.000 N 
ATOM     17  C   UNL     1       6.502   5.262  18.168  0.00  0.00    +0.000 C 
ATOM     18  C   UNL     1       7.112   6.527  17.562  0.00  0.00    +0.000 C 
ATOM     19  C   UNL     1       8.114   7.169  18.513  0.00  0.00    +0.000 C 
ATOM     20  O   UNL     1       7.800   6.221  16.338  0.00  0.00    +0.000 OA
ATOM     21  C   UNL     1       7.069   5.432  15.475  0.00  0.00    +0.000 A 
ATOM     22  C   UNL     1       7.548   5.408  14.162  0.00  0.00    +0.000 A 
ATOM     23  C   UNL     1       6.898   4.642  13.196  0.00  0.00    +0.000 A 
ATOM     24  C   UNL     1       5.784   3.877  13.546  0.00  0.00    +0.000 A 
ATOM     25  C   UNL     1       5.063   3.042  12.527  0.00  0.00    +0.000 C 
ATOM     26  C   UNL     1       5.316   3.896  14.873  0.00  0.00    +0.000 A 
ATOM     27  C   UNL     1       5.939   4.674  15.851  0.00  0.00    +0.000 A 
ENDBRANCH   1  16
TORSDOF 2
ENDMDL
MODEL 3
REMARK VINA RESULT:      -8.2      3.593      9.432
REMARK  Name = 
REMARK  5 active torsions:
REMARK  status: ('A' for Active; 'I' for Inactive)
REMARK    1  A    between atoms: C_1  and  C_2
REMARK    2  A    between atoms: C_9  and  S_10
REMARK    3  A    between atoms: S_10  and  N_13
REMARK    4  A    between atoms: C_15  and  C_16
REMARK    5  A    between atoms: C_21  and  C_22
REMARK                            x       y       z     vdW  Elec       q    Type
REMARK                         _______ _______ _______ _____ _____    ______ ____
ROOT
ATOM      1  S   UNL     1       0.771  11.364  19.429  0.00  0.00    +0.000 S 
ATOM      2  O   UNL     1       0.924  11.822  20.794  0.00  0.00    +0.000 OA
ATOM      3  O   UNL     1       1.482  12.041  18.360  0.00  0.00    +0.000 OA
ENDROOT
BRANCH   1  12
ATOM      4  C   UNL     1       2.251   4.551  21.220  0.00  0.00    +0.000 C 
ATOM      5  C   UNL     1       2.948   4.634  19.893  0.00  0.00    +0.000 C 
ATOM      6  O   UNL     1       3.551   3.641  19.470  0.00  0.00    +0.000 OA
ATOM      7  N   UNL     1       2.899   5.803  19.166  0.00  0.00    +0.000 N 
ATOM      8  C   UNL     1       3.525   5.839  17.835  0.00  0.00    +0.000 C 
ATOM      9  C   UNL     1       3.484   7.284  17.343  0.00  0.00    +0.000 C 
ATOM     10  C   UNL     1       2.570   7.918  18.346  0.00  0.00    +0.000 A 
ATOM     11  C   UNL     1       2.101   9.225  18.320  0.00  0.00    +0.000 A 
ATOM     12  C   UNL     1       1.301   9.661  19.380  0.00  0.00    +0.000 A 
ATOM     13  C   UNL     1       1.022   8.806  20.457  0.00  0.00    +0.000 A 
ATOM     14  C   UNL     1       1.510   7.491  20.467  0.00  0.00    +0.000 A 
ATOM     15  C   UNL     1       2.284   7.048  19.405  0.00  0.00    +0.000 A 
ENDBRANCH   1  12
BRANCH   1  16
ATOM     16  N   UNL     1      -0.849  11.274  18.987  0.00  0.00    +0.000 N 
ATOM     17  C   UNL     1      -1.226  10.392  17.861  0.00  0.00    +0.000 C 
ATOM     18  C   UNL     1      -2.258  11.158  17.032  0.00  0.00    +0.000 C 
ATOM     19  C   UNL     1      -2.643  10.386  15.777  0.00  0.00    +0.000 C 
ATOM     20  O   UNL     1      -3.455  11.382  17.795  0.00  0.00    +0.000 OA
ATOM     21  C   UNL     1      -3.219  11.872  19.063  0.00  0.00    +0.000 A 
ATOM     22  C   UNL     1      -4.339  12.423  19.691  0.00  0.00    +0.000 A 
ATOM     23  C   UNL     1      -4.231  12.946  20.978  0.00  0.00    +0.000 A 
ATOM     24  C   UNL     1      -3.008  12.894  21.652  0.00  0.00    +0.000 A 
ATOM     25  C   UNL     1      -2.860  13.448  23.039  0.00  0.00    +0.000 C 
ATOM     26  C   UNL     1      -1.888  12.323  21.017  0.00  0.00    +0.000 A 
ATOM     27  C   UNL     1      -1.970  11.816  19.719  0.00  0.00    +0.000 A 
ENDBRANCH   1  16
TORSDOF 2
ENDMDL
MODEL 4
REMARK VINA RESULT:      -7.8      3.991      9.741
REMARK  Name = 
REMARK  5 active torsions:
REMARK  status: ('A' for Active; 'I' for Inactive)
REMARK    1  A    between atoms: C_1  and  C_2
REMARK    2  A    between atoms: C_9  and  S_10
REMARK    3  A    between atoms: S_10  and  N_13
REMARK    4  A    between atoms: C_15  and  C_16
REMARK    5  A    between atoms: C_21  and  C_22
REMARK                            x       y       z     vdW  Elec       q    Type
REMARK                         _______ _______ _______ _____ _____    ______ ____
ROOT
ATOM      1  S   UNL     1       0.187  11.799  19.249  0.00  0.00    +0.000 S 
ATOM      2  O   UNL     1       0.148  12.165  20.649  0.00  0.00    +0.000 OA
ATOM      3  O   UNL     1       0.795  12.701  18.287  0.00  0.00    +0.000 OA
ENDROOT
BRANCH   1  12
ATOM      4  C   UNL     1       4.192   6.325  16.839  0.00  0.00    +0.000 C 
ATOM      5  C   UNL     1       3.679   5.735  18.121  0.00  0.00    +0.000 C 
ATOM      6  O   UNL     1       4.011   4.583  18.425  0.00  0.00    +0.000 OA
ATOM      7  N   UNL     1       2.859   6.481  18.938  0.00  0.00    +0.000 N 
ATOM      8  C   UNL     1       2.430   5.911  20.224  0.00  0.00    +0.000 C 
ATOM      9  C   UNL     1       1.397   6.861  20.829  0.00  0.00    +0.000 C 
ATOM     10  C   UNL     1       1.531   8.058  19.941  0.00  0.00    +0.000 A 
ATOM     11  C   UNL     1       0.884   9.276  20.099  0.00  0.00    +0.000 A 
ATOM     12  C   UNL     1       1.087  10.263  19.130  0.00  0.00    +0.000 A 
ATOM     13  C   UNL     1       1.891  10.004  18.010  0.00  0.00    +0.000 A 
ATOM     14  C   UNL     1       2.533   8.764  17.866  0.00  0.00    +0.000 A 
ATOM     15  C   UNL     1       2.352   7.792  18.838  0.00  0.00    +0.000 A 
ENDBRANCH   1  12
BRANCH   1  16
ATOM     16  N   UNL     1      -1.340  11.395  18.673  0.00  0.00    +0.000 N 
ATOM     17  C   UNL     1      -1.453  10.316  17.667  0.00  0.00    +0.000 C 
ATOM     18  C   UNL     1      -2.479  10.787  16.635  0.00  0.00    +0.000 C 
ATOM     19  C   UNL     1      -2.599   9.797  15.484  0.00  0.00    +0.000 C 
ATOM     20  O   UNL     1      -3.776  10.925  17.235  0.00  0.00    +0.000 OA
ATOM     21  C   UNL     1      -3.763  11.617  18.429  0.00  0.00    +0.000 A 
ATOM     22  C   UNL     1      -5.016  12.068  18.854  0.00  0.00    +0.000 A 
ATOM     23  C   UNL     1      -5.135  12.776  20.048  0.00  0.00    +0.000 A 
ATOM     24  C   UNL     1      -4.004  13.011  20.835  0.00  0.00    +0.000 A 
ATOM     25  C   UNL     1      -4.101  13.770  22.127  0.00  0.00    +0.000 C 
ATOM     26  C   UNL     1      -2.749  12.541  20.407  0.00  0.00    +0.000 A 
ATOM     27  C   UNL     1      -2.605  11.851  19.202  0.00  0.00    +0.000 A 
ENDBRANCH   1  16
TORSDOF 2
ENDMDL
MODEL 5
REMARK VINA RESULT:      -7.7      4.758     10.176
REMARK  Name = 
REMARK  5 active torsions:
REMARK  status: ('A' for Active; 'I' for Inactive)
REMARK    1  A    between atoms: C_1  and  C_2
REMARK    2  A    between atoms: C_9  and  S_10
REMARK    3  A    between atoms: S_10  and  N_13
REMARK    4  A    between atoms: C_15  and  C_16
REMARK    5  A    between atoms: C_21  and  C_22
REMARK                            x       y       z     vdW  Elec       q    Type
REMARK                         _______ _______ _______ _____ _____    ______ ____
ROOT
ATOM      1  S   UNL     1      -1.088  12.327  18.869  0.00  0.00    +0.000 S 
ATOM      2  O   UNL     1      -1.414  12.798  20.199  0.00  0.00    +0.000 OA
ATOM      3  O   UNL     1      -0.437  13.221  17.930  0.00  0.00    +0.000 OA
ENDROOT
BRANCH   1  12
ATOM      4  C   UNL     1       3.681   7.085  17.611  0.00  0.00    +0.000 C 
ATOM      5  C   UNL     1       3.175   6.665  18.961  0.00  0.00    +0.000 C 
ATOM      6  O   UNL     1       3.628   5.637  19.477  0.00  0.00    +0.000 OA
ATOM      7  N   UNL     1       2.226   7.429  19.604  0.00  0.00    +0.000 N 
ATOM      8  C   UNL     1       1.800   7.040  20.957  0.00  0.00    +0.000 C 
ATOM      9  C   UNL     1       0.627   7.938  21.348  0.00  0.00    +0.000 C 
ATOM     10  C   UNL     1       0.663   8.969  20.264  0.00  0.00    +0.000 A 
ATOM     11  C   UNL     1      -0.137  10.102  20.180  0.00  0.00    +0.000 A 
ATOM     12  C   UNL     1      -0.002  10.923  19.057  0.00  0.00    +0.000 A 
ATOM     13  C   UNL     1       0.888  10.580  18.028  0.00  0.00    +0.000 A 
ATOM     14  C   UNL     1       1.683   9.429  18.129  0.00  0.00    +0.000 A 
ATOM     15  C   UNL     1       1.569   8.625  19.254  0.00  0.00    +0.000 A 
ENDBRANCH   1  12
BRANCH   1  16
ATOM     16  N   UNL     1      -2.433  11.672  18.100  0.00  0.00    +0.000 N 
ATOM     17  C   UNL     1      -2.217  10.693  17.012  0.00  0.00    +0.000 C 
ATOM     18  C   UNL     1      -3.219  11.037  15.909  0.00  0.00    +0.000 C 
ATOM     19  C   UNL     1      -3.017  10.157  14.683  0.00  0.00    +0.000 C 
ATOM     20  O   UNL     1      -4.566  10.846  16.371  0.00  0.00    +0.000 OA
ATOM     21  C   UNL     1      -4.813  11.410  17.606  0.00  0.00    +0.000 A 
ATOM     22  C   UNL     1      -6.167  11.549  17.921  0.00  0.00    +0.000 A 
ATOM     23  C   UNL     1      -6.546  12.100  19.143  0.00  0.00    +0.000 A 
ATOM     24  C   UNL     1      -5.572  12.489  20.066  0.00  0.00    +0.000 A 
ATOM     25  C   UNL     1      -5.949  13.084  21.391  0.00  0.00    +0.000 C 
ATOM     26  C   UNL     1      -4.210  12.331  19.746  0.00  0.00    +0.000 A 
ATOM     27  C   UNL     1      -3.810  11.803  18.517  0.00  0.00    +0.000 A 
ENDBRANCH   1  16
TORSDOF 2
ENDMDL
MODEL 6
REMARK VINA RESULT:      -7.7      2.843      8.417
REMARK  Name = 
REMARK  5 active torsions:
REMARK  status: ('A' for Active; 'I' for Inactive)
REMARK    1  A    between atoms: C_1  and  C_2
REMARK    2  A    between atoms: C_9  and  S_10
REMARK    3  A    between atoms: S_10  and  N_13
REMARK    4  A    between atoms: C_15  and  C_16
REMARK    5  A    between atoms: C_21  and  C_22
REMARK                            x       y       z     vdW  Elec       q    Type
REMARK                         _______ _______ _______ _____ _____    ______ ____
ROOT
ATOM      1  S   UNL     1       0.462   9.121  21.184  0.00  0.00    +0.000 S 
ATOM      2  O   UNL     1      -0.603   8.257  21.650  0.00  0.00    +0.000 OA
ATOM      3  O   UNL     1       1.284   9.830  22.146  0.00  0.00    +0.000 OA
ENDROOT
BRANCH   1  12
ATOM      4  C   UNL     1       4.698   6.619  15.930  0.00  0.00    +0.000 C 
ATOM      5  C   UNL     1       4.640   5.413  16.822  0.00  0.00    +0.000 C 
ATOM      6  O   UNL     1       5.248   4.390  16.486  0.00  0.00    +0.000 OA
ATOM      7  N   UNL     1       3.924   5.464  17.997  0.00  0.00    +0.000 N 
ATOM      8  C   UNL     1       3.944   4.296  18.892  0.00  0.00    +0.000 C 
ATOM      9  C   UNL     1       2.934   4.554  20.010  0.00  0.00    +0.000 C 
ATOM     10  C   UNL     1       2.615   6.001  19.801  0.00  0.00    +0.000 A 
ATOM     11  C   UNL     1       1.810   6.791  20.611  0.00  0.00    +0.000 A 
ATOM     12  C   UNL     1       1.576   8.113  20.222  0.00  0.00    +0.000 A 
ATOM     13  C   UNL     1       2.110   8.605  19.021  0.00  0.00    +0.000 A 
ATOM     14  C   UNL     1       2.918   7.790  18.214  0.00  0.00    +0.000 A 
ATOM     15  C   UNL     1       3.171   6.485  18.610  0.00  0.00    +0.000 A 
ENDBRANCH   1  12
BRANCH   1  16
ATOM     16  N   UNL     1      -0.100  10.246  20.068  0.00  0.00    +0.000 N 
ATOM     17  C   UNL     1      -1.385   9.981  19.384  0.00  0.00    +0.000 C 
ATOM     18  C   UNL     1      -1.191  10.376  17.919  0.00  0.00    +0.000 C 
ATOM     19  C   UNL     1      -2.423  10.044  17.089  0.00  0.00    +0.000 C 
ATOM     20  O   UNL     1      -0.948  11.787  17.803  0.00  0.00    +0.000 OA
ATOM     21  C   UNL     1       0.002  12.260  18.686  0.00  0.00    +0.000 A 
ATOM     22  C   UNL     1       0.509  13.524  18.372  0.00  0.00    +0.000 A 
ATOM     23  C   UNL     1       1.471  14.113  19.190  0.00  0.00    +0.000 A 
ATOM     24  C   UNL     1       1.908  13.451  20.340  0.00  0.00    +0.000 A 
ATOM     25  C   UNL     1       2.943  14.061  21.241  0.00  0.00    +0.000 C 
ATOM     26  C   UNL     1       1.382  12.185  20.656  0.00  0.00    +0.000 A 
ATOM     27  C   UNL     1       0.435  11.568  19.837  0.00  0.00    +0.000 A 
ENDBRANCH   1  16
TORSDOF 2
ENDMDL
MODEL 7
REMARK VINA RESULT:      -7.6      3.101      7.921
REMARK  Name = 
REMARK  5 active torsions:
REMARK  status: ('A' for Active; 'I' for Inactive)
REMARK    1  A    between atoms: C_1  and  C_2
REMARK    2  A    between atoms: C_9  and  S_10
REMARK    3  A    between atoms: S_10  and  N_13
REMARK    4  A    between atoms: C_15  and  C_16
REMARK    5  A    between atoms: C_21  and  C_22
REMARK                            x       y       z     vdW  Elec       q    Type
REMARK                         _______ _______ _______ _____ _____    ______ ____
ROOT
ATOM      1  S   UNL     1       0.559   9.222  21.651  0.00  0.00    +0.000 S 
ATOM      2  O   UNL     1      -0.813   8.832  21.895  0.00  0.00    +0.000 OA
ATOM      3  O   UNL     1       1.451   9.450  22.773  0.00  0.00    +0.000 OA
ENDROOT
BRANCH   1  12
ATOM      4  C   UNL     1       3.163   2.895  19.416  0.00  0.00    +0.000 C 
ATOM      5  C   UNL     1       3.679   3.793  18.329  0.00  0.00    +0.000 C 
ATOM      6  O   UNL     1       4.358   3.303  17.419  0.00  0.00    +0.000 OA
ATOM      7  N   UNL     1       3.384   5.138  18.356  0.00  0.00    +0.000 N 
ATOM      8  C   UNL     1       3.836   5.986  17.242  0.00  0.00    +0.000 C 
ATOM      9  C   UNL     1       3.539   7.438  17.615  0.00  0.00    +0.000 C 
ATOM     10  C   UNL     1       2.673   7.266  18.824  0.00  0.00    +0.000 A 
ATOM     11  C   UNL     1       2.029   8.278  19.525  0.00  0.00    +0.000 A 
ATOM     12  C   UNL     1       1.309   7.933  20.672  0.00  0.00    +0.000 A 
ATOM     13  C   UNL     1       1.280   6.603  21.118  0.00  0.00    +0.000 A 
ATOM     14  C   UNL     1       1.941   5.596  20.400  0.00  0.00    +0.000 A 
ATOM     15  C   UNL     1       2.637   5.932  19.248  0.00  0.00    +0.000 A 
ENDBRANCH   1  12
BRANCH   1  16
ATOM     16  N   UNL     1       0.650  10.568  20.648  0.00  0.00    +0.000 N 
ATOM     17  C   UNL     1       1.868  11.405  20.697  0.00  0.00    +0.000 C 
ATOM     18  C   UNL     1       1.401  12.861  20.644  0.00  0.00    +0.000 C 
ATOM     19  C   UNL     1       2.571  13.823  20.797  0.00  0.00    +0.000 C 
ATOM     20  O   UNL     1       0.761  13.142  19.389  0.00  0.00    +0.000 OA
ATOM     21  C   UNL     1      -0.173  12.196  19.020  0.00  0.00    +0.000 A 
ATOM     22  C   UNL     1      -1.048  12.606  18.009  0.00  0.00    +0.000 A 
ATOM     23  C   UNL     1      -2.033  11.738  17.544  0.00  0.00    +0.000 A 
ATOM     24  C   UNL     1      -2.130  10.447  18.071  0.00  0.00    +0.000 A 
ATOM     25  C   UNL     1      -3.181   9.489  17.590  0.00  0.00    +0.000 C 
ATOM     26  C   UNL     1      -1.237  10.038  19.078  0.00  0.00    +0.000 A 
ATOM     27  C   UNL     1      -0.258  10.901  19.574  0.00  0.00    +0.000 A 
ENDBRANCH   1  16
TORSDOF 2
ENDMDL
MODEL 8
REMARK VINA RESULT:      -7.5      2.832      8.085
REMARK  Name = 
REMARK  5 active torsions:
REMARK  status: ('A' for Active; 'I' for Inactive)
REMARK    1  A    between atoms: C_1  and  C_2
REMARK    2  A    between atoms: C_9  and  S_10
REMARK    3  A    between atoms: S_10  and  N_13
REMARK    4  A    between atoms: C_15  and  C_16
REMARK    5  A    between atoms: C_21  and  C_22
REMARK                            x       y       z     vdW  Elec       q    Type
REMARK                         _______ _______ _______ _____ _____    ______ ____
ROOT
ATOM      1  S   UNL     1       0.550   9.098  21.478  0.00  0.00    +0.000 S 
ATOM      2  O   UNL     1      -0.789   8.551  21.554  0.00  0.00    +0.000 OA
ATOM      3  O   UNL     1       1.293   9.353  22.698  0.00  0.00    +0.000 OA
ENDROOT
BRANCH   1  12
ATOM      4  C   UNL     1       4.582   6.114  16.316  0.00  0.00    +0.000 C 
ATOM      5  C   UNL     1       4.287   4.904  17.155  0.00  0.00    +0.000 C 
ATOM      6  O   UNL     1       4.738   3.808  16.804  0.00  0.00    +0.000 OA
ATOM      7  N   UNL     1       3.531   5.033  18.299  0.00  0.00    +0.000 N 
ATOM      8  C   UNL     1       3.318   3.849  19.146  0.00  0.00    +0.000 C 
ATOM      9  C   UNL     1       2.309   4.230  20.228  0.00  0.00    +0.000 C 
ATOM     10  C   UNL     1       2.239   5.716  20.064  0.00  0.00    +0.000 A 
ATOM     11  C   UNL     1       1.532   6.600  20.870  0.00  0.00    +0.000 A 
ATOM     12  C   UNL     1       1.534   7.954  20.525  0.00  0.00    +0.000 A 
ATOM     13  C   UNL     1       2.199   8.392  19.369  0.00  0.00    +0.000 A 
ATOM     14  C   UNL     1       2.903   7.483  18.566  0.00  0.00    +0.000 A 
ATOM     15  C   UNL     1       2.923   6.142  18.919  0.00  0.00    +0.000 A 
ENDBRANCH   1  12
BRANCH   1  16
ATOM     16  N   UNL     1       0.591  10.503  20.554  0.00  0.00    +0.000 N 
ATOM     17  C   UNL     1       1.775  11.383  20.660  0.00  0.00    +0.000 C 
ATOM     18  C   UNL     1       1.250  12.820  20.688  0.00  0.00    +0.000 C 
ATOM     19  C   UNL     1       2.381  13.817  20.905  0.00  0.00    +0.000 C 
ATOM     20  O   UNL     1       0.606  13.147  19.446  0.00  0.00    +0.000 OA
ATOM     21  C   UNL     1      -0.288  12.188  19.017  0.00  0.00    +0.000 A 
ATOM     22  C   UNL     1      -1.173  12.621  18.025  0.00  0.00    +0.000 A 
ATOM     23  C   UNL     1      -2.121  11.742  17.504  0.00  0.00    +0.000 A 
ATOM     24  C   UNL     1      -2.169  10.421  17.955  0.00  0.00    +0.000 A 
ATOM     25  C   UNL     1      -3.179   9.451  17.412  0.00  0.00    +0.000 C 
ATOM     26  C   UNL     1      -1.265   9.990  18.943  0.00  0.00    +0.000 A 
ATOM     27  C   UNL     1      -0.323  10.861  19.495  0.00  0.00    +0.000 A 
ENDBRANCH   1  16
TORSDOF 2
ENDMDL
MODEL 9
REMARK VINA RESULT:      -7.5      3.083      8.288
REMARK  Name = 
REMARK  5 active torsions:
REMARK  status: ('A' for Active; 'I' for Inactive)
REMARK    1  A    between atoms: C_1  and  C_2
REMARK    2  A    between atoms: C_9  and  S_10
REMARK    3  A    between atoms: S_10  and  N_13
REMARK    4  A    between atoms: C_15  and  C_16
REMARK    5  A    between atoms: C_21  and  C_22
REMARK                            x       y       z     vdW  Elec       q    Type
REMARK                         _______ _______ _______ _____ _____    ______ ____
ROOT
ATOM      1  S   UNL     1       0.471   9.338  21.524  0.00  0.00    +0.000 S 
ATOM      2  O   UNL     1      -0.649   8.752  22.231  0.00  0.00    +0.000 OA
ATOM      3  O   UNL     1       1.520  10.008  22.269  0.00  0.00    +0.000 OA
ENDROOT
BRANCH   1  12
ATOM      4  C   UNL     1       3.284   2.990  19.626  0.00  0.00    +0.000 C 
ATOM      5  C   UNL     1       3.778   3.848  18.497  0.00  0.00    +0.000 C 
ATOM      6  O   UNL     1       4.478   3.334  17.616  0.00  0.00    +0.000 OA
ATOM      7  N   UNL     1       3.441   5.182  18.453  0.00  0.00    +0.000 N 
ATOM      8  C   UNL     1       3.873   5.986  17.299  0.00  0.00    +0.000 C 
ATOM      9  C   UNL     1       3.528   7.445  17.597  0.00  0.00    +0.000 C 
ATOM     10  C   UNL     1       2.661   7.308  18.809  0.00  0.00    +0.000 A 
ATOM     11  C   UNL     1       1.982   8.333  19.454  0.00  0.00    +0.000 A 
ATOM     12  C   UNL     1       1.266   8.024  20.614  0.00  0.00    +0.000 A 
ATOM     13  C   UNL     1       1.276   6.719  21.128  0.00  0.00    +0.000 A 
ATOM     14  C   UNL     1       1.973   5.698  20.465  0.00  0.00    +0.000 A 
ATOM     15  C   UNL     1       2.664   5.997  19.301  0.00  0.00    +0.000 A 
ENDBRANCH   1  12
BRANCH   1  16
ATOM     16  N   UNL     1      -0.044  10.385  20.314  0.00  0.00    +0.000 N 
ATOM     17  C   UNL     1      -1.322  10.098  19.626  0.00  0.00    +0.000 C 
ATOM     18  C   UNL     1      -1.090  10.375  18.140  0.00  0.00    +0.000 C 
ATOM     19  C   UNL     1      -2.315  10.008  17.312  0.00  0.00    +0.000 C 
ATOM     20  O   UNL     1      -0.813  11.767  17.921  0.00  0.00    +0.000 OA
ATOM     21  C   UNL     1       0.132  12.285  18.784  0.00  0.00    +0.000 A 
ATOM     22  C   UNL     1       0.675  13.510  18.385  0.00  0.00    +0.000 A 
ATOM     23  C   UNL     1       1.634  14.138  19.175  0.00  0.00    +0.000 A 
ATOM     24  C   UNL     1       2.035  13.557  20.381  0.00  0.00    +0.000 A 
ATOM     25  C   UNL     1       3.066  14.211  21.254  0.00  0.00    +0.000 C 
ATOM     26  C   UNL     1       1.472  12.331  20.782  0.00  0.00    +0.000 A 
ATOM     27  C   UNL     1       0.527  11.674  19.993  0.00  0.00    +0.000 A 
ENDBRANCH   1  16
TORSDOF 2
ENDMDL
