MODEL 1
REMARK VINA RESULT:      -8.9      0.000      0.000
REMARK  Name = 
REMARK  3 active torsions:
REMARK  status: ('A' for Active; 'I' for Inactive)
REMARK    1  A    between atoms: C_1  and  C_2
REMARK    2  A    between atoms: C_8  and  C_9
REMARK    3  A    between atoms: C_12  and  C_13
REMARK                            x       y       z     vdW  Elec       q    Type
REMARK                         _______ _______ _______ _____ _____    ______ ____
ROOT
ATOM      1  C   UNL     1       4.425   5.137  17.170  0.00  0.00    +0.000 A 
ATOM      2  N   UNL     1       3.728   4.176  17.739  0.00  0.00    +0.000 NA
ATOM      3  N   UNL     1       2.890   4.777  18.633  0.00  0.00    +0.000 NA
ATOM      4  C   UNL     1       3.129   6.072  18.570  0.00  0.00    +0.000 A 
ATOM      5  O   UNL     1       4.116   6.386  17.667  0.00  0.00    +0.000 OA
ENDROOT
BRANCH   1  13
ATOM      6  C   UNL     1       4.974   2.922  11.825  0.00  0.00    +0.000 C 
ATOM      7  C   UNL     1       6.002   3.702  12.555  0.00  0.00    +0.000 A 
ATOM      8  N   UNL     1       7.168   3.991  11.965  0.00  0.00    +0.000 NA
ATOM      9  O   UNL     1       7.884   4.740  12.890  0.00  0.00    +0.000 OA
ATOM     10  C   UNL     1       7.144   4.899  14.025  0.00  0.00    +0.000 A 
ATOM     11  N   UNL     1       7.555   5.591  15.106  0.00  0.00    +0.000 NA
ATOM     12  C   UNL     1       6.626   5.627  16.095  0.00  0.00    +0.000 A 
ATOM     13  C   UNL     1       5.375   5.023  16.078  0.00  0.00    +0.000 A 
ATOM     14  C   UNL     1       5.018   4.296  14.926  0.00  0.00    +0.000 A 
ATOM     15  C   UNL     1       5.933   4.249  13.861  0.00  0.00    +0.000 A 
ENDBRANCH   1  13
BRANCH   4  16
ATOM     16  C   UNL     1       2.431   7.130  19.282  0.00  0.00    +0.000 A 
ATOM     17  C   UNL     1       1.978   7.027  20.606  0.00  0.00    +0.000 A 
ATOM     18  C   UNL     1       1.136   8.018  21.140  0.00  0.00    +0.000 A 
ATOM     19  C   UNL     1       0.751   9.112  20.362  0.00  0.00    +0.000 A 
ATOM     20  C   UNL     1       1.285   9.263  19.087  0.00  0.00    +0.000 A 
ATOM     21  C   UNL     1       2.115   8.286  18.554  0.00  0.00    +0.000 A 
ATOM     22  O   UNL     1       1.007  10.338  18.291  0.00  0.00    +0.000 OA
ATOM     23  C   UNL     1      -0.340  10.741  18.516  0.00  0.00    +0.000 C 
ATOM     24  C   UNL     1      -0.614  10.998  19.993  0.00  0.00    +0.000 C 
ATOM     25  O   UNL     1      -0.181   9.962  20.886  0.00  0.00    +0.000 OA
ENDBRANCH   4  16
TORSDOF 2
ENDMDL
MODEL 2
REMARK VINA RESULT:      -8.8      0.895      1.667
REMARK  Name = 
REMARK  3 active torsions:
REMARK  status: ('A' for Active; 'I' for Inactive)
REMARK    1  A    between atoms: C_1  and  C_2
REMARK    2  A    between atoms: C_8  and  C_9
REMARK    3  A    between atoms: C_12  and  C_13
REMARK                            x       y       z     vdW  Elec       q    Type
REMARK                         _______ _______ _______ _____ _____    ______ ____
ROOT
ATOM      1  C   UNL     1       4.672   5.419  17.043  0.00  0.00    +0.000 A 
ATOM      2  N   UNL     1       4.310   4.588  17.998  0.00  0.00    +0.000 NA
ATOM      3  N   UNL     1       3.398   5.250  18.768  0.00  0.00    +0.000 NA
ATOM      4  C   UNL     1       3.262   6.454  18.249  0.00  0.00    +0.000 A 
ATOM      5  O   UNL     1       4.060   6.651  17.148  0.00  0.00    +0.000 OA
ENDROOT
BRANCH   1  13
ATOM      6  C   UNL     1       4.657   3.001  11.758  0.00  0.00    +0.000 C 
ATOM      7  C   UNL     1       5.812   3.663  12.411  0.00  0.00    +0.000 A 
ATOM      8  N   UNL     1       6.973   3.783  11.756  0.00  0.00    +0.000 NA
ATOM      9  O   UNL     1       7.825   4.459  12.619  0.00  0.00    +0.000 OA
ATOM     10  C   UNL     1       7.172   4.743  13.782  0.00  0.00    +0.000 A 
ATOM     11  N   UNL     1       7.723   5.407  14.818  0.00  0.00    +0.000 NA
ATOM     12  C   UNL     1       6.858   5.590  15.848  0.00  0.00    +0.000 A 
ATOM     13  C   UNL     1       5.542   5.152  15.912  0.00  0.00    +0.000 A 
ATOM     14  C   UNL     1       5.036   4.445  14.804  0.00  0.00    +0.000 A 
ATOM     15  C   UNL     1       5.881   4.251  13.699  0.00  0.00    +0.000 A 
ENDBRANCH   1  13
BRANCH   4  16
ATOM     16  C   UNL     1       2.345   7.498  18.679  0.00  0.00    +0.000 A 
ATOM     17  C   UNL     1       1.959   8.587  17.883  0.00  0.00    +0.000 A 
ATOM     18  C   UNL     1       1.236   9.650  18.452  0.00  0.00    +0.000 A 
ATOM     19  C   UNL     1       0.892   9.628  19.806  0.00  0.00    +0.000 A 
ATOM     20  C   UNL     1       1.187   8.500  20.564  0.00  0.00    +0.000 A 
ATOM     21  C   UNL     1       1.903   7.449  20.008  0.00  0.00    +0.000 A 
ATOM     22  O   UNL     1       0.828   8.376  21.876  0.00  0.00    +0.000 OA
ATOM     23  C   UNL     1       0.909   9.654  22.498  0.00  0.00    +0.000 C 
ATOM     24  C   UNL     1       0.096  10.702  21.747  0.00  0.00    +0.000 C 
ATOM     25  O   UNL     1       0.320  10.751  20.330  0.00  0.00    +0.000 OA
ENDBRANCH   4  16
TORSDOF 2
ENDMDL
MODEL 3
REMARK VINA RESULT:      -8.5      3.831      9.689
REMARK  Name = 
REMARK  3 active torsions:
REMARK  status: ('A' for Active; 'I' for Inactive)
REMARK    1  A    between atoms: C_1  and  C_2
REMARK    2  A    between atoms: C_8  and  C_9
REMARK    3  A    between atoms: C_12  and  C_13
REMARK                            x       y       z     vdW  Elec       q    Type
REMARK                         _______ _______ _______ _____ _____    ______ ____
ROOT
ATOM      1  C   UNL     1       1.101   9.489  19.586  0.00  0.00    +0.000 A 
ATOM      2  N   UNL     1       1.244   9.867  18.332  0.00  0.00    +0.000 NA
ATOM      3  N   UNL     1       1.947   8.880  17.704  0.00  0.00    +0.000 NA
ATOM      4  C   UNL     1       2.207   7.959  18.611  0.00  0.00    +0.000 A 
ATOM      5  O   UNL     1       1.714   8.282  19.852  0.00  0.00    +0.000 OA
ENDROOT
BRANCH   1  13
ATOM      6  C   UNL     1      -3.352  13.140  20.371  0.00  0.00    +0.000 C 
ATOM      7  C   UNL     1      -2.557  12.492  21.441  0.00  0.00    +0.000 A 
ATOM      8  N   UNL     1      -2.872  12.695  22.727  0.00  0.00    +0.000 NA
ATOM      9  O   UNL     1      -1.966  11.940  23.461  0.00  0.00    +0.000 OA
ATOM     10  C   UNL     1      -1.118  11.289  22.616  0.00  0.00    +0.000 A 
ATOM     11  N   UNL     1      -0.132  10.463  23.020  0.00  0.00    +0.000 NA
ATOM     12  C   UNL     1       0.555   9.914  21.986  0.00  0.00    +0.000 A 
ATOM     13  C   UNL     1       0.339  10.145  20.633  0.00  0.00    +0.000 A 
ATOM     14  C   UNL     1      -0.692  11.036  20.280  0.00  0.00    +0.000 A 
ATOM     15  C   UNL     1      -1.453  11.612  21.312  0.00  0.00    +0.000 A 
ENDBRANCH   1  13
BRANCH   4  16
ATOM     16  C   UNL     1       2.869   6.682  18.402  0.00  0.00    +0.000 A 
ATOM     17  C   UNL     1       3.874   6.460  17.449  0.00  0.00    +0.000 A 
ATOM     18  C   UNL     1       4.308   5.150  17.178  0.00  0.00    +0.000 A 
ATOM     19  C   UNL     1       3.749   4.065  17.856  0.00  0.00    +0.000 A 
ATOM     20  C   UNL     1       2.829   4.299  18.872  0.00  0.00    +0.000 A 
ATOM     21  C   UNL     1       2.395   5.590  19.142  0.00  0.00    +0.000 A 
ATOM     22  O   UNL     1       2.285   3.296  19.624  0.00  0.00    +0.000 OA
ATOM     23  C   UNL     1       2.114   2.147  18.802  0.00  0.00    +0.000 C 
ATOM     24  C   UNL     1       3.412   1.746  18.110  0.00  0.00    +0.000 C 
ATOM     25  O   UNL     1       4.107   2.812  17.447  0.00  0.00    +0.000 OA
ENDBRANCH   4  16
TORSDOF 2
ENDMDL
MODEL 4
REMARK VINA RESULT:      -8.5      3.136      4.647
REMARK  Name = 
REMARK  3 active torsions:
REMARK  status: ('A' for Active; 'I' for Inactive)
REMARK    1  A    between atoms: C_1  and  C_2
REMARK    2  A    between atoms: C_8  and  C_9
REMARK    3  A    between atoms: C_12  and  C_13
REMARK                            x       y       z     vdW  Elec       q    Type
REMARK                         _______ _______ _______ _____ _____    ______ ____
ROOT
ATOM      1  C   UNL     1       2.219   8.118  18.301  0.00  0.00    +0.000 A 
ATOM      2  N   UNL     1       2.216   9.223  17.584  0.00  0.00    +0.000 NA
ATOM      3  N   UNL     1       1.536  10.158  18.310  0.00  0.00    +0.000 NA
ATOM      4  C   UNL     1       1.150   9.570  19.424  0.00  0.00    +0.000 A 
ATOM      5  O   UNL     1       1.532   8.252  19.490  0.00  0.00    +0.000 OA
ENDROOT
BRANCH   1  13
ATOM      6  C   UNL     1       1.494   2.359  18.578  0.00  0.00    +0.000 C 
ATOM      7  C   UNL     1       2.689   3.062  18.056  0.00  0.00    +0.000 A 
ATOM      8  N   UNL     1       3.711   2.361  17.549  0.00  0.00    +0.000 NA
ATOM      9  O   UNL     1       4.644   3.302  17.131  0.00  0.00    +0.000 OA
ATOM     10  C   UNL     1       4.177   4.558  17.386  0.00  0.00    +0.000 A 
ATOM     11  N   UNL     1       4.844   5.690  17.083  0.00  0.00    +0.000 NA
ATOM     12  C   UNL     1       4.154   6.813  17.411  0.00  0.00    +0.000 A 
ATOM     13  C   UNL     1       2.903   6.870  18.013  0.00  0.00    +0.000 A 
ATOM     14  C   UNL     1       2.272   5.651  18.323  0.00  0.00    +0.000 A 
ATOM     15  C   UNL     1       2.931   4.457  17.981  0.00  0.00    +0.000 A 
ENDBRANCH   1  13
BRANCH   4  16
ATOM     16  C   UNL     1       0.457  10.183  20.546  0.00  0.00    +0.000 A 
ATOM     17  C   UNL     1       0.493   9.693  21.860  0.00  0.00    +0.000 A 
ATOM     18  C   UNL     1      -0.370  10.228  22.833  0.00  0.00    +0.000 A 
ATOM     19  C   UNL     1      -1.262  11.251  22.502  0.00  0.00    +0.000 A 
ATOM     20  C   UNL     1      -1.221  11.802  21.226  0.00  0.00    +0.000 A 
ATOM     21  C   UNL     1      -0.373  11.276  20.261  0.00  0.00    +0.000 A 
ATOM     22  O   UNL     1      -2.016  12.847  20.846  0.00  0.00    +0.000 OA
ATOM     23  C   UNL     1      -3.277  12.724  21.494  0.00  0.00    +0.000 C 
ATOM     24  C   UNL     1      -3.127  12.600  23.006  0.00  0.00    +0.000 C 
ATOM     25  O   UNL     1      -2.171  11.626  23.449  0.00  0.00    +0.000 OA
ENDBRANCH   4  16
TORSDOF 2
ENDMDL
MODEL 5
REMARK VINA RESULT:      -8.4      1.411      2.220
REMARK  Name = 
REMARK  3 active torsions:
REMARK  status: ('A' for Active; 'I' for Inactive)
REMARK    1  A    between atoms: C_1  and  C_2
REMARK    2  A    between atoms: C_8  and  C_9
REMARK    3  A    between atoms: C_12  and  C_13
REMARK                            x       y       z     vdW  Elec       q    Type
REMARK                         _______ _______ _______ _____ _____    ______ ____
ROOT
ATOM      1  C   UNL     1       4.089   6.113  18.251  0.00  0.00    +0.000 A 
ATOM      2  N   UNL     1       3.561   5.234  19.078  0.00  0.00    +0.000 NA
ATOM      3  N   UNL     1       2.543   5.871  19.727  0.00  0.00    +0.000 NA
ATOM      4  C   UNL     1       2.513   7.107  19.271  0.00  0.00    +0.000 A 
ATOM      5  O   UNL     1       3.485   7.351  18.332  0.00  0.00    +0.000 OA
ENDROOT
BRANCH   1  13
ATOM      6  C   UNL     1       5.034   3.562  13.115  0.00  0.00    +0.000 C 
ATOM      7  C   UNL     1       6.023   4.340  13.896  0.00  0.00    +0.000 A 
ATOM      8  N   UNL     1       7.252   4.546  13.406  0.00  0.00    +0.000 NA
ATOM      9  O   UNL     1       7.912   5.318  14.354  0.00  0.00    +0.000 OA
ATOM     10  C   UNL     1       7.078   5.574  15.401  0.00  0.00    +0.000 A 
ATOM     11  N   UNL     1       7.417   6.312  16.477  0.00  0.00    +0.000 NA
ATOM     12  C   UNL     1       6.401   6.445  17.368  0.00  0.00    +0.000 A 
ATOM     13  C   UNL     1       5.131   5.894  17.264  0.00  0.00    +0.000 A 
ATOM     14  C   UNL     1       4.850   5.115  16.125  0.00  0.00    +0.000 A 
ATOM     15  C   UNL     1       5.858   4.967  15.157  0.00  0.00    +0.000 A 
ENDBRANCH   1  13
BRANCH   4  16
ATOM     16  C   UNL     1       1.552   8.145  19.609  0.00  0.00    +0.000 A 
ATOM     17  C   UNL     1       1.317   9.288  18.831  0.00  0.00    +0.000 A 
ATOM     18  C   UNL     1       0.525  10.333  19.339  0.00  0.00    +0.000 A 
ATOM     19  C   UNL     1      -0.037  10.238  20.615  0.00  0.00    +0.000 A 
ATOM     20  C   UNL     1       0.112   9.061  21.338  0.00  0.00    +0.000 A 
ATOM     21  C   UNL     1       0.896   8.027  20.843  0.00  0.00    +0.000 A 
ATOM     22  O   UNL     1      -0.460   8.867  22.564  0.00  0.00    +0.000 OA
ATOM     23  C   UNL     1      -0.464  10.104  23.269  0.00  0.00    +0.000 C 
ATOM     24  C   UNL     1      -1.128  11.214  22.462  0.00  0.00    +0.000 C 
ATOM     25  O   UNL     1      -0.673  11.342  21.107  0.00  0.00    +0.000 OA
ENDBRANCH   4  16
TORSDOF 2
ENDMDL
MODEL 6
REMARK VINA RESULT:      -8.3      3.740      5.267
REMARK  Name = 
REMARK  3 active torsions:
REMARK  status: ('A' for Active; 'I' for Inactive)
REMARK    1  A    between atoms: C_1  and  C_2
REMARK    2  A    between atoms: C_8  and  C_9
REMARK    3  A    between atoms: C_12  and  C_13
REMARK                            x       y       z     vdW  Elec       q    Type
REMARK                         _______ _______ _______ _____ _____    ______ ____
ROOT
ATOM      1  C   UNL     1       2.511   7.677  18.444  0.00  0.00    +0.000 A 
ATOM      2  N   UNL     1       2.650   8.425  17.369  0.00  0.00    +0.000 NA
ATOM      3  N   UNL     1       1.894   9.544  17.571  0.00  0.00    +0.000 NA
ATOM      4  C   UNL     1       1.325   9.412  18.753  0.00  0.00    +0.000 A 
ATOM      5  O   UNL     1       1.654   8.231  19.372  0.00  0.00    +0.000 OA
ENDROOT
BRANCH   1  13
ATOM      6  C   UNL     1       1.835   2.741  21.436  0.00  0.00    +0.000 C 
ATOM      7  C   UNL     1       3.009   3.104  20.607  0.00  0.00    +0.000 A 
ATOM      8  N   UNL     1       4.020   2.238  20.461  0.00  0.00    +0.000 NA
ATOM      9  O   UNL     1       4.932   2.861  19.620  0.00  0.00    +0.000 OA
ATOM     10  C   UNL     1       4.464   4.091  19.264  0.00  0.00    +0.000 A 
ATOM     11  N   UNL     1       5.114   4.940  18.441  0.00  0.00    +0.000 NA
ATOM     12  C   UNL     1       4.426   6.090  18.219  0.00  0.00    +0.000 A 
ATOM     13  C   UNL     1       3.195   6.436  18.760  0.00  0.00    +0.000 A 
ATOM     14  C   UNL     1       2.582   5.513  19.629  0.00  0.00    +0.000 A 
ATOM     15  C   UNL     1       3.238   4.295  19.873  0.00  0.00    +0.000 A 
ENDBRANCH   1  13
BRANCH   4  16
ATOM     16  C   UNL     1       0.486  10.383  19.437  0.00  0.00    +0.000 A 
ATOM     17  C   UNL     1       0.630  10.740  20.786  0.00  0.00    +0.000 A 
ATOM     18  C   UNL     1      -0.352  11.528  21.412  0.00  0.00    +0.000 A 
ATOM     19  C   UNL     1      -1.471  11.964  20.698  0.00  0.00    +0.000 A 
ATOM     20  C   UNL     1      -1.556  11.695  19.337  0.00  0.00    +0.000 A 
ATOM     21  C   UNL     1      -0.591  10.915  18.714  0.00  0.00    +0.000 A 
ATOM     22  O   UNL     1      -2.586  12.141  18.558  0.00  0.00    +0.000 OA
ATOM     23  C   UNL     1      -3.782  12.136  19.329  0.00  0.00    +0.000 C 
ATOM     24  C   UNL     1      -3.623  12.921  20.626  0.00  0.00    +0.000 C 
ATOM     25  O   UNL     1      -2.456  12.601  21.397  0.00  0.00    +0.000 OA
ENDBRANCH   4  16
TORSDOF 2
ENDMDL
MODEL 7
REMARK VINA RESULT:      -8.3      3.652      9.772
REMARK  Name = 
REMARK  3 active torsions:
REMARK  status: ('A' for Active; 'I' for Inactive)
REMARK    1  A    between atoms: C_1  and  C_2
REMARK    2  A    between atoms: C_8  and  C_9
REMARK    3  A    between atoms: C_12  and  C_13
REMARK                            x       y       z     vdW  Elec       q    Type
REMARK                         _______ _______ _______ _____ _____    ______ ____
ROOT
ATOM      1  C   UNL     1       1.017   9.868  19.487  0.00  0.00    +0.000 A 
ATOM      2  N   UNL     1       1.111  10.393  18.283  0.00  0.00    +0.000 NA
ATOM      3  N   UNL     1       1.837   9.515  17.530  0.00  0.00    +0.000 NA
ATOM      4  C   UNL     1       2.158   8.509  18.319  0.00  0.00    +0.000 A 
ATOM      5  O   UNL     1       1.685   8.666  19.599  0.00  0.00    +0.000 OA
ENDROOT
BRANCH   1  13
ATOM      6  C   UNL     1      -3.465  13.328  20.795  0.00  0.00    +0.000 C 
ATOM      7  C   UNL     1      -2.655  12.549  21.761  0.00  0.00    +0.000 A 
ATOM      8  N   UNL     1      -2.963  12.569  23.064  0.00  0.00    +0.000 NA
ATOM      9  O   UNL     1      -2.044  11.730  23.682  0.00  0.00    +0.000 OA
ATOM     10  C   UNL     1      -1.196  11.210  22.750  0.00  0.00    +0.000 A 
ATOM     11  N   UNL     1      -0.199  10.347  23.031  0.00  0.00    +0.000 NA
ATOM     12  C   UNL     1       0.485   9.952  21.926  0.00  0.00    +0.000 A 
ATOM     13  C   UNL     1       0.256  10.365  20.620  0.00  0.00    +0.000 A 
ATOM     14  C   UNL     1      -0.786  11.285  20.399  0.00  0.00    +0.000 A 
ATOM     15  C   UNL     1      -1.544  11.706  21.505  0.00  0.00    +0.000 A 
ENDBRANCH   1  13
BRANCH   4  16
ATOM     16  C   UNL     1       2.866   7.294  17.948  0.00  0.00    +0.000 A 
ATOM     17  C   UNL     1       2.493   6.006  18.358  0.00  0.00    +0.000 A 
ATOM     18  C   UNL     1       3.352   4.917  18.124  0.00  0.00    +0.000 A 
ATOM     19  C   UNL     1       4.576   5.109  17.478  0.00  0.00    +0.000 A 
ATOM     20  C   UNL     1       4.893   6.368  16.982  0.00  0.00    +0.000 A 
ATOM     21  C   UNL     1       4.050   7.447  17.213  0.00  0.00    +0.000 A 
ATOM     22  O   UNL     1       6.041   6.621  16.284  0.00  0.00    +0.000 OA
ATOM     23  C   UNL     1       7.087   5.814  16.813  0.00  0.00    +0.000 C 
ATOM     24  C   UNL     1       6.708   4.338  16.835  0.00  0.00    +0.000 C 
ATOM     25  O   UNL     1       5.427   4.043  17.410  0.00  0.00    +0.000 OA
ENDBRANCH   4  16
TORSDOF 2
ENDMDL
MODEL 8
REMARK VINA RESULT:      -8.3      1.758      2.617
REMARK  Name = 
REMARK  3 active torsions:
REMARK  status: ('A' for Active; 'I' for Inactive)
REMARK    1  A    between atoms: C_1  and  C_2
REMARK    2  A    between atoms: C_8  and  C_9
REMARK    3  A    between atoms: C_12  and  C_13
REMARK                            x       y       z     vdW  Elec       q    Type
REMARK                         _______ _______ _______ _____ _____    ______ ____
ROOT
ATOM      1  C   UNL     1       3.478   5.782  19.533  0.00  0.00    +0.000 A 
ATOM      2  N   UNL     1       2.528   5.007  20.012  0.00  0.00    +0.000 NA
ATOM      3  N   UNL     1       1.553   5.834  20.491  0.00  0.00    +0.000 NA
ATOM      4  C   UNL     1       1.967   7.069  20.290  0.00  0.00    +0.000 A 
ATOM      5  O   UNL     1       3.205   7.125  19.696  0.00  0.00    +0.000 OA
ENDROOT
BRANCH   1  13
ATOM      6  C   UNL     1       5.391   4.482  14.201  0.00  0.00    +0.000 C 
ATOM      7  C   UNL     1       6.209   4.512  15.437  0.00  0.00    +0.000 A 
ATOM      8  N   UNL     1       7.524   4.268  15.377  0.00  0.00    +0.000 NA
ATOM      9  O   UNL     1       7.991   4.397  16.678  0.00  0.00    +0.000 OA
ATOM     10  C   UNL     1       6.959   4.720  17.509  0.00  0.00    +0.000 A 
ATOM     11  N   UNL     1       7.091   4.929  18.834  0.00  0.00    +0.000 NA
ATOM     12  C   UNL     1       5.920   5.267  19.434  0.00  0.00    +0.000 A 
ATOM     13  C   UNL     1       4.679   5.384  18.821  0.00  0.00    +0.000 A 
ATOM     14  C   UNL     1       4.609   5.130  17.438  0.00  0.00    +0.000 A 
ATOM     15  C   UNL     1       5.797   4.802  16.762  0.00  0.00    +0.000 A 
ENDBRANCH   1  13
BRANCH   4  16
ATOM     16  C   UNL     1       1.238   8.297  20.567  0.00  0.00    +0.000 A 
ATOM     17  C   UNL     1       0.584   8.571  21.777  0.00  0.00    +0.000 A 
ATOM     18  C   UNL     1      -0.265   9.688  21.879  0.00  0.00    +0.000 A 
ATOM     19  C   UNL     1      -0.458  10.532  20.783  0.00  0.00    +0.000 A 
ATOM     20  C   UNL     1       0.272  10.314  19.620  0.00  0.00    +0.000 A 
ATOM     21  C   UNL     1       1.109   9.212  19.513  0.00  0.00    +0.000 A 
ATOM     22  O   UNL     1       0.187  11.132  18.528  0.00  0.00    +0.000 OA
ATOM     23  C   UNL     1      -1.150  11.607  18.414  0.00  0.00    +0.000 C 
ATOM     24  C   UNL     1      -1.629  12.268  19.701  0.00  0.00    +0.000 C 
ATOM     25  O   UNL     1      -1.402  11.511  20.899  0.00  0.00    +0.000 OA
ENDBRANCH   4  16
TORSDOF 2
ENDMDL
MODEL 9
REMARK VINA RESULT:      -8.3      3.682      5.358
REMARK  Name = 
REMARK  3 active torsions:
REMARK  status: ('A' for Active; 'I' for Inactive)
REMARK    1  A    between atoms: C_1  and  C_2
REMARK    2  A    between atoms: C_8  and  C_9
REMARK    3  A    between atoms: C_12  and  C_13
REMARK                            x       y       z     vdW  Elec       q    Type
REMARK                         _______ _______ _______ _____ _____    ______ ____
ROOT
ATOM      1  C   UNL     1       2.621   7.534  18.319  0.00  0.00    +0.000 A 
ATOM      2  N   UNL     1       2.962   8.363  17.355  0.00  0.00    +0.000 NA
ATOM      3  N   UNL     1       2.149   9.454  17.471  0.00  0.00    +0.000 NA
ATOM      4  C   UNL     1       1.347   9.225  18.492  0.00  0.00    +0.000 A 
ATOM      5  O   UNL     1       1.571   8.005  19.081  0.00  0.00    +0.000 OA
ENDROOT
BRANCH   1  13
ATOM      6  C   UNL     1       1.803   2.790  21.575  0.00  0.00    +0.000 C 
ATOM      7  C   UNL     1       2.972   3.058  20.704  0.00  0.00    +0.000 A 
ATOM      8  N   UNL     1       3.941   2.142  20.581  0.00  0.00    +0.000 NA
ATOM      9  O   UNL     1       4.859   2.681  19.690  0.00  0.00    +0.000 OA
ATOM     10  C   UNL     1       4.437   3.912  19.281  0.00  0.00    +0.000 A 
ATOM     11  N   UNL     1       5.103   4.688  18.403  0.00  0.00    +0.000 NA
ATOM     12  C   UNL     1       4.460   5.854  18.136  0.00  0.00    +0.000 A 
ATOM     13  C   UNL     1       3.258   6.281  18.685  0.00  0.00    +0.000 A 
ATOM     14  C   UNL     1       2.626   5.432  19.613  0.00  0.00    +0.000 A 
ATOM     15  C   UNL     1       3.235   4.199  19.905  0.00  0.00    +0.000 A 
ENDBRANCH   1  13
BRANCH   4  16
ATOM     16  C   UNL     1       0.355  10.130  19.050  0.00  0.00    +0.000 A 
ATOM     17  C   UNL     1      -0.841  10.484  18.409  0.00  0.00    +0.000 A 
ATOM     18  C   UNL     1      -1.638  11.520  18.928  0.00  0.00    +0.000 A 
ATOM     19  C   UNL     1      -1.248  12.199  20.086  0.00  0.00    +0.000 A 
ATOM     20  C   UNL     1      -0.117  11.775  20.774  0.00  0.00    +0.000 A 
ATOM     21  C   UNL     1       0.674  10.755  20.264  0.00  0.00    +0.000 A 
ATOM     22  O   UNL     1       0.293  12.346  21.946  0.00  0.00    +0.000 OA
ATOM     23  C   UNL     1       0.002  13.739  21.906  0.00  0.00    +0.000 C 
ATOM     24  C   UNL     1      -1.465  14.002  21.587  0.00  0.00    +0.000 C 
ATOM     25  O   UNL     1      -1.985  13.287  20.457  0.00  0.00    +0.000 OA
ENDBRANCH   4  16
TORSDOF 2
ENDMDL
