MODEL 1
REMARK VINA RESULT:      -9.9      0.000      0.000
REMARK  Name = 
REMARK  4 active torsions:
REMARK  status: ('A' for Active; 'I' for Inactive)
REMARK    1  A    between atoms: C_7  and  S_8
REMARK    2  A    between atoms: S_8  and  N_11
REMARK    3  A    between atoms: C_15  and  C_16
REMARK    4  A    between atoms: C_16  and  C_17
REMARK                            x       y       z     vdW  Elec       q    Type
REMARK                         _______ _______ _______ _____ _____    ______ ____
ROOT
ATOM      1  S   UNL     1       3.179   2.824  17.870  0.00  0.00    +0.000 S 
ATOM      2  O   UNL     1       1.968   3.087  17.121  0.00  0.00    +0.000 OA
ATOM      3  O   UNL     1       3.598   1.470  18.165  0.00  0.00    +0.000 OA
ENDROOT
BRANCH   1  10
ATOM      4  O   UNL     1       8.782   6.023  13.064  0.00  0.00    +0.000 OA
ATOM      5  C   UNL     1       7.896   5.402  13.636  0.00  0.00    +0.000 A 
ATOM      6  C   UNL     1       7.014   4.473  12.891  0.00  0.00    +0.000 A 
ATOM      7  C   UNL     1       6.005   3.829  13.497  0.00  0.00    +0.000 A 
ATOM      8  C   UNL     1       5.761   4.017  14.932  0.00  0.00    +0.000 A 
ATOM      9  C   UNL     1       4.691   3.400  15.599  0.00  0.00    +0.000 A 
ATOM     10  C   UNL     1       4.525   3.606  16.979  0.00  0.00    +0.000 A 
ATOM     11  C   UNL     1       5.465   4.351  17.700  0.00  0.00    +0.000 A 
ATOM     12  C   UNL     1       6.510   4.991  17.032  0.00  0.00    +0.000 A 
ATOM     13  C   UNL     1       6.644   4.837  15.654  0.00  0.00    +0.000 A 
ATOM     14  N   UNL     1       7.672   5.512  14.982  0.00  0.00    +0.000 N 
ATOM     15  H   UNL     1       8.288   6.141  15.479  0.00  0.00    +0.000 HD
ENDBRANCH   1  10
BRANCH   1  16
ATOM     16  N   UNL     1       3.084   3.666  19.344  0.00  0.00    +0.000 NA
ATOM     17  C   UNL     1       2.980   2.868  20.580  0.00  0.00    +0.000 C 
ATOM     18  C   UNL     1       1.564   3.108  21.057  0.00  0.00    +0.000 C 
ATOM     19  C   UNL     1       1.288   4.552  20.685  0.00  0.00    +0.000 C 
ATOM     20  C   UNL     1       2.182   4.861  19.470  0.00  0.00    +0.000 C 
BRANCH  20  21
ATOM     21  C   UNL     1       3.013   6.150  19.695  0.00  0.00    +0.000 C 
BRANCH  21  22
ATOM     22  C   UNL     1       2.263   7.438  19.388  0.00  0.00    +0.000 A 
ATOM     23  C   UNL     1       2.263   7.973  18.087  0.00  0.00    +0.000 A 
ATOM     24  C   UNL     1       1.623   9.186  17.811  0.00  0.00    +0.000 A 
ATOM     25  C   UNL     1       0.967   9.861  18.831  0.00  0.00    +0.000 A 
ATOM     26  F   UNL     1       0.368  11.031  18.573  0.00  0.00    +0.000 F 
ATOM     27  C   UNL     1       0.926   9.336  20.118  0.00  0.00    +0.000 A 
ATOM     28  C   UNL     1       1.570   8.126  20.397  0.00  0.00    +0.000 A 
ENDBRANCH  21  22
ENDBRANCH  20  21
ENDBRANCH   1  16
TORSDOF 4
ENDMDL
MODEL 2
REMARK VINA RESULT:      -9.4      3.484      6.919
REMARK  Name = 
REMARK  4 active torsions:
REMARK  status: ('A' for Active; 'I' for Inactive)
REMARK    1  A    between atoms: C_7  and  S_8
REMARK    2  A    between atoms: S_8  and  N_11
REMARK    3  A    between atoms: C_15  and  C_16
REMARK    4  A    between atoms: C_16  and  C_17
REMARK                            x       y       z     vdW  Elec       q    Type
REMARK                         _______ _______ _______ _____ _____    ______ ____
ROOT
ATOM      1  S   UNL     1       2.725   5.285  19.899  0.00  0.00    +0.000 S 
ATOM      2  O   UNL     1       4.095   5.355  20.362  0.00  0.00    +0.000 OA
ATOM      3  O   UNL     1       1.672   4.775  20.750  0.00  0.00    +0.000 OA
ENDROOT
BRANCH   1  10
ATOM      4  O   UNL     1       0.378  12.881  18.671  0.00  0.00    +0.000 OA
ATOM      5  C   UNL     1       0.607  11.733  19.025  0.00  0.00    +0.000 A 
ATOM      6  C   UNL     1       0.209  11.257  20.371  0.00  0.00    +0.000 A 
ATOM      7  C   UNL     1       0.503  10.016  20.790  0.00  0.00    +0.000 A 
ATOM      8  C   UNL     1       1.217   9.086  19.907  0.00  0.00    +0.000 A 
ATOM      9  C   UNL     1       1.586   7.795  20.318  0.00  0.00    +0.000 A 
ATOM     10  C   UNL     1       2.250   6.946  19.417  0.00  0.00    +0.000 A 
ATOM     11  C   UNL     1       2.469   7.351  18.095  0.00  0.00    +0.000 A 
ATOM     12  C   UNL     1       2.132   8.645  17.696  0.00  0.00    +0.000 A 
ATOM     13  C   UNL     1       1.526   9.510  18.604  0.00  0.00    +0.000 A 
ATOM     14  N   UNL     1       1.224  10.821  18.211  0.00  0.00    +0.000 N 
ATOM     15  H   UNL     1       1.480  11.156  17.292  0.00  0.00    +0.000 HD
ENDBRANCH   1  10
BRANCH   1  16
ATOM     16  N   UNL     1       2.701   4.388  18.454  0.00  0.00    +0.000 NA
ATOM     17  C   UNL     1       1.418   3.782  18.050  0.00  0.00    +0.000 C 
ATOM     18  C   UNL     1       1.631   2.297  18.248  0.00  0.00    +0.000 C 
ATOM     19  C   UNL     1       3.086   2.080  17.877  0.00  0.00    +0.000 C 
ATOM     20  C   UNL     1       3.805   3.413  18.157  0.00  0.00    +0.000 C 
BRANCH  20  21
ATOM     21  C   UNL     1       4.625   3.878  16.926  0.00  0.00    +0.000 C 
BRANCH  21  22
ATOM     22  C   UNL     1       5.663   4.947  17.237  0.00  0.00    +0.000 A 
ATOM     23  C   UNL     1       6.734   4.674  18.107  0.00  0.00    +0.000 A 
ATOM     24  C   UNL     1       7.658   5.669  18.440  0.00  0.00    +0.000 A 
ATOM     25  C   UNL     1       7.526   6.938  17.892  0.00  0.00    +0.000 A 
ATOM     26  F   UNL     1       8.399   7.897  18.223  0.00  0.00    +0.000 F 
ATOM     27  C   UNL     1       6.494   7.223  17.005  0.00  0.00    +0.000 A 
ATOM     28  C   UNL     1       5.565   6.229  16.674  0.00  0.00    +0.000 A 
ENDBRANCH  21  22
ENDBRANCH  20  21
ENDBRANCH   1  16
TORSDOF 4
ENDMDL
MODEL 3
REMARK VINA RESULT:      -9.0      0.921      1.372
REMARK  Name = 
REMARK  4 active torsions:
REMARK  status: ('A' for Active; 'I' for Inactive)
REMARK    1  A    between atoms: C_7  and  S_8
REMARK    2  A    between atoms: S_8  and  N_11
REMARK    3  A    between atoms: C_15  and  C_16
REMARK    4  A    between atoms: C_16  and  C_17
REMARK                            x       y       z     vdW  Elec       q    Type
REMARK                         _______ _______ _______ _____ _____    ______ ____
ROOT
ATOM      1  S   UNL     1       4.123   3.040  18.980  0.00  0.00    +0.000 S 
ATOM      2  O   UNL     1       3.124   2.252  18.289  0.00  0.00    +0.000 OA
ATOM      3  O   UNL     1       4.984   2.446  19.980  0.00  0.00    +0.000 OA
ENDROOT
BRANCH   1  10
ATOM      4  O   UNL     1       8.293   5.845  12.698  0.00  0.00    +0.000 OA
ATOM      5  C   UNL     1       7.590   5.271  13.519  0.00  0.00    +0.000 A 
ATOM      6  C   UNL     1       6.573   4.281  13.092  0.00  0.00    +0.000 A 
ATOM      7  C   UNL     1       5.759   3.687  13.978  0.00  0.00    +0.000 A 
ATOM      8  C   UNL     1       5.873   3.993  15.409  0.00  0.00    +0.000 A 
ATOM      9  C   UNL     1       5.014   3.430  16.367  0.00  0.00    +0.000 A 
ATOM     10  C   UNL     1       5.189   3.749  17.725  0.00  0.00    +0.000 A 
ATOM     11  C   UNL     1       6.260   4.554  18.129  0.00  0.00    +0.000 A 
ATOM     12  C   UNL     1       7.093   5.139  17.175  0.00  0.00    +0.000 A 
ATOM     13  C   UNL     1       6.887   4.872  15.823  0.00  0.00    +0.000 A 
ATOM     14  N   UNL     1       7.702   5.492  14.866  0.00  0.00    +0.000 N 
ATOM     15  H   UNL     1       8.406   6.161  15.144  0.00  0.00    +0.000 HD
ENDBRANCH   1  10
BRANCH   1  16
ATOM     16  N   UNL     1       3.345   4.372  19.696  0.00  0.00    +0.000 NA
ATOM     17  C   UNL     1       2.629   4.143  20.964  0.00  0.00    +0.000 C 
ATOM     18  C   UNL     1       1.167   4.269  20.593  0.00  0.00    +0.000 C 
ATOM     19  C   UNL     1       1.148   5.351  19.530  0.00  0.00    +0.000 C 
ATOM     20  C   UNL     1       2.529   5.309  18.849  0.00  0.00    +0.000 C 
BRANCH  20  21
ATOM     21  C   UNL     1       3.181   6.715  18.812  0.00  0.00    +0.000 C 
BRANCH  21  22
ATOM     22  C   UNL     1       2.201   7.862  19.004  0.00  0.00    +0.000 A 
ATOM     23  C   UNL     1       1.733   8.198  20.288  0.00  0.00    +0.000 A 
ATOM     24  C   UNL     1       0.789   9.214  20.464  0.00  0.00    +0.000 A 
ATOM     25  C   UNL     1       0.319   9.911  19.360  0.00  0.00    +0.000 A 
ATOM     26  F   UNL     1      -0.599  10.873  19.523  0.00  0.00    +0.000 F 
ATOM     27  C   UNL     1       0.789   9.619  18.084  0.00  0.00    +0.000 A 
ATOM     28  C   UNL     1       1.731   8.599  17.905  0.00  0.00    +0.000 A 
ENDBRANCH  21  22
ENDBRANCH  20  21
ENDBRANCH   1  16
TORSDOF 4
ENDMDL
MODEL 4
REMARK VINA RESULT:      -8.6      3.410      6.687
REMARK  Name = 
REMARK  4 active torsions:
REMARK  status: ('A' for Active; 'I' for Inactive)
REMARK    1  A    between atoms: C_7  and  S_8
REMARK    2  A    between atoms: S_8  and  N_11
REMARK    3  A    between atoms: C_15  and  C_16
REMARK    4  A    between atoms: C_16  and  C_17
REMARK                            x       y       z     vdW  Elec       q    Type
REMARK                         _______ _______ _______ _____ _____    ______ ____
ROOT
ATOM      1  S   UNL     1       3.018   4.952  20.086  0.00  0.00    +0.000 S 
ATOM      2  O   UNL     1       4.448   5.174  20.115  0.00  0.00    +0.000 OA
ATOM      3  O   UNL     1       2.356   4.194  21.126  0.00  0.00    +0.000 OA
ENDROOT
BRANCH   1  10
ATOM      4  O   UNL     1      -0.159  12.259  18.969  0.00  0.00    +0.000 OA
ATOM      5  C   UNL     1       0.459  11.203  18.986  0.00  0.00    +0.000 A 
ATOM      6  C   UNL     1       1.392  10.848  17.891  0.00  0.00    +0.000 A 
ATOM      7  C   UNL     1       2.033   9.669  17.872  0.00  0.00    +0.000 A 
ATOM      8  C   UNL     1       1.838   8.702  18.959  0.00  0.00    +0.000 A 
ATOM      9  C   UNL     1       2.452   7.439  18.960  0.00  0.00    +0.000 A 
ATOM     10  C   UNL     1       2.239   6.568  20.041  0.00  0.00    +0.000 A 
ATOM     11  C   UNL     1       1.491   6.984  21.148  0.00  0.00    +0.000 A 
ATOM     12  C   UNL     1       0.854   8.226  21.133  0.00  0.00    +0.000 A 
ATOM     13  C   UNL     1       1.015   9.069  20.036  0.00  0.00    +0.000 A 
ATOM     14  N   UNL     1       0.343  10.300  20.008  0.00  0.00    +0.000 N 
ATOM     15  H   UNL     1      -0.288  10.559  20.754  0.00  0.00    +0.000 HD
ENDBRANCH   1  10
BRANCH   1  16
ATOM     16  N   UNL     1       2.622   4.236  18.595  0.00  0.00    +0.000 NA
ATOM     17  C   UNL     1       1.223   3.821  18.388  0.00  0.00    +0.000 C 
ATOM     18  C   UNL     1       1.280   2.309  18.402  0.00  0.00    +0.000 C 
ATOM     19  C   UNL     1       2.605   1.983  17.741  0.00  0.00    +0.000 C 
ATOM     20  C   UNL     1       3.524   3.191  18.002  0.00  0.00    +0.000 C 
BRANCH  20  21
ATOM     21  C   UNL     1       4.163   3.706  16.686  0.00  0.00    +0.000 C 
BRANCH  21  22
ATOM     22  C   UNL     1       5.218   4.784  16.886  0.00  0.00    +0.000 A 
ATOM     23  C   UNL     1       6.506   4.450  17.346  0.00  0.00    +0.000 A 
ATOM     24  C   UNL     1       7.461   5.443  17.585  0.00  0.00    +0.000 A 
ATOM     25  C   UNL     1       7.140   6.772  17.351  0.00  0.00    +0.000 A 
ATOM     26  F   UNL     1       8.047   7.726  17.596  0.00  0.00    +0.000 F 
ATOM     27  C   UNL     1       5.885   7.125  16.867  0.00  0.00    +0.000 A 
ATOM     28  C   UNL     1       4.926   6.133  16.631  0.00  0.00    +0.000 A 
ENDBRANCH  21  22
ENDBRANCH  20  21
ENDBRANCH   1  16
TORSDOF 4
ENDMDL
MODEL 5
REMARK VINA RESULT:      -8.6      1.111      1.443
REMARK  Name = 
REMARK  4 active torsions:
REMARK  status: ('A' for Active; 'I' for Inactive)
REMARK    1  A    between atoms: C_7  and  S_8
REMARK    2  A    between atoms: S_8  and  N_11
REMARK    3  A    between atoms: C_15  and  C_16
REMARK    4  A    between atoms: C_16  and  C_17
REMARK                            x       y       z     vdW  Elec       q    Type
REMARK                         _______ _______ _______ _____ _____    ______ ____
ROOT
ATOM      1  S   UNL     1       4.206   2.885  19.122  0.00  0.00    +0.000 S 
ATOM      2  O   UNL     1       3.788   1.600  18.601  0.00  0.00    +0.000 OA
ATOM      3  O   UNL     1       4.921   2.989  20.375  0.00  0.00    +0.000 OA
ENDROOT
BRANCH   1  10
ATOM      4  O   UNL     1       8.209   5.931  12.843  0.00  0.00    +0.000 OA
ATOM      5  C   UNL     1       7.532   5.323  13.661  0.00  0.00    +0.000 A 
ATOM      6  C   UNL     1       6.529   4.323  13.226  0.00  0.00    +0.000 A 
ATOM      7  C   UNL     1       5.743   3.689  14.110  0.00  0.00    +0.000 A 
ATOM      8  C   UNL     1       5.874   3.963  15.547  0.00  0.00    +0.000 A 
ATOM      9  C   UNL     1       5.044   3.358  16.505  0.00  0.00    +0.000 A 
ATOM     10  C   UNL     1       5.236   3.648  17.866  0.00  0.00    +0.000 A 
ATOM     11  C   UNL     1       6.297   4.465  18.273  0.00  0.00    +0.000 A 
ATOM     12  C   UNL     1       7.101   5.091  17.320  0.00  0.00    +0.000 A 
ATOM     13  C   UNL     1       6.877   4.853  15.966  0.00  0.00    +0.000 A 
ATOM     14  N   UNL     1       7.662   5.513  15.010  0.00  0.00    +0.000 N 
ATOM     15  H   UNL     1       8.358   6.190  15.293  0.00  0.00    +0.000 HD
ENDBRANCH   1  10
BRANCH   1  16
ATOM     16  N   UNL     1       2.834   3.885  19.227  0.00  0.00    +0.000 NA
ATOM     17  C   UNL     1       1.536   3.305  18.835  0.00  0.00    +0.000 C 
ATOM     18  C   UNL     1       1.191   4.008  17.541  0.00  0.00    +0.000 C 
ATOM     19  C   UNL     1       1.724   5.415  17.731  0.00  0.00    +0.000 C 
ATOM     20  C   UNL     1       2.895   5.300  18.724  0.00  0.00    +0.000 C 
BRANCH  20  21
ATOM     21  C   UNL     1       2.738   6.302  19.898  0.00  0.00    +0.000 C 
BRANCH  21  22
ATOM     22  C   UNL     1       2.194   7.662  19.488  0.00  0.00    +0.000 A 
ATOM     23  C   UNL     1       2.560   8.240  18.258  0.00  0.00    +0.000 A 
ATOM     24  C   UNL     1       2.107   9.514  17.902  0.00  0.00    +0.000 A 
ATOM     25  C   UNL     1       1.273  10.210  18.765  0.00  0.00    +0.000 A 
ATOM     26  F   UNL     1       0.852  11.438  18.435  0.00  0.00    +0.000 F 
ATOM     27  C   UNL     1       0.871   9.647  19.972  0.00  0.00    +0.000 A 
ATOM     28  C   UNL     1       1.327   8.374  20.332  0.00  0.00    +0.000 A 
ENDBRANCH  21  22
ENDBRANCH  20  21
ENDBRANCH   1  16
TORSDOF 4
ENDMDL
MODEL 6
REMARK VINA RESULT:      -8.5      3.583      7.213
REMARK  Name = 
REMARK  4 active torsions:
REMARK  status: ('A' for Active; 'I' for Inactive)
REMARK    1  A    between atoms: C_7  and  S_8
REMARK    2  A    between atoms: S_8  and  N_11
REMARK    3  A    between atoms: C_15  and  C_16
REMARK    4  A    between atoms: C_16  and  C_17
REMARK                            x       y       z     vdW  Elec       q    Type
REMARK                         _______ _______ _______ _____ _____    ______ ____
ROOT
ATOM      1  S   UNL     1       3.055   5.287  19.981  0.00  0.00    +0.000 S 
ATOM      2  O   UNL     1       4.501   5.334  19.916  0.00  0.00    +0.000 OA
ATOM      3  O   UNL     1       2.370   4.968  21.216  0.00  0.00    +0.000 OA
ENDROOT
BRANCH   1  10
ATOM      4  O   UNL     1       0.098  12.626  18.522  0.00  0.00    +0.000 OA
ATOM      5  C   UNL     1       0.412  11.507  18.906  0.00  0.00    +0.000 A 
ATOM      6  C   UNL     1      -0.001  11.016  20.241  0.00  0.00    +0.000 A 
ATOM      7  C   UNL     1       0.384   9.813  20.695  0.00  0.00    +0.000 A 
ATOM      8  C   UNL     1       1.216   8.938  19.859  0.00  0.00    +0.000 A 
ATOM      9  C   UNL     1       1.679   7.691  20.308  0.00  0.00    +0.000 A 
ATOM     10  C   UNL     1       2.456   6.893  19.450  0.00  0.00    +0.000 A 
ATOM     11  C   UNL     1       2.695   7.297  18.133  0.00  0.00    +0.000 A 
ATOM     12  C   UNL     1       2.262   8.550  17.697  0.00  0.00    +0.000 A 
ATOM     13  C   UNL     1       1.543   9.370  18.563  0.00  0.00    +0.000 A 
ATOM     14  N   UNL     1       1.143  10.644  18.135  0.00  0.00    +0.000 N 
ATOM     15  H   UNL     1       1.408  10.987  17.222  0.00  0.00    +0.000 HD
ENDBRANCH   1  10
BRANCH   1  16
ATOM     16  N   UNL     1       2.506   4.202  18.792  0.00  0.00    +0.000 NA
ATOM     17  C   UNL     1       1.396   3.301  19.152  0.00  0.00    +0.000 C 
ATOM     18  C   UNL     1       2.039   1.933  19.228  0.00  0.00    +0.000 C 
ATOM     19  C   UNL     1       3.090   1.958  18.135  0.00  0.00    +0.000 C 
ATOM     20  C   UNL     1       3.495   3.434  17.962  0.00  0.00    +0.000 C 
BRANCH  20  21
ATOM     21  C   UNL     1       3.413   3.869  16.476  0.00  0.00    +0.000 C 
BRANCH  21  22
ATOM     22  C   UNL     1       4.752   4.253  15.864  0.00  0.00    +0.000 A 
ATOM     23  C   UNL     1       5.632   5.113  16.547  0.00  0.00    +0.000 A 
ATOM     24  C   UNL     1       6.839   5.514  15.964  0.00  0.00    +0.000 A 
ATOM     25  C   UNL     1       7.179   5.045  14.703  0.00  0.00    +0.000 A 
ATOM     26  F   UNL     1       8.325   5.441  14.136  0.00  0.00    +0.000 F 
ATOM     27  C   UNL     1       6.341   4.169  14.022  0.00  0.00    +0.000 A 
ATOM     28  C   UNL     1       5.131   3.771  14.601  0.00  0.00    +0.000 A 
ENDBRANCH  21  22
ENDBRANCH  20  21
ENDBRANCH   1  16
TORSDOF 4
ENDMDL
MODEL 7
REMARK VINA RESULT:      -8.4      2.204      3.011
REMARK  Name = 
REMARK  4 active torsions:
REMARK  status: ('A' for Active; 'I' for Inactive)
REMARK    1  A    between atoms: C_7  and  S_8
REMARK    2  A    between atoms: S_8  and  N_11
REMARK    3  A    between atoms: C_15  and  C_16
REMARK    4  A    between atoms: C_16  and  C_17
REMARK                            x       y       z     vdW  Elec       q    Type
REMARK                         _______ _______ _______ _____ _____    ______ ____
ROOT
ATOM      1  S   UNL     1       4.116   2.277  19.225  0.00  0.00    +0.000 S 
ATOM      2  O   UNL     1       3.782   1.433  18.097  0.00  0.00    +0.000 OA
ATOM      3  O   UNL     1       4.966   1.798  20.294  0.00  0.00    +0.000 OA
ENDROOT
BRANCH   1  10
ATOM      4  O   UNL     1       8.292   8.752  16.909  0.00  0.00    +0.000 OA
ATOM      5  C   UNL     1       7.752   7.795  17.447  0.00  0.00    +0.000 A 
ATOM      6  C   UNL     1       8.253   7.264  18.737  0.00  0.00    +0.000 A 
ATOM      7  C   UNL     1       7.704   6.181  19.309  0.00  0.00    +0.000 A 
ATOM      8  C   UNL     1       6.569   5.503  18.672  0.00  0.00    +0.000 A 
ATOM      9  C   UNL     1       5.991   4.342  19.210  0.00  0.00    +0.000 A 
ATOM     10  C   UNL     1       4.892   3.753  18.562  0.00  0.00    +0.000 A 
ATOM     11  C   UNL     1       4.325   4.363  17.438  0.00  0.00    +0.000 A 
ATOM     12  C   UNL     1       4.918   5.498  16.884  0.00  0.00    +0.000 A 
ATOM     13  C   UNL     1       6.044   6.051  17.490  0.00  0.00    +0.000 A 
ATOM     14  N   UNL     1       6.660   7.169  16.910  0.00  0.00    +0.000 N 
ATOM     15  H   UNL     1       6.322   7.549  16.036  0.00  0.00    +0.000 HD
ENDBRANCH   1  10
BRANCH   1  16
ATOM     16  N   UNL     1       2.666   2.824  19.925  0.00  0.00    +0.000 NA
ATOM     17  C   UNL     1       1.580   1.842  20.097  0.00  0.00    +0.000 C 
ATOM     18  C   UNL     1       0.535   2.266  19.088  0.00  0.00    +0.000 C 
ATOM     19  C   UNL     1       0.622   3.779  19.078  0.00  0.00    +0.000 C 
ATOM     20  C   UNL     1       2.065   4.130  19.485  0.00  0.00    +0.000 C 
BRANCH  20  21
ATOM     21  C   UNL     1       2.089   5.158  20.645  0.00  0.00    +0.000 C 
BRANCH  21  22
ATOM     22  C   UNL     1       1.900   6.602  20.203  0.00  0.00    +0.000 A 
ATOM     23  C   UNL     1       1.271   7.534  21.049  0.00  0.00    +0.000 A 
ATOM     24  C   UNL     1       1.044   8.847  20.625  0.00  0.00    +0.000 A 
ATOM     25  C   UNL     1       1.458   9.240  19.360  0.00  0.00    +0.000 A 
ATOM     26  F   UNL     1       1.226  10.491  18.945  0.00  0.00    +0.000 F 
ATOM     27  C   UNL     1       2.110   8.345  18.517  0.00  0.00    +0.000 A 
ATOM     28  C   UNL     1       2.334   7.030  18.938  0.00  0.00    +0.000 A 
ENDBRANCH  21  22
ENDBRANCH  20  21
ENDBRANCH   1  16
TORSDOF 4
ENDMDL
MODEL 8
REMARK VINA RESULT:      -8.4      3.663      6.543
REMARK  Name = 
REMARK  4 active torsions:
REMARK  status: ('A' for Active; 'I' for Inactive)
REMARK    1  A    between atoms: C_7  and  S_8
REMARK    2  A    between atoms: S_8  and  N_11
REMARK    3  A    between atoms: C_15  and  C_16
REMARK    4  A    between atoms: C_16  and  C_17
REMARK                            x       y       z     vdW  Elec       q    Type
REMARK                         _______ _______ _______ _____ _____    ______ ____
ROOT
ATOM      1  S   UNL     1       2.348   4.613  20.319  0.00  0.00    +0.000 S 
ATOM      2  O   UNL     1       3.652   4.550  20.946  0.00  0.00    +0.000 OA
ATOM      3  O   UNL     1       1.204   3.943  20.901  0.00  0.00    +0.000 OA
ENDROOT
BRANCH   1  10
ATOM      4  O   UNL     1       0.742  12.341  18.762  0.00  0.00    +0.000 OA
ATOM      5  C   UNL     1       1.128  11.183  18.844  0.00  0.00    +0.000 A 
ATOM      6  C   UNL     1       1.958  10.579  17.775  0.00  0.00    +0.000 A 
ATOM      7  C   UNL     1       2.341   9.294  17.828  0.00  0.00    +0.000 A 
ATOM      8  C   UNL     1       1.959   8.454  18.969  0.00  0.00    +0.000 A 
ATOM      9  C   UNL     1       2.299   7.093  19.046  0.00  0.00    +0.000 A 
ATOM     10  C   UNL     1       1.920   6.349  20.177  0.00  0.00    +0.000 A 
ATOM     11  C   UNL     1       1.284   6.976  21.254  0.00  0.00    +0.000 A 
ATOM     12  C   UNL     1       0.918   8.319  21.164  0.00  0.00    +0.000 A 
ATOM     13  C   UNL     1       1.239   9.046  20.020  0.00  0.00    +0.000 A 
ATOM     14  N   UNL     1       0.836  10.384  19.917  0.00  0.00    +0.000 N 
ATOM     15  H   UNL     1       0.279  10.812  20.644  0.00  0.00    +0.000 HD
ENDBRANCH   1  10
BRANCH   1  16
ATOM     16  N   UNL     1       2.504   4.069  18.715  0.00  0.00    +0.000 NA
ATOM     17  C   UNL     1       1.444   3.190  18.188  0.00  0.00    +0.000 C 
ATOM     18  C   UNL     1       2.112   1.838  18.063  0.00  0.00    +0.000 C 
ATOM     19  C   UNL     1       3.536   2.166  17.657  0.00  0.00    +0.000 C 
ATOM     20  C   UNL     1       3.831   3.570  18.217  0.00  0.00    +0.000 C 
BRANCH  20  21
ATOM     21  C   UNL     1       4.388   4.510  17.117  0.00  0.00    +0.000 C 
BRANCH  21  22
ATOM     22  C   UNL     1       5.543   5.389  17.574  0.00  0.00    +0.000 A 
ATOM     23  C   UNL     1       5.770   6.642  16.976  0.00  0.00    +0.000 A 
ATOM     24  C   UNL     1       6.863   7.429  17.353  0.00  0.00    +0.000 A 
ATOM     25  C   UNL     1       7.725   6.975  18.341  0.00  0.00    +0.000 A 
ATOM     26  F   UNL     1       8.782   7.718  18.692  0.00  0.00    +0.000 F 
ATOM     27  C   UNL     1       7.503   5.754  18.970  0.00  0.00    +0.000 A 
ATOM     28  C   UNL     1       6.413   4.963  18.590  0.00  0.00    +0.000 A 
ENDBRANCH  21  22
ENDBRANCH  20  21
ENDBRANCH   1  16
TORSDOF 4
ENDMDL
MODEL 9
REMARK VINA RESULT:      -8.4      2.212      2.812
REMARK  Name = 
REMARK  4 active torsions:
REMARK  status: ('A' for Active; 'I' for Inactive)
REMARK    1  A    between atoms: C_7  and  S_8
REMARK    2  A    between atoms: S_8  and  N_11
REMARK    3  A    between atoms: C_15  and  C_16
REMARK    4  A    between atoms: C_16  and  C_17
REMARK                            x       y       z     vdW  Elec       q    Type
REMARK                         _______ _______ _______ _____ _____    ______ ____
ROOT
ATOM      1  S   UNL     1       4.004   2.568  19.054  0.00  0.00    +0.000 S 
ATOM      2  O   UNL     1       3.387   1.932  17.909  0.00  0.00    +0.000 OA
ATOM      3  O   UNL     1       4.955   1.859  19.883  0.00  0.00    +0.000 OA
ENDROOT
BRANCH   1  10
ATOM      4  O   UNL     1       8.414   8.972  16.990  0.00  0.00    +0.000 OA
ATOM      5  C   UNL     1       7.843   8.012  17.489  0.00  0.00    +0.000 A 
ATOM      6  C   UNL     1       8.341   7.395  18.741  0.00  0.00    +0.000 A 
ATOM      7  C   UNL     1       7.756   6.309  19.268  0.00  0.00    +0.000 A 
ATOM      8  C   UNL     1       6.582   5.712  18.619  0.00  0.00    +0.000 A 
ATOM      9  C   UNL     1       5.964   4.550  19.109  0.00  0.00    +0.000 A 
ATOM     10  C   UNL     1       4.831   4.041  18.452  0.00  0.00    +0.000 A 
ATOM     11  C   UNL     1       4.271   4.731  17.370  0.00  0.00    +0.000 A 
ATOM     12  C   UNL     1       4.904   5.867  16.864  0.00  0.00    +0.000 A 
ATOM     13  C   UNL     1       6.062   6.341  17.476  0.00  0.00    +0.000 A 
ATOM     14  N   UNL     1       6.715   7.460  16.942  0.00  0.00    +0.000 N 
ATOM     15  H   UNL     1       6.380   7.898  16.094  0.00  0.00    +0.000 HD
ENDBRANCH   1  10
BRANCH   1  16
ATOM     16  N   UNL     1       2.767   3.146  20.068  0.00  0.00    +0.000 NA
ATOM     17  C   UNL     1       1.811   2.161  20.607  0.00  0.00    +0.000 C 
ATOM     18  C   UNL     1       0.518   2.465  19.882  0.00  0.00    +0.000 C 
ATOM     19  C   UNL     1       0.529   3.972  19.722  0.00  0.00    +0.000 C 
ATOM     20  C   UNL     1       2.011   4.391  19.697  0.00  0.00    +0.000 C 
BRANCH  20  21
ATOM     21  C   UNL     1       2.294   5.524  20.717  0.00  0.00    +0.000 C 
BRANCH  21  22
ATOM     22  C   UNL     1       1.917   6.913  20.226  0.00  0.00    +0.000 A 
ATOM     23  C   UNL     1       2.309   7.352  18.948  0.00  0.00    +0.000 A 
ATOM     24  C   UNL     1       2.014   8.649  18.514  0.00  0.00    +0.000 A 
ATOM     25  C   UNL     1       1.312   9.507  19.348  0.00  0.00    +0.000 A 
ATOM     26  F   UNL     1       1.044  10.754  18.942  0.00  0.00    +0.000 F 
ATOM     27  C   UNL     1       0.886   9.086  20.603  0.00  0.00    +0.000 A 
ATOM     28  C   UNL     1       1.185   7.791  21.041  0.00  0.00    +0.000 A 
ENDBRANCH  21  22
ENDBRANCH  20  21
ENDBRANCH   1  16
TORSDOF 4
ENDMDL
