MODEL 1
REMARK VINA RESULT:      -9.8      0.000      0.000
REMARK  Name = 
REMARK  3 active torsions:
REMARK  status: ('A' for Active; 'I' for Inactive)
REMARK    1  A    between atoms: C_5  and  C_6
REMARK    2  A    between atoms: C_9  and  C_10
REMARK    3  A    between atoms: C_10  and  N_11
REMARK                            x       y       z     vdW  Elec       q    Type
REMARK                         _______ _______ _______ _____ _____    ______ ____
ROOT
ATOM      1  C   UNL     1       7.381   5.738  18.391  0.00  0.00    +0.000 C 
ENDROOT
BRANCH   1   2
ATOM      2  N   UNL     1       6.123   5.381  17.702  0.00  0.00    +0.000 NA
ATOM      3  C   UNL     1       5.136   6.465  17.719  0.00  0.00    +0.000 C 
ATOM      4  C   UNL     1       3.790   5.792  17.496  0.00  0.00    +0.000 C 
ATOM      5  C   UNL     1       3.960   4.373  18.034  0.00  0.00    +0.000 C 
ATOM      6  C   UNL     1       5.461   4.236  18.360  0.00  0.00    +0.000 C 
ATOM      7  O   UNL     1       3.590   3.436  16.986  0.00  0.00    +0.000 OA
ATOM      8  C   UNL     1       2.611   2.494  17.470  0.00  0.00    +0.000 C 
ATOM      9  C   UNL     1       2.294   2.932  18.850  0.00  0.00    +0.000 A 
ATOM     10  C   UNL     1       1.387   2.389  19.747  0.00  0.00    +0.000 A 
ATOM     11  C   UNL     1       1.258   2.985  21.002  0.00  0.00    +0.000 A 
ATOM     12  C   UNL     1       2.034   4.102  21.341  0.00  0.00    +0.000 A 
ATOM     13  C   UNL     1       2.946   4.636  20.428  0.00  0.00    +0.000 A 
ATOM     14  C   UNL     1       3.068   4.033  19.182  0.00  0.00    +0.000 A 
ENDBRANCH   1   2
BRANCH   1  18
ATOM     15  C   UNL     1       8.556   9.117  18.306  0.00  0.00    +0.000 A 
ATOM     16  N   UNL     1       7.879   9.100  17.147  0.00  0.00    +0.000 NA
ATOM     17  O   UNL     1       7.361   7.804  17.084  0.00  0.00    +0.000 OA
ATOM     18  C   UNL     1       7.784   7.166  18.212  0.00  0.00    +0.000 A 
ATOM     19  N   UNL     1       8.547   7.916  18.975  0.00  0.00    +0.000 NA
BRANCH  15  24
ATOM     20  F   UNL     1      11.246  13.605  20.293  0.00  0.00    +0.000 F 
ATOM     21  C   UNL     1      10.611  12.524  19.821  0.00  0.00    +0.000 A 
ATOM     22  C   UNL     1       9.985  11.657  20.709  0.00  0.00    +0.000 A 
ATOM     23  C   UNL     1       9.313  10.531  20.219  0.00  0.00    +0.000 A 
ATOM     24  C   UNL     1       9.265  10.275  18.839  0.00  0.00    +0.000 A 
ATOM     25  C   UNL     1       9.913  11.158  17.960  0.00  0.00    +0.000 A 
ATOM     26  C   UNL     1      10.577  12.275  18.456  0.00  0.00    +0.000 A 
ATOM     27  F   UNL     1      11.183  13.109  17.600  0.00  0.00    +0.000 F 
ENDBRANCH  15  24
ENDBRANCH   1  18
TORSDOF 3
ENDMDL
MODEL 2
REMARK VINA RESULT:      -9.6      0.550      1.302
REMARK  Name = 
REMARK  3 active torsions:
REMARK  status: ('A' for Active; 'I' for Inactive)
REMARK    1  A    between atoms: C_5  and  C_6
REMARK    2  A    between atoms: C_9  and  C_10
REMARK    3  A    between atoms: C_10  and  N_11
REMARK                            x       y       z     vdW  Elec       q    Type
REMARK                         _______ _______ _______ _____ _____    ______ ____
ROOT
ATOM      1  C   UNL     1       7.383   5.803  18.429  0.00  0.00    +0.000 C 
ENDROOT
BRANCH   1   2
ATOM      2  N   UNL     1       6.132   5.452  17.725  0.00  0.00    +0.000 NA
ATOM      3  C   UNL     1       5.143   6.534  17.745  0.00  0.00    +0.000 C 
ATOM      4  C   UNL     1       3.800   5.862  17.504  0.00  0.00    +0.000 C 
ATOM      5  C   UNL     1       3.967   4.437  18.028  0.00  0.00    +0.000 C 
ATOM      6  C   UNL     1       5.466   4.299  18.365  0.00  0.00    +0.000 C 
ATOM      7  O   UNL     1       3.607   3.511  16.967  0.00  0.00    +0.000 OA
ATOM      8  C   UNL     1       2.625   2.563  17.433  0.00  0.00    +0.000 C 
ATOM      9  C   UNL     1       2.297   2.986  18.815  0.00  0.00    +0.000 A 
ATOM     10  C   UNL     1       1.383   2.432  19.698  0.00  0.00    +0.000 A 
ATOM     11  C   UNL     1       1.243   3.015  20.958  0.00  0.00    +0.000 A 
ATOM     12  C   UNL     1       2.014   4.129  21.315  0.00  0.00    +0.000 A 
ATOM     13  C   UNL     1       2.933   4.673  20.416  0.00  0.00    +0.000 A 
ATOM     14  C   UNL     1       3.066   4.084  19.165  0.00  0.00    +0.000 A 
ENDBRANCH   1   2
BRANCH   1  18
ATOM     15  C   UNL     1       8.612   9.161  18.299  0.00  0.00    +0.000 A 
ATOM     16  N   UNL     1       7.954   9.132  17.129  0.00  0.00    +0.000 NA
ATOM     17  O   UNL     1       7.418   7.843  17.082  0.00  0.00    +0.000 OA
ATOM     18  C   UNL     1       7.812   7.221  18.229  0.00  0.00    +0.000 A 
ATOM     19  N   UNL     1       8.573   7.974  18.991  0.00  0.00    +0.000 NA
BRANCH  15  24
ATOM     20  F   UNL     1      11.383  13.562  20.368  0.00  0.00    +0.000 F 
ATOM     21  C   UNL     1      10.712  12.516  19.869  0.00  0.00    +0.000 A 
ATOM     22  C   UNL     1      10.817  12.220  18.514  0.00  0.00    +0.000 A 
ATOM     23  C   UNL     1      10.124  11.124  17.990  0.00  0.00    +0.000 A 
ATOM     24  C   UNL     1       9.329  10.319  18.822  0.00  0.00    +0.000 A 
ATOM     25  C   UNL     1       9.228  10.642  20.185  0.00  0.00    +0.000 A 
ATOM     26  C   UNL     1       9.921  11.733  20.698  0.00  0.00    +0.000 A 
ATOM     27  F   UNL     1       9.817  12.020  22.003  0.00  0.00    +0.000 F 
ENDBRANCH  15  24
ENDBRANCH   1  18
TORSDOF 3
ENDMDL
MODEL 3
REMARK VINA RESULT:      -9.4      1.322      2.032
REMARK  Name = 
REMARK  3 active torsions:
REMARK  status: ('A' for Active; 'I' for Inactive)
REMARK    1  A    between atoms: C_5  and  C_6
REMARK    2  A    between atoms: C_9  and  C_10
REMARK    3  A    between atoms: C_10  and  N_11
REMARK                            x       y       z     vdW  Elec       q    Type
REMARK                         _______ _______ _______ _____ _____    ______ ____
ROOT
ATOM      1  C   UNL     1       5.760   6.767  16.834  0.00  0.00    +0.000 C 
ENDROOT
BRANCH   1   2
ATOM      2  N   UNL     1       5.664   5.334  17.182  0.00  0.00    +0.000 NA
ATOM      3  C   UNL     1       4.757   4.592  16.301  0.00  0.00    +0.000 C 
ATOM      4  C   UNL     1       4.351   3.354  17.085  0.00  0.00    +0.000 C 
ATOM      5  C   UNL     1       4.467   3.757  18.555  0.00  0.00    +0.000 C 
ATOM      6  C   UNL     1       5.127   5.150  18.545  0.00  0.00    +0.000 C 
ATOM      7  O   UNL     1       5.330   2.800  19.227  0.00  0.00    +0.000 OA
ATOM      8  C   UNL     1       4.681   2.267  20.399  0.00  0.00    +0.000 C 
ATOM      9  C   UNL     1       3.319   2.851  20.392  0.00  0.00    +0.000 A 
ATOM     10  C   UNL     1       2.277   2.636  21.282  0.00  0.00    +0.000 A 
ATOM     11  C   UNL     1       1.071   3.302  21.063  0.00  0.00    +0.000 A 
ATOM     12  C   UNL     1       0.926   4.168  19.971  0.00  0.00    +0.000 A 
ATOM     13  C   UNL     1       1.985   4.377  19.086  0.00  0.00    +0.000 A 
ATOM     14  C   UNL     1       3.182   3.711  19.315  0.00  0.00    +0.000 A 
ENDBRANCH   1   2
BRANCH   1  18
ATOM     15  C   UNL     1       8.286   8.821  18.317  0.00  0.00    +0.000 A 
ATOM     16  N   UNL     1       8.661   7.632  18.817  0.00  0.00    +0.000 NA
ATOM     17  O   UNL     1       7.728   6.740  18.283  0.00  0.00    +0.000 OA
ATOM     18  C   UNL     1       6.879   7.482  17.517  0.00  0.00    +0.000 A 
ATOM     19  N   UNL     1       7.158   8.767  17.533  0.00  0.00    +0.000 NA
BRANCH  15  24
ATOM     20  F   UNL     1      10.974  13.626  19.326  0.00  0.00    +0.000 F 
ATOM     21  C   UNL     1      10.321  12.481  19.085  0.00  0.00    +0.000 A 
ATOM     22  C   UNL     1       9.880  12.205  17.795  0.00  0.00    +0.000 A 
ATOM     23  C   UNL     1       9.204  11.007  17.537  0.00  0.00    +0.000 A 
ATOM     24  C   UNL     1       8.973  10.083  18.568  0.00  0.00    +0.000 A 
ATOM     25  C   UNL     1       9.418  10.386  19.865  0.00  0.00    +0.000 A 
ATOM     26  C   UNL     1      10.089  11.579  20.113  0.00  0.00    +0.000 A 
ATOM     27  F   UNL     1      10.511  11.846  21.356  0.00  0.00    +0.000 F 
ENDBRANCH  15  24
ENDBRANCH   1  18
TORSDOF 3
ENDMDL
MODEL 4
REMARK VINA RESULT:      -9.4      1.814      2.855
REMARK  Name = 
REMARK  3 active torsions:
REMARK  status: ('A' for Active; 'I' for Inactive)
REMARK    1  A    between atoms: C_5  and  C_6
REMARK    2  A    between atoms: C_9  and  C_10
REMARK    3  A    between atoms: C_10  and  N_11
REMARK                            x       y       z     vdW  Elec       q    Type
REMARK                         _______ _______ _______ _____ _____    ______ ____
ROOT
ATOM      1  C   UNL     1       7.520   4.917  18.160  0.00  0.00    +0.000 C 
ENDROOT
BRANCH   1   2
ATOM      2  N   UNL     1       6.166   4.432  18.500  0.00  0.00    +0.000 NA
ATOM      3  C   UNL     1       5.329   4.201  17.319  0.00  0.00    +0.000 C 
ATOM      4  C   UNL     1       3.894   4.256  17.819  0.00  0.00    +0.000 C 
ATOM      5  C   UNL     1       3.936   5.161  19.050  0.00  0.00    +0.000 C 
ATOM      6  C   UNL     1       5.433   5.423  19.314  0.00  0.00    +0.000 C 
ATOM      7  O   UNL     1       3.350   4.442  20.169  0.00  0.00    +0.000 OA
ATOM      8  C   UNL     1       2.313   5.228  20.790  0.00  0.00    +0.000 C 
ATOM      9  C   UNL     1       2.190   6.446  19.954  0.00  0.00    +0.000 A 
ATOM     10  C   UNL     1       1.315   7.512  20.094  0.00  0.00    +0.000 A 
ATOM     11  C   UNL     1       1.385   8.554  19.169  0.00  0.00    +0.000 A 
ATOM     12  C   UNL     1       2.324   8.518  18.130  0.00  0.00    +0.000 A 
ATOM     13  C   UNL     1       3.202   7.440  18.003  0.00  0.00    +0.000 A 
ATOM     14  C   UNL     1       3.125   6.409  18.931  0.00  0.00    +0.000 A 
ENDBRANCH   1   2
BRANCH   1  18
ATOM     15  C   UNL     1       7.961   8.457  17.882  0.00  0.00    +0.000 A 
ATOM     16  N   UNL     1       7.112   8.269  16.859  0.00  0.00    +0.000 NA
ATOM     17  O   UNL     1       6.862   6.895  16.883  0.00  0.00    +0.000 OA
ATOM     18  C   UNL     1       7.592   6.390  17.918  0.00  0.00    +0.000 A 
ATOM     19  N   UNL     1       8.308   7.300  18.538  0.00  0.00    +0.000 NA
BRANCH  15  24
ATOM     20  F   UNL     1      10.107  13.380  19.459  0.00  0.00    +0.000 F 
ATOM     21  C   UNL     1       9.583  12.205  19.085  0.00  0.00    +0.000 A 
ATOM     22  C   UNL     1       8.875  12.122  17.891  0.00  0.00    +0.000 A 
ATOM     23  C   UNL     1       8.334  10.895  17.492  0.00  0.00    +0.000 A 
ATOM     24  C   UNL     1       8.503   9.749  18.287  0.00  0.00    +0.000 A 
ATOM     25  C   UNL     1       9.212   9.858  19.494  0.00  0.00    +0.000 A 
ATOM     26  C   UNL     1       9.748  11.081  19.882  0.00  0.00    +0.000 A 
ATOM     27  F   UNL     1      10.427  11.162  21.034  0.00  0.00    +0.000 F 
ENDBRANCH  15  24
ENDBRANCH   1  18
TORSDOF 3
ENDMDL
MODEL 5
REMARK VINA RESULT:      -9.3      1.349      1.724
REMARK  Name = 
REMARK  3 active torsions:
REMARK  status: ('A' for Active; 'I' for Inactive)
REMARK    1  A    between atoms: C_5  and  C_6
REMARK    2  A    between atoms: C_9  and  C_10
REMARK    3  A    between atoms: C_10  and  N_11
REMARK                            x       y       z     vdW  Elec       q    Type
REMARK                         _______ _______ _______ _____ _____    ______ ____
ROOT
ATOM      1  C   UNL     1       5.916   6.605  16.634  0.00  0.00    +0.000 C 
ENDROOT
BRANCH   1   2
ATOM      2  N   UNL     1       5.765   5.191  17.038  0.00  0.00    +0.000 NA
ATOM      3  C   UNL     1       4.832   4.450  16.184  0.00  0.00    +0.000 C 
ATOM      4  C   UNL     1       4.378   3.260  17.015  0.00  0.00    +0.000 C 
ATOM      5  C   UNL     1       4.505   3.716  18.467  0.00  0.00    +0.000 C 
ATOM      6  C   UNL     1       5.218   5.083  18.405  0.00  0.00    +0.000 C 
ATOM      7  O   UNL     1       5.330   2.755  19.180  0.00  0.00    +0.000 OA
ATOM      8  C   UNL     1       4.658   2.294  20.370  0.00  0.00    +0.000 C 
ATOM      9  C   UNL     1       3.319   2.928  20.335  0.00  0.00    +0.000 A 
ATOM     10  C   UNL     1       2.268   2.789  21.228  0.00  0.00    +0.000 A 
ATOM     11  C   UNL     1       1.088   3.490  20.979  0.00  0.00    +0.000 A 
ATOM     12  C   UNL     1       0.979   4.318  19.853  0.00  0.00    +0.000 A 
ATOM     13  C   UNL     1       2.047   4.451  18.964  0.00  0.00    +0.000 A 
ATOM     14  C   UNL     1       3.218   3.749  19.224  0.00  0.00    +0.000 A 
ENDBRANCH   1   2
BRANCH   1  18
ATOM     15  C   UNL     1       8.243   8.727  18.331  0.00  0.00    +0.000 A 
ATOM     16  N   UNL     1       8.571   7.557  18.901  0.00  0.00    +0.000 NA
ATOM     17  O   UNL     1       7.711   6.639  18.292  0.00  0.00    +0.000 OA
ATOM     18  C   UNL     1       6.946   7.351  17.417  0.00  0.00    +0.000 A 
ATOM     19  N   UNL     1       7.210   8.639  17.429  0.00  0.00    +0.000 NA
BRANCH  15  24
ATOM     20  F   UNL     1      10.652  13.662  19.415  0.00  0.00    +0.000 F 
ATOM     21  C   UNL     1      10.086  12.477  19.153  0.00  0.00    +0.000 A 
ATOM     22  C   UNL     1      10.150  11.464  20.104  0.00  0.00    +0.000 A 
ATOM     23  C   UNL     1       9.552  10.227  19.838  0.00  0.00    +0.000 A 
ATOM     24  C   UNL     1       8.887  10.004  18.622  0.00  0.00    +0.000 A 
ATOM     25  C   UNL     1       8.844  11.037  17.671  0.00  0.00    +0.000 A 
ATOM     26  C   UNL     1       9.439  12.263  17.944  0.00  0.00    +0.000 A 
ATOM     27  F   UNL     1       9.380  13.238  17.027  0.00  0.00    +0.000 F 
ENDBRANCH  15  24
ENDBRANCH   1  18
TORSDOF 3
ENDMDL
MODEL 6
REMARK VINA RESULT:      -9.1      1.783      2.747
REMARK  Name = 
REMARK  3 active torsions:
REMARK  status: ('A' for Active; 'I' for Inactive)
REMARK    1  A    between atoms: C_5  and  C_6
REMARK    2  A    between atoms: C_9  and  C_10
REMARK    3  A    between atoms: C_10  and  N_11
REMARK                            x       y       z     vdW  Elec       q    Type
REMARK                         _______ _______ _______ _____ _____    ______ ____
ROOT
ATOM      1  C   UNL     1       7.401   5.108  17.864  0.00  0.00    +0.000 C 
ENDROOT
BRANCH   1   2
ATOM      2  N   UNL     1       6.051   4.700  18.304  0.00  0.00    +0.000 NA
ATOM      3  C   UNL     1       5.148   4.415  17.185  0.00  0.00    +0.000 C 
ATOM      4  C   UNL     1       3.743   4.560  17.749  0.00  0.00    +0.000 C 
ATOM      5  C   UNL     1       3.878   5.551  18.904  0.00  0.00    +0.000 C 
ATOM      6  C   UNL     1       5.394   5.775  19.075  0.00  0.00    +0.000 C 
ATOM      7  O   UNL     1       3.325   4.939  20.101  0.00  0.00    +0.000 OA
ATOM      8  C   UNL     1       2.348   5.807  20.710  0.00  0.00    +0.000 C 
ATOM      9  C   UNL     1       2.224   6.963  19.791  0.00  0.00    +0.000 A 
ATOM     10  C   UNL     1       1.393   8.068  19.892  0.00  0.00    +0.000 A 
ATOM     11  C   UNL     1       1.451   9.036  18.888  0.00  0.00    +0.000 A 
ATOM     12  C   UNL     1       2.335   8.888  17.811  0.00  0.00    +0.000 A 
ATOM     13  C   UNL     1       3.169   7.772  17.724  0.00  0.00    +0.000 A 
ATOM     14  C   UNL     1       3.104   6.816  18.730  0.00  0.00    +0.000 A 
ENDBRANCH   1   2
BRANCH   1  18
ATOM     15  C   UNL     1       8.181   8.591  18.115  0.00  0.00    +0.000 A 
ATOM     16  N   UNL     1       7.292   8.646  17.111  0.00  0.00    +0.000 NA
ATOM     17  O   UNL     1       6.909   7.314  16.934  0.00  0.00    +0.000 OA
ATOM     18  C   UNL     1       7.612   6.587  17.848  0.00  0.00    +0.000 A 
ATOM     19  N   UNL     1       8.430   7.319  18.572  0.00  0.00    +0.000 NA
BRANCH  15  24
ATOM     20  F   UNL     1      10.748  13.074  20.271  0.00  0.00    +0.000 F 
ATOM     21  C   UNL     1      10.142  11.995  19.757  0.00  0.00    +0.000 A 
ATOM     22  C   UNL     1       9.576  11.057  20.613  0.00  0.00    +0.000 A 
ATOM     23  C   UNL     1       8.936   9.932  20.081  0.00  0.00    +0.000 A 
ATOM     24  C   UNL     1       8.858   9.748  18.691  0.00  0.00    +0.000 A 
ATOM     25  C   UNL     1       9.447  10.702  17.845  0.00  0.00    +0.000 A 
ATOM     26  C   UNL     1      10.080  11.817  18.382  0.00  0.00    +0.000 A 
ATOM     27  F   UNL     1      10.629  12.719  17.558  0.00  0.00    +0.000 F 
ENDBRANCH  15  24
ENDBRANCH   1  18
TORSDOF 3
ENDMDL
MODEL 7
REMARK VINA RESULT:      -8.9      2.123      2.945
REMARK  Name = 
REMARK  3 active torsions:
REMARK  status: ('A' for Active; 'I' for Inactive)
REMARK    1  A    between atoms: C_5  and  C_6
REMARK    2  A    between atoms: C_9  and  C_10
REMARK    3  A    between atoms: C_10  and  N_11
REMARK                            x       y       z     vdW  Elec       q    Type
REMARK                         _______ _______ _______ _____ _____    ______ ____
ROOT
ATOM      1  C   UNL     1       6.622   5.398  16.670  0.00  0.00    +0.000 C 
ENDROOT
BRANCH   1   2
ATOM      2  N   UNL     1       5.437   4.853  17.365  0.00  0.00    +0.000 NA
ATOM      3  C   UNL     1       4.271   4.722  16.486  0.00  0.00    +0.000 C 
ATOM      4  C   UNL     1       3.065   4.696  17.412  0.00  0.00    +0.000 C 
ATOM      5  C   UNL     1       3.498   5.476  18.652  0.00  0.00    +0.000 C 
ATOM      6  C   UNL     1       5.005   5.742  18.461  0.00  0.00    +0.000 C 
ATOM      7  O   UNL     1       3.284   4.638  19.820  0.00  0.00    +0.000 OA
ATOM      8  C   UNL     1       2.500   5.337  20.809  0.00  0.00    +0.000 C 
ATOM      9  C   UNL     1       2.135   6.628  20.179  0.00  0.00    +0.000 A 
ATOM     10  C   UNL     1       1.358   7.655  20.691  0.00  0.00    +0.000 A 
ATOM     11  C   UNL     1       1.147   8.785  19.900  0.00  0.00    +0.000 A 
ATOM     12  C   UNL     1       1.715   8.872  18.622  0.00  0.00    +0.000 A 
ATOM     13  C   UNL     1       2.498   7.831  18.121  0.00  0.00    +0.000 A 
ATOM     14  C   UNL     1       2.704   6.712  18.918  0.00  0.00    +0.000 A 
ENDBRANCH   1   2
BRANCH   1  18
ATOM     15  C   UNL     1       8.188   8.210  18.234  0.00  0.00    +0.000 A 
ATOM     16  N   UNL     1       8.545   7.257  19.109  0.00  0.00    +0.000 NA
ATOM     17  O   UNL     1       7.982   6.093  18.579  0.00  0.00    +0.000 OA
ATOM     18  C   UNL     1       7.336   6.463  17.437  0.00  0.00    +0.000 A 
ATOM     19  N   UNL     1       7.403   7.754  17.201  0.00  0.00    +0.000 NA
BRANCH  15  24
ATOM     20  F   UNL     1       9.547  13.626  18.621  0.00  0.00    +0.000 F 
ATOM     21  C   UNL     1       9.231  12.328  18.523  0.00  0.00    +0.000 A 
ATOM     22  C   UNL     1       9.863  11.406  19.350  0.00  0.00    +0.000 A 
ATOM     23  C   UNL     1       9.530  10.050  19.256  0.00  0.00    +0.000 A 
ATOM     24  C   UNL     1       8.562   9.616  18.336  0.00  0.00    +0.000 A 
ATOM     25  C   UNL     1       7.944  10.563  17.503  0.00  0.00    +0.000 A 
ATOM     26  C   UNL     1       8.280  11.908  17.604  0.00  0.00    +0.000 A 
ATOM     27  F   UNL     1       7.673  12.796  16.804  0.00  0.00    +0.000 F 
ENDBRANCH  15  24
ENDBRANCH   1  18
TORSDOF 3
ENDMDL
MODEL 8
REMARK VINA RESULT:      -8.8      7.667      9.380
REMARK  Name = 
REMARK  3 active torsions:
REMARK  status: ('A' for Active; 'I' for Inactive)
REMARK    1  A    between atoms: C_5  and  C_6
REMARK    2  A    between atoms: C_9  and  C_10
REMARK    3  A    between atoms: C_10  and  N_11
REMARK                            x       y       z     vdW  Elec       q    Type
REMARK                         _______ _______ _______ _____ _____    ______ ____
ROOT
ATOM      1  C   UNL     1       0.720  10.016  20.083  0.00  0.00    +0.000 C 
ENDROOT
BRANCH   1   2
ATOM      2  N   UNL     1       0.105  10.641  18.894  0.00  0.00    +0.000 NA
ATOM      3  C   UNL     1       0.116  12.106  18.948  0.00  0.00    +0.000 C 
ATOM      4  C   UNL     1      -0.984  12.556  18.000  0.00  0.00    +0.000 C 
ATOM      5  C   UNL     1      -1.990  11.406  17.981  0.00  0.00    +0.000 C 
ATOM      6  C   UNL     1      -1.317  10.263  18.768  0.00  0.00    +0.000 C 
ATOM      7  O   UNL     1      -2.203  11.004  16.601  0.00  0.00    +0.000 OA
ATOM      8  C   UNL     1      -3.610  10.995  16.286  0.00  0.00    +0.000 C 
ATOM      9  C   UNL     1      -4.286  11.508  17.501  0.00  0.00    +0.000 A 
ATOM     10  C   UNL     1      -5.638  11.730  17.714  0.00  0.00    +0.000 A 
ATOM     11  C   UNL     1      -6.041  12.229  18.953  0.00  0.00    +0.000 A 
ATOM     12  C   UNL     1      -5.095  12.492  19.954  0.00  0.00    +0.000 A 
ATOM     13  C   UNL     1      -3.738  12.260  19.726  0.00  0.00    +0.000 A 
ATOM     14  C   UNL     1      -3.349  11.761  18.489  0.00  0.00    +0.000 A 
ENDBRANCH   1   2
BRANCH   1  18
ATOM     15  C   UNL     1       2.494   7.081  19.066  0.00  0.00    +0.000 A 
ATOM     16  N   UNL     1       2.038   6.650  20.253  0.00  0.00    +0.000 NA
ATOM     17  O   UNL     1       1.310   7.738  20.742  0.00  0.00    +0.000 OA
ATOM     18  C   UNL     1       1.404   8.719  19.800  0.00  0.00    +0.000 A 
ATOM     19  N   UNL     1       2.147   8.378  18.771  0.00  0.00    +0.000 NA
BRANCH  15  24
ATOM     20  F   UNL     1       5.523   3.984  15.520  0.00  0.00    +0.000 F 
ATOM     21  C   UNL     1       4.807   4.726  16.375  0.00  0.00    +0.000 A 
ATOM     22  C   UNL     1       4.975   6.106  16.389  0.00  0.00    +0.000 A 
ATOM     23  C   UNL     1       4.224   6.886  17.275  0.00  0.00    +0.000 A 
ATOM     24  C   UNL     1       3.300   6.285  18.146  0.00  0.00    +0.000 A 
ATOM     25  C   UNL     1       3.153   4.889  18.123  0.00  0.00    +0.000 A 
ATOM     26  C   UNL     1       3.903   4.122  17.238  0.00  0.00    +0.000 A 
ATOM     27  F   UNL     1       3.744   2.791  17.227  0.00  0.00    +0.000 F 
ENDBRANCH  15  24
ENDBRANCH   1  18
TORSDOF 3
ENDMDL
MODEL 9
REMARK VINA RESULT:      -8.8      7.522      9.279
REMARK  Name = 
REMARK  3 active torsions:
REMARK  status: ('A' for Active; 'I' for Inactive)
REMARK    1  A    between atoms: C_5  and  C_6
REMARK    2  A    between atoms: C_9  and  C_10
REMARK    3  A    between atoms: C_10  and  N_11
REMARK                            x       y       z     vdW  Elec       q    Type
REMARK                         _______ _______ _______ _____ _____    ______ ____
ROOT
ATOM      1  C   UNL     1       0.745  10.249  20.066  0.00  0.00    +0.000 C 
ENDROOT
BRANCH   1   2
ATOM      2  N   UNL     1       0.116  10.817  18.856  0.00  0.00    +0.000 NA
ATOM      3  C   UNL     1       0.052  12.282  18.880  0.00  0.00    +0.000 C 
ATOM      4  C   UNL     1      -1.056  12.657  17.909  0.00  0.00    +0.000 C 
ATOM      5  C   UNL     1      -2.002  11.457  17.900  0.00  0.00    +0.000 C 
ATOM      6  C   UNL     1      -1.283  10.365  18.719  0.00  0.00    +0.000 C 
ATOM      7  O   UNL     1      -2.174  11.017  16.526  0.00  0.00    +0.000 OA
ATOM      8  C   UNL     1      -3.574  10.930  16.193  0.00  0.00    +0.000 C 
ATOM      9  C   UNL     1      -4.293  11.432  17.388  0.00  0.00    +0.000 A 
ATOM     10  C   UNL     1      -5.658  11.589  17.579  0.00  0.00    +0.000 A 
ATOM     11  C   UNL     1      -6.103  12.091  18.802  0.00  0.00    +0.000 A 
ATOM     12  C   UNL     1      -5.186  12.422  19.809  0.00  0.00    +0.000 A 
ATOM     13  C   UNL     1      -3.815  12.255  19.604  0.00  0.00    +0.000 A 
ATOM     14  C   UNL     1      -3.384  11.752  18.383  0.00  0.00    +0.000 A 
ENDBRANCH   1   2
BRANCH   1  18
ATOM     15  C   UNL     1       2.339   7.168  19.191  0.00  0.00    +0.000 A 
ATOM     16  N   UNL     1       1.972   6.865  20.446  0.00  0.00    +0.000 NA
ATOM     17  O   UNL     1       1.320   8.019  20.887  0.00  0.00    +0.000 OA
ATOM     18  C   UNL     1       1.364   8.906  19.853  0.00  0.00    +0.000 A 
ATOM     19  N   UNL     1       2.008   8.444  18.804  0.00  0.00    +0.000 NA
BRANCH  15  24
ATOM     20  F   UNL     1       5.099   3.719  15.753  0.00  0.00    +0.000 F 
ATOM     21  C   UNL     1       4.431   4.545  16.568  0.00  0.00    +0.000 A 
ATOM     22  C   UNL     1       3.310   4.079  17.246  0.00  0.00    +0.000 A 
ATOM     23  C   UNL     1       2.614   4.936  18.104  0.00  0.00    +0.000 A 
ATOM     24  C   UNL     1       3.041   6.262  18.288  0.00  0.00    +0.000 A 
ATOM     25  C   UNL     1       4.168   6.716  17.585  0.00  0.00    +0.000 A 
ATOM     26  C   UNL     1       4.855   5.856  16.735  0.00  0.00    +0.000 A 
ATOM     27  F   UNL     1       5.933   6.307  16.079  0.00  0.00    +0.000 F 
ENDBRANCH  15  24
ENDBRANCH   1  18
TORSDOF 3
ENDMDL
