MODEL 1
REMARK VINA RESULT:      -7.3      0.000      0.000
REMARK  Name = 
REMARK  7 active torsions:
REMARK  status: ('A' for Active; 'I' for Inactive)
REMARK    1  A    between atoms: C_1  and  C_2
REMARK    2  A    between atoms: C_5  and  C_6
REMARK    3  A    between atoms: C_7  and  C_8
REMARK    4  A    between atoms: C_8  and  N_9
REMARK    5  A    between atoms: C_13  and  C_14
REMARK    6  A    between atoms: C_13  and  C_21
REMARK    7  A    between atoms: C_14  and  C_15
REMARK                            x       y       z     vdW  Elec       q    Type
REMARK                         _______ _______ _______ _____ _____    ______ ____
ROOT
ATOM      1  N   UNL     1       1.495  12.591  20.028  0.00  0.00    +0.000 N 
ATOM      2  C   UNL     1       1.429  12.617  18.671  0.00  0.00    +0.000 C 
ATOM      3  O   UNL     1       1.956  13.415  17.913  0.00  0.00    +0.000 OA
ATOM      4  N   UNL     1       0.732  11.519  18.238  0.00  0.00    +0.000 N 
ATOM      5  C   UNL     1       0.494  10.548  19.295  0.00  0.00    +0.000 C 
ATOM      6  C   UNL     1       1.041  11.382  20.492  0.00  0.00    +0.000 C 
ATOM      7  O   UNL     1       1.070  11.017  21.661  0.00  0.00    +0.000 OA
ATOM      8  H   UNL     1       0.728  11.278  17.255  0.00  0.00    +0.000 HD
ENDROOT
BRANCH   5   9
ATOM      9  C   UNL     1       1.347   9.287  19.072  0.00  0.00    +0.000 A 
ATOM     10  C   UNL     1       2.043   9.080  17.862  0.00  0.00    +0.000 A 
ATOM     11  C   UNL     1       2.779   7.913  17.632  0.00  0.00    +0.000 A 
ATOM     12  C   UNL     1       2.846   6.925  18.606  0.00  0.00    +0.000 A 
ATOM     13  C   UNL     1       2.198   7.118  19.820  0.00  0.00    +0.000 A 
ATOM     14  C   UNL     1       1.475   8.292  20.057  0.00  0.00    +0.000 A 
ENDBRANCH   5   9
BRANCH   1  15
ATOM     15  C   UNL     1       2.227  13.563  20.818  0.00  0.00    +0.000 C 
BRANCH  15  22
ATOM     16  C   UNL     1       2.676  16.561  19.569  0.00  0.00    +0.000 C 
ATOM     17  C   UNL     1       1.611  16.091  20.486  0.00  0.00    +0.000 A 
ATOM     18  N   UNL     1       0.649  16.939  20.863  0.00  0.00    +0.000 NA
ATOM     19  O   UNL     1      -0.190  16.220  21.682  0.00  0.00    +0.000 OA
ATOM     20  C   UNL     1       0.265  14.945  21.799  0.00  0.00    +0.000 A 
ATOM     21  C   UNL     1      -0.562  14.055  22.638  0.00  0.00    +0.000 C 
ATOM     22  C   UNL     1       1.419  14.795  21.050  0.00  0.00    +0.000 A 
ENDBRANCH  15  22
ENDBRANCH   1  15
BRANCH   5  23
ATOM     23  C   UNL     1      -1.031  10.336  19.528  0.00  0.00    +0.000 C 
BRANCH  23  24
ATOM     24  C   UNL     1      -1.943  10.504  18.323  0.00  0.00    +0.000 A 
ATOM     25  C   UNL     1      -3.002  11.428  18.348  0.00  0.00    +0.000 A 
ATOM     26  C   UNL     1      -3.840  11.583  17.239  0.00  0.00    +0.000 A 
ATOM     27  C   UNL     1      -3.626  10.833  16.090  0.00  0.00    +0.000 A 
ATOM     28  C   UNL     1      -2.565   9.931  16.040  0.00  0.00    +0.000 A 
ATOM     29  C   UNL     1      -1.723   9.778  17.147  0.00  0.00    +0.000 A 
ENDBRANCH  23  24
ENDBRANCH   5  23
TORSDOF 5
ENDMDL
MODEL 2
REMARK VINA RESULT:      -7.2      0.654      1.133
REMARK  Name = 
REMARK  7 active torsions:
REMARK  status: ('A' for Active; 'I' for Inactive)
REMARK    1  A    between atoms: C_1  and  C_2
REMARK    2  A    between atoms: C_5  and  C_6
REMARK    3  A    between atoms: C_7  and  C_8
REMARK    4  A    between atoms: C_8  and  N_9
REMARK    5  A    between atoms: C_13  and  C_14
REMARK    6  A    between atoms: C_13  and  C_21
REMARK    7  A    between atoms: C_14  and  C_15
REMARK                            x       y       z     vdW  Elec       q    Type
REMARK                         _______ _______ _______ _____ _____    ______ ____
ROOT
ATOM      1  N   UNL     1       0.960  12.878  20.276  0.00  0.00    +0.000 N 
ATOM      2  C   UNL     1       0.988  12.977  18.922  0.00  0.00    +0.000 C 
ATOM      3  O   UNL     1       1.528  13.840  18.248  0.00  0.00    +0.000 OA
ATOM      4  N   UNL     1       0.376  11.876  18.380  0.00  0.00    +0.000 N 
ATOM      5  C   UNL     1       0.111  10.837  19.364  0.00  0.00    +0.000 C 
ATOM      6  C   UNL     1       0.533  11.625  20.640  0.00  0.00    +0.000 C 
ATOM      7  O   UNL     1       0.497  11.195  21.787  0.00  0.00    +0.000 OA
ATOM      8  H   UNL     1       0.452  11.692  17.389  0.00  0.00    +0.000 HD
ENDROOT
BRANCH   5   9
ATOM      9  C   UNL     1       1.036   9.629  19.136  0.00  0.00    +0.000 A 
ATOM     10  C   UNL     1       1.712   9.447  17.910  0.00  0.00    +0.000 A 
ATOM     11  C   UNL     1       2.514   8.325  17.678  0.00  0.00    +0.000 A 
ATOM     12  C   UNL     1       2.670   7.360  18.664  0.00  0.00    +0.000 A 
ATOM     13  C   UNL     1       2.045   7.532  19.893  0.00  0.00    +0.000 A 
ATOM     14  C   UNL     1       1.254   8.662  20.132  0.00  0.00    +0.000 A 
ENDBRANCH   5   9
BRANCH   1  15
ATOM     15  C   UNL     1       1.587  13.834  21.168  0.00  0.00    +0.000 C 
BRANCH  15  22
ATOM     16  C   UNL     1       1.541  16.884  19.969  0.00  0.00    +0.000 C 
ATOM     17  C   UNL     1       0.634  16.269  20.967  0.00  0.00    +0.000 A 
ATOM     18  N   UNL     1      -0.385  16.983  21.455  0.00  0.00    +0.000 NA
ATOM     19  O   UNL     1      -1.046  16.151  22.328  0.00  0.00    +0.000 OA
ATOM     20  C   UNL     1      -0.429  14.941  22.365  0.00  0.00    +0.000 A 
ATOM     21  C   UNL     1      -1.055  13.941  23.252  0.00  0.00    +0.000 C 
ATOM     22  C   UNL     1       0.659  14.950  21.509  0.00  0.00    +0.000 A 
ENDBRANCH  15  22
ENDBRANCH   1  15
BRANCH   5  23
ATOM     23  C   UNL     1      -1.415  10.546  19.474  0.00  0.00    +0.000 C 
BRANCH  23  24
ATOM     24  C   UNL     1      -2.227  10.626  18.191  0.00  0.00    +0.000 A 
ATOM     25  C   UNL     1      -1.927   9.795  17.098  0.00  0.00    +0.000 A 
ATOM     26  C   UNL     1      -2.674   9.869  15.918  0.00  0.00    +0.000 A 
ATOM     27  C   UNL     1      -3.736  10.758  15.818  0.00  0.00    +0.000 A 
ATOM     28  C   UNL     1      -4.064  11.570  16.902  0.00  0.00    +0.000 A 
ATOM     29  C   UNL     1      -3.320  11.494  18.084  0.00  0.00    +0.000 A 
ENDBRANCH  23  24
ENDBRANCH   5  23
TORSDOF 5
ENDMDL
MODEL 3
REMARK VINA RESULT:      -7.2      0.426      2.011
REMARK  Name = 
REMARK  7 active torsions:
REMARK  status: ('A' for Active; 'I' for Inactive)
REMARK    1  A    between atoms: C_1  and  C_2
REMARK    2  A    between atoms: C_5  and  C_6
REMARK    3  A    between atoms: C_7  and  C_8
REMARK    4  A    between atoms: C_8  and  N_9
REMARK    5  A    between atoms: C_13  and  C_14
REMARK    6  A    between atoms: C_13  and  C_21
REMARK    7  A    between atoms: C_14  and  C_15
REMARK                            x       y       z     vdW  Elec       q    Type
REMARK                         _______ _______ _______ _____ _____    ______ ____
ROOT
ATOM      1  N   UNL     1       1.446  12.745  20.020  0.00  0.00    +0.000 N 
ATOM      2  C   UNL     1       1.396  12.760  18.663  0.00  0.00    +0.000 C 
ATOM      3  O   UNL     1       1.955  13.535  17.904  0.00  0.00    +0.000 OA
ATOM      4  N   UNL     1       0.669  11.681  18.231  0.00  0.00    +0.000 N 
ATOM      5  C   UNL     1       0.389  10.728  19.293  0.00  0.00    +0.000 C 
ATOM      6  C   UNL     1       0.950  11.554  20.489  0.00  0.00    +0.000 C 
ATOM      7  O   UNL     1       0.955  11.199  21.662  0.00  0.00    +0.000 OA
ATOM      8  H   UNL     1       0.668  11.431  17.251  0.00  0.00    +0.000 HD
ENDROOT
BRANCH   5   9
ATOM      9  C   UNL     1       1.205   9.438  19.091  0.00  0.00    +0.000 A 
ATOM     10  C   UNL     1       1.317   8.476  20.117  0.00  0.00    +0.000 A 
ATOM     11  C   UNL     1       2.097   7.327  19.959  0.00  0.00    +0.000 A 
ATOM     12  C   UNL     1       2.780   7.102  18.771  0.00  0.00    +0.000 A 
ATOM     13  C   UNL     1       2.659   8.016  17.731  0.00  0.00    +0.000 A 
ATOM     14  C   UNL     1       1.865   9.158  17.882  0.00  0.00    +0.000 A 
ENDBRANCH   5   9
BRANCH   1  15
ATOM     15  C   UNL     1       2.199  13.701  20.809  0.00  0.00    +0.000 C 
BRANCH  15  22
ATOM     16  C   UNL     1      -0.425  14.346  22.664  0.00  0.00    +0.000 C 
ATOM     17  C   UNL     1       0.331  15.264  21.781  0.00  0.00    +0.000 A 
ATOM     18  N   UNL     1      -0.023  16.552  21.715  0.00  0.00    +0.000 NA
ATOM     19  O   UNL     1       0.862  17.144  20.845  0.00  0.00    +0.000 OA
ATOM     20  C   UNL     1       1.745  16.219  20.388  0.00  0.00    +0.000 A 
ATOM     21  C   UNL     1       2.771  16.731  19.459  0.00  0.00    +0.000 C 
ATOM     22  C   UNL     1       1.462  14.988  20.955  0.00  0.00    +0.000 A 
ENDBRANCH  15  22
ENDBRANCH   1  15
BRANCH   5  23
ATOM     23  C   UNL     1      -1.144  10.565  19.512  0.00  0.00    +0.000 C 
BRANCH  23  24
ATOM     24  C   UNL     1      -2.029  10.649  18.278  0.00  0.00    +0.000 A 
ATOM     25  C   UNL     1      -1.779   9.837  17.159  0.00  0.00    +0.000 A 
ATOM     26  C   UNL     1      -2.594   9.914  16.024  0.00  0.00    +0.000 A 
ATOM     27  C   UNL     1      -3.673  10.788  15.997  0.00  0.00    +0.000 A 
ATOM     28  C   UNL     1      -3.950  11.581  17.109  0.00  0.00    +0.000 A 
ATOM     29  C   UNL     1      -3.139  11.502  18.245  0.00  0.00    +0.000 A 
ENDBRANCH  23  24
ENDBRANCH   5  23
TORSDOF 5
ENDMDL
MODEL 4
REMARK VINA RESULT:      -7.1      2.945      6.211
REMARK  Name = 
REMARK  7 active torsions:
REMARK  status: ('A' for Active; 'I' for Inactive)
REMARK    1  A    between atoms: C_1  and  C_2
REMARK    2  A    between atoms: C_5  and  C_6
REMARK    3  A    between atoms: C_7  and  C_8
REMARK    4  A    between atoms: C_8  and  N_9
REMARK    5  A    between atoms: C_13  and  C_14
REMARK    6  A    between atoms: C_13  and  C_21
REMARK    7  A    between atoms: C_14  and  C_15
REMARK                            x       y       z     vdW  Elec       q    Type
REMARK                         _______ _______ _______ _____ _____    ______ ____
ROOT
ATOM      1  N   UNL     1       1.212   8.739  19.692  0.00  0.00    +0.000 N 
ATOM      2  C   UNL     1       1.417   8.220  20.930  0.00  0.00    +0.000 C 
ATOM      3  O   UNL     1       0.856   8.525  21.970  0.00  0.00    +0.000 OA
ATOM      4  N   UNL     1       2.319   7.191  20.839  0.00  0.00    +0.000 N 
ATOM      5  C   UNL     1       2.592   6.800  19.465  0.00  0.00    +0.000 C 
ATOM      6  C   UNL     1       1.797   7.932  18.748  0.00  0.00    +0.000 C 
ATOM      7  O   UNL     1       1.701   8.078  17.535  0.00  0.00    +0.000 OA
ATOM      8  H   UNL     1       2.464   6.575  21.628  0.00  0.00    +0.000 HD
ENDROOT
BRANCH   5   9
ATOM      9  C   UNL     1       1.974   5.423  19.162  0.00  0.00    +0.000 A 
ATOM     10  C   UNL     1       1.544   4.570  20.202  0.00  0.00    +0.000 A 
ATOM     11  C   UNL     1       1.029   3.297  19.937  0.00  0.00    +0.000 A 
ATOM     12  C   UNL     1       0.921   2.845  18.629  0.00  0.00    +0.000 A 
ATOM     13  C   UNL     1       1.304   3.677  17.584  0.00  0.00    +0.000 A 
ATOM     14  C   UNL     1       1.805   4.957  17.847  0.00  0.00    +0.000 A 
ENDBRANCH   5   9
BRANCH   1  15
ATOM     15  C   UNL     1       0.259   9.794  19.408  0.00  0.00    +0.000 C 
BRANCH  15  22
ATOM     16  C   UNL     1      -0.467  11.491  22.118  0.00  0.00    +0.000 C 
ATOM     17  C   UNL     1       0.470  11.848  21.027  0.00  0.00    +0.000 A 
ATOM     18  N   UNL     1       1.178  12.978  21.113  0.00  0.00    +0.000 NA
ATOM     19  O   UNL     1       1.959  13.024  19.982  0.00  0.00    +0.000 OA
ATOM     20  C   UNL     1       1.723  11.926  19.217  0.00  0.00    +0.000 A 
ATOM     21  C   UNL     1       2.519  11.838  17.977  0.00  0.00    +0.000 C 
ATOM     22  C   UNL     1       0.777  11.126  19.835  0.00  0.00    +0.000 A 
ENDBRANCH  15  22
ENDBRANCH   1  15
BRANCH   5  23
ATOM     23  C   UNL     1       4.097   6.989  19.116  0.00  0.00    +0.000 C 
BRANCH  23  24
ATOM     24  C   UNL     1       4.646   6.162  17.963  0.00  0.00    +0.000 A 
ATOM     25  C   UNL     1       4.720   6.699  16.666  0.00  0.00    +0.000 A 
ATOM     26  C   UNL     1       5.225   5.939  15.606  0.00  0.00    +0.000 A 
ATOM     27  C   UNL     1       5.677   4.645  15.827  0.00  0.00    +0.000 A 
ATOM     28  C   UNL     1       5.636   4.108  17.113  0.00  0.00    +0.000 A 
ATOM     29  C   UNL     1       5.135   4.868  18.174  0.00  0.00    +0.000 A 
ENDBRANCH  23  24
ENDBRANCH   5  23
TORSDOF 5
ENDMDL
MODEL 5
REMARK VINA RESULT:      -7.1      2.963      6.822
REMARK  Name = 
REMARK  7 active torsions:
REMARK  status: ('A' for Active; 'I' for Inactive)
REMARK    1  A    between atoms: C_1  and  C_2
REMARK    2  A    between atoms: C_5  and  C_6
REMARK    3  A    between atoms: C_7  and  C_8
REMARK    4  A    between atoms: C_8  and  N_9
REMARK    5  A    between atoms: C_13  and  C_14
REMARK    6  A    between atoms: C_13  and  C_21
REMARK    7  A    between atoms: C_14  and  C_15
REMARK                            x       y       z     vdW  Elec       q    Type
REMARK                         _______ _______ _______ _____ _____    ______ ____
ROOT
ATOM      1  N   UNL     1       2.059   7.817  19.490  0.00  0.00    +0.000 N 
ATOM      2  C   UNL     1       1.204   8.175  20.482  0.00  0.00    +0.000 C 
ATOM      3  O   UNL     1       1.152   7.732  21.618  0.00  0.00    +0.000 OA
ATOM      4  N   UNL     1       0.425   9.216  20.047  0.00  0.00    +0.000 N 
ATOM      5  C   UNL     1       0.893   9.784  18.792  0.00  0.00    +0.000 C 
ATOM      6  C   UNL     1       2.012   8.745  18.479  0.00  0.00    +0.000 C 
ATOM      7  O   UNL     1       2.739   8.755  17.494  0.00  0.00    +0.000 OA
ATOM      8  H   UNL     1      -0.149   9.727  20.704  0.00  0.00    +0.000 HD
ENDROOT
BRANCH   5   9
ATOM      9  C   UNL     1       1.495  11.182  19.022  0.00  0.00    +0.000 A 
ATOM     10  C   UNL     1       1.356  11.842  20.262  0.00  0.00    +0.000 A 
ATOM     11  C   UNL     1       1.855  13.133  20.463  0.00  0.00    +0.000 A 
ATOM     12  C   UNL     1       2.514  13.796  19.435  0.00  0.00    +0.000 A 
ATOM     13  C   UNL     1       2.696  13.156  18.216  0.00  0.00    +0.000 A 
ATOM     14  C   UNL     1       2.211  11.858  18.019  0.00  0.00    +0.000 A 
ENDBRANCH   5   9
BRANCH   1  15
ATOM     15  C   UNL     1       3.080   6.797  19.634  0.00  0.00    +0.000 C 
BRANCH  15  22
ATOM     16  C   UNL     1       4.357   5.688  16.826  0.00  0.00    +0.000 C 
ATOM     17  C   UNL     1       3.301   5.076  17.668  0.00  0.00    +0.000 A 
ATOM     18  N   UNL     1       2.785   3.894  17.316  0.00  0.00    +0.000 NA
ATOM     19  O   UNL     1       1.861   3.582  18.285  0.00  0.00    +0.000 OA
ATOM     20  C   UNL     1       1.820   4.570  19.216  0.00  0.00    +0.000 A 
ATOM     21  C   UNL     1       0.879   4.347  20.332  0.00  0.00    +0.000 C 
ATOM     22  C   UNL     1       2.726   5.561  18.880  0.00  0.00    +0.000 A 
ENDBRANCH  15  22
ENDBRANCH   1  15
BRANCH   5  23
ATOM     23  C   UNL     1      -0.190   9.658  17.680  0.00  0.00    +0.000 C 
BRANCH  23  24
ATOM     24  C   UNL     1      -1.538  10.306  17.955  0.00  0.00    +0.000 A 
ATOM     25  C   UNL     1      -1.623  11.509  18.677  0.00  0.00    +0.000 A 
ATOM     26  C   UNL     1      -2.863  12.104  18.929  0.00  0.00    +0.000 A 
ATOM     27  C   UNL     1      -4.029  11.520  18.453  0.00  0.00    +0.000 A 
ATOM     28  C   UNL     1      -3.960  10.341  17.713  0.00  0.00    +0.000 A 
ATOM     29  C   UNL     1      -2.720   9.746  17.456  0.00  0.00    +0.000 A 
ENDBRANCH  23  24
ENDBRANCH   5  23
TORSDOF 5
ENDMDL
MODEL 6
REMARK VINA RESULT:      -7.1      2.908      6.048
REMARK  Name = 
REMARK  7 active torsions:
REMARK  status: ('A' for Active; 'I' for Inactive)
REMARK    1  A    between atoms: C_1  and  C_2
REMARK    2  A    between atoms: C_5  and  C_6
REMARK    3  A    between atoms: C_7  and  C_8
REMARK    4  A    between atoms: C_8  and  N_9
REMARK    5  A    between atoms: C_13  and  C_14
REMARK    6  A    between atoms: C_13  and  C_21
REMARK    7  A    between atoms: C_14  and  C_15
REMARK                            x       y       z     vdW  Elec       q    Type
REMARK                         _______ _______ _______ _____ _____    ______ ____
ROOT
ATOM      1  N   UNL     1       1.247   8.734  19.659  0.00  0.00    +0.000 N 
ATOM      2  C   UNL     1       1.433   8.226  20.904  0.00  0.00    +0.000 C 
ATOM      3  O   UNL     1       0.864   8.549  21.934  0.00  0.00    +0.000 OA
ATOM      4  N   UNL     1       2.324   7.186  20.834  0.00  0.00    +0.000 N 
ATOM      5  C   UNL     1       2.607   6.777  19.467  0.00  0.00    +0.000 C 
ATOM      6  C   UNL     1       1.833   7.910  18.729  0.00  0.00    +0.000 C 
ATOM      7  O   UNL     1       1.751   8.044  17.514  0.00  0.00    +0.000 OA
ATOM      8  H   UNL     1       2.455   6.577  21.631  0.00  0.00    +0.000 HD
ENDROOT
BRANCH   5   9
ATOM      9  C   UNL     1       1.977   5.404  19.173  0.00  0.00    +0.000 A 
ATOM     10  C   UNL     1       1.536   4.563  20.217  0.00  0.00    +0.000 A 
ATOM     11  C   UNL     1       1.010   3.293  19.960  0.00  0.00    +0.000 A 
ATOM     12  C   UNL     1       0.902   2.832  18.655  0.00  0.00    +0.000 A 
ATOM     13  C   UNL     1       1.296   3.652  17.605  0.00  0.00    +0.000 A 
ATOM     14  C   UNL     1       1.808   4.929  17.860  0.00  0.00    +0.000 A 
ENDBRANCH   5   9
BRANCH   1  15
ATOM     15  C   UNL     1       0.308   9.796  19.353  0.00  0.00    +0.000 C 
BRANCH  15  22
ATOM     16  C   UNL     1       2.500  11.767  17.917  0.00  0.00    +0.000 C 
ATOM     17  C   UNL     1       1.752  11.979  19.179  0.00  0.00    +0.000 A 
ATOM     18  N   UNL     1       1.913  13.123  19.852  0.00  0.00    +0.000 NA
ATOM     19  O   UNL     1       1.087  13.036  20.949  0.00  0.00    +0.000 OA
ATOM     20  C   UNL     1       0.432  11.846  20.936  0.00  0.00    +0.000 A 
ATOM     21  C   UNL     1      -0.510  11.634  22.053  0.00  0.00    +0.000 C 
ATOM     22  C   UNL     1       0.812  11.119  19.821  0.00  0.00    +0.000 A 
ENDBRANCH  15  22
ENDBRANCH   1  15
BRANCH   5  23
ATOM     23  C   UNL     1       4.118   6.945  19.132  0.00  0.00    +0.000 C 
BRANCH  23  24
ATOM     24  C   UNL     1       4.660   6.134  17.965  0.00  0.00    +0.000 A 
ATOM     25  C   UNL     1       4.737   6.692  16.677  0.00  0.00    +0.000 A 
ATOM     26  C   UNL     1       5.235   5.945  15.604  0.00  0.00    +0.000 A 
ATOM     27  C   UNL     1       5.677   4.644  15.803  0.00  0.00    +0.000 A 
ATOM     28  C   UNL     1       5.632   4.086  17.079  0.00  0.00    +0.000 A 
ATOM     29  C   UNL     1       5.138   4.832  18.154  0.00  0.00    +0.000 A 
ENDBRANCH  23  24
ENDBRANCH   5  23
TORSDOF 5
ENDMDL
MODEL 7
REMARK VINA RESULT:      -7.1      2.965      6.776
REMARK  Name = 
REMARK  7 active torsions:
REMARK  status: ('A' for Active; 'I' for Inactive)
REMARK    1  A    between atoms: C_1  and  C_2
REMARK    2  A    between atoms: C_5  and  C_6
REMARK    3  A    between atoms: C_7  and  C_8
REMARK    4  A    between atoms: C_8  and  N_9
REMARK    5  A    between atoms: C_13  and  C_14
REMARK    6  A    between atoms: C_13  and  C_21
REMARK    7  A    between atoms: C_14  and  C_15
REMARK                            x       y       z     vdW  Elec       q    Type
REMARK                         _______ _______ _______ _____ _____    ______ ____
ROOT
ATOM      1  N   UNL     1       2.045   7.842  19.521  0.00  0.00    +0.000 N 
ATOM      2  C   UNL     1       1.193   8.194  20.517  0.00  0.00    +0.000 C 
ATOM      3  O   UNL     1       1.149   7.751  21.654  0.00  0.00    +0.000 OA
ATOM      4  N   UNL     1       0.405   9.230  20.085  0.00  0.00    +0.000 N 
ATOM      5  C   UNL     1       0.863   9.800  18.828  0.00  0.00    +0.000 C 
ATOM      6  C   UNL     1       1.986   8.769  18.510  0.00  0.00    +0.000 C 
ATOM      7  O   UNL     1       2.709   8.783  17.521  0.00  0.00    +0.000 OA
ATOM      8  H   UNL     1      -0.170   9.737  20.745  0.00  0.00    +0.000 HD
ENDROOT
BRANCH   5   9
ATOM      9  C   UNL     1       1.456  11.202  19.055  0.00  0.00    +0.000 A 
ATOM     10  C   UNL     1       2.123  11.889  18.018  0.00  0.00    +0.000 A 
ATOM     11  C   UNL     1       2.709  13.141  18.230  0.00  0.00    +0.000 A 
ATOM     12  C   UNL     1       2.639  13.744  19.479  0.00  0.00    +0.000 A 
ATOM     13  C   UNL     1       1.958  13.105  20.508  0.00  0.00    +0.000 A 
ATOM     14  C   UNL     1       1.358  11.860  20.293  0.00  0.00    +0.000 A 
ENDBRANCH   5   9
BRANCH   1  15
ATOM     15  C   UNL     1       3.074   6.829  19.661  0.00  0.00    +0.000 C 
BRANCH  15  22
ATOM     16  C   UNL     1       4.368   5.732  16.856  0.00  0.00    +0.000 C 
ATOM     17  C   UNL     1       3.311   5.113  17.691  0.00  0.00    +0.000 A 
ATOM     18  N   UNL     1       2.802   3.930  17.334  0.00  0.00    +0.000 NA
ATOM     19  O   UNL     1       1.874   3.611  18.298  0.00  0.00    +0.000 OA
ATOM     20  C   UNL     1       1.824   4.598  19.231  0.00  0.00    +0.000 A 
ATOM     21  C   UNL     1       0.879   4.368  20.342  0.00  0.00    +0.000 C 
ATOM     22  C   UNL     1       2.728   5.593  18.901  0.00  0.00    +0.000 A 
ENDBRANCH  15  22
ENDBRANCH   1  15
BRANCH   5  23
ATOM     23  C   UNL     1      -0.225   9.666  17.722  0.00  0.00    +0.000 C 
BRANCH  23  24
ATOM     24  C   UNL     1      -1.564  10.337  17.987  0.00  0.00    +0.000 A 
ATOM     25  C   UNL     1      -2.753   9.796  17.468  0.00  0.00    +0.000 A 
ATOM     26  C   UNL     1      -3.985  10.413  17.712  0.00  0.00    +0.000 A 
ATOM     27  C   UNL     1      -4.049  11.563  18.487  0.00  0.00    +0.000 A 
ATOM     28  C   UNL     1      -2.882  12.097  19.030  0.00  0.00    +0.000 A 
ATOM     29  C   UNL     1      -1.650  11.479  18.791  0.00  0.00    +0.000 A 
ENDBRANCH  23  24
ENDBRANCH   5  23
TORSDOF 5
ENDMDL
MODEL 8
REMARK VINA RESULT:      -6.9      2.977      6.973
REMARK  Name = 
REMARK  7 active torsions:
REMARK  status: ('A' for Active; 'I' for Inactive)
REMARK    1  A    between atoms: C_1  and  C_2
REMARK    2  A    between atoms: C_5  and  C_6
REMARK    3  A    between atoms: C_7  and  C_8
REMARK    4  A    between atoms: C_8  and  N_9
REMARK    5  A    between atoms: C_13  and  C_14
REMARK    6  A    between atoms: C_13  and  C_21
REMARK    7  A    between atoms: C_14  and  C_15
REMARK                            x       y       z     vdW  Elec       q    Type
REMARK                         _______ _______ _______ _____ _____    ______ ____
ROOT
ATOM      1  N   UNL     1       2.100   7.780  19.524  0.00  0.00    +0.000 N 
ATOM      2  C   UNL     1       1.250   8.156  20.514  0.00  0.00    +0.000 C 
ATOM      3  O   UNL     1       1.206   7.735  21.659  0.00  0.00    +0.000 OA
ATOM      4  N   UNL     1       0.467   9.187  20.064  0.00  0.00    +0.000 N 
ATOM      5  C   UNL     1       0.926   9.732  18.795  0.00  0.00    +0.000 C 
ATOM      6  C   UNL     1       2.044   8.688  18.496  0.00  0.00    +0.000 C 
ATOM      7  O   UNL     1       2.765   8.680  17.505  0.00  0.00    +0.000 OA
ATOM      8  H   UNL     1      -0.104   9.710  20.714  0.00  0.00    +0.000 HD
ENDROOT
BRANCH   5   9
ATOM      9  C   UNL     1       1.527  11.134  18.994  0.00  0.00    +0.000 A 
ATOM     10  C   UNL     1       1.441  11.796  20.238  0.00  0.00    +0.000 A 
ATOM     11  C   UNL     1       1.940  13.091  20.413  0.00  0.00    +0.000 A 
ATOM     12  C   UNL     1       2.544  13.757  19.354  0.00  0.00    +0.000 A 
ATOM     13  C   UNL     1       2.673  13.116  18.128  0.00  0.00    +0.000 A 
ATOM     14  C   UNL     1       2.189  11.814  17.957  0.00  0.00    +0.000 A 
ENDBRANCH   5   9
BRANCH   1  15
ATOM     15  C   UNL     1       3.123   6.765  19.681  0.00  0.00    +0.000 C 
BRANCH  15  22
ATOM     16  C   UNL     1       0.891   4.455  20.334  0.00  0.00    +0.000 C 
ATOM     17  C   UNL     1       1.813   4.550  19.177  0.00  0.00    +0.000 A 
ATOM     18  N   UNL     1       1.751   3.626  18.212  0.00  0.00    +0.000 NA
ATOM     19  O   UNL     1       2.698   3.988  17.282  0.00  0.00    +0.000 OA
ATOM     20  C   UNL     1       3.326   5.124  17.684  0.00  0.00    +0.000 A 
ATOM     21  C   UNL     1       4.354   5.637  16.758  0.00  0.00    +0.000 C 
ATOM     22  C   UNL     1       2.801   5.540  18.895  0.00  0.00    +0.000 A 
ENDBRANCH  15  22
ENDBRANCH   1  15
BRANCH   5  23
ATOM     23  C   UNL     1      -0.163   9.582  17.693  0.00  0.00    +0.000 C 
BRANCH  23  24
ATOM     24  C   UNL     1      -1.500  10.262  17.948  0.00  0.00    +0.000 A 
ATOM     25  C   UNL     1      -1.586  11.380  18.795  0.00  0.00    +0.000 A 
ATOM     26  C   UNL     1      -2.815  12.006  19.029  0.00  0.00    +0.000 A 
ATOM     27  C   UNL     1      -3.967  11.536  18.413  0.00  0.00    +0.000 A 
ATOM     28  C   UNL     1      -3.894  10.444  17.550  0.00  0.00    +0.000 A 
ATOM     29  C   UNL     1      -2.665   9.820  17.311  0.00  0.00    +0.000 A 
ENDBRANCH  23  24
ENDBRANCH   5  23
TORSDOF 5
ENDMDL
MODEL 9
REMARK VINA RESULT:      -6.9      1.012      1.818
REMARK  Name = 
REMARK  7 active torsions:
REMARK  status: ('A' for Active; 'I' for Inactive)
REMARK    1  A    between atoms: C_1  and  C_2
REMARK    2  A    between atoms: C_5  and  C_6
REMARK    3  A    between atoms: C_7  and  C_8
REMARK    4  A    between atoms: C_8  and  N_9
REMARK    5  A    between atoms: C_13  and  C_14
REMARK    6  A    between atoms: C_13  and  C_21
REMARK    7  A    between atoms: C_14  and  C_15
REMARK                            x       y       z     vdW  Elec       q    Type
REMARK                         _______ _______ _______ _____ _____    ______ ____
ROOT
ATOM      1  N   UNL     1       0.677  13.073  20.315  0.00  0.00    +0.000 N 
ATOM      2  C   UNL     1       0.715  13.206  18.964  0.00  0.00    +0.000 C 
ATOM      3  O   UNL     1       1.241  14.096  18.317  0.00  0.00    +0.000 OA
ATOM      4  N   UNL     1       0.134  12.104  18.391  0.00  0.00    +0.000 N 
ATOM      5  C   UNL     1      -0.116  11.036  19.346  0.00  0.00    +0.000 C 
ATOM      6  C   UNL     1       0.276  11.802  20.645  0.00  0.00    +0.000 C 
ATOM      7  O   UNL     1       0.239  11.345  21.781  0.00  0.00    +0.000 OA
ATOM      8  H   UNL     1       0.224  11.945  17.396  0.00  0.00    +0.000 HD
ENDROOT
BRANCH   5   9
ATOM      9  C   UNL     1       0.840   9.856  19.099  0.00  0.00    +0.000 A 
ATOM     10  C   UNL     1       1.503   9.699  17.864  0.00  0.00    +0.000 A 
ATOM     11  C   UNL     1       2.333   8.601  17.614  0.00  0.00    +0.000 A 
ATOM     12  C   UNL     1       2.529   7.636  18.592  0.00  0.00    +0.000 A 
ATOM     13  C   UNL     1       1.916   7.783  19.830  0.00  0.00    +0.000 A 
ATOM     14  C   UNL     1       1.098   8.889  20.087  0.00  0.00    +0.000 A 
ENDBRANCH   5   9
BRANCH   1  15
ATOM     15  C   UNL     1       1.273  14.022  21.236  0.00  0.00    +0.000 C 
BRANCH  15  22
ATOM     16  C   UNL     1      -1.208  13.849  23.371  0.00  0.00    +0.000 C 
ATOM     17  C   UNL     1      -0.760  15.010  22.566  0.00  0.00    +0.000 A 
ATOM     18  N   UNL     1      -1.378  16.187  22.711  0.00  0.00    +0.000 NA
ATOM     19  O   UNL     1      -0.736  17.058  21.863  0.00  0.00    +0.000 OA
ATOM     20  C   UNL     1       0.265  16.411  21.211  0.00  0.00    +0.000 A 
ATOM     21  C   UNL     1       1.054  17.243  20.282  0.00  0.00    +0.000 C 
ATOM     22  C   UNL     1       0.306  15.089  21.620  0.00  0.00    +0.000 A 
ENDBRANCH  15  22
ENDBRANCH   1  15
BRANCH   5  23
ATOM     23  C   UNL     1      -1.635  10.707  19.435  0.00  0.00    +0.000 C 
BRANCH  23  24
ATOM     24  C   UNL     1      -2.413  10.687  18.128  0.00  0.00    +0.000 A 
ATOM     25  C   UNL     1      -3.560  11.483  17.963  0.00  0.00    +0.000 A 
ATOM     26  C   UNL     1      -4.275  11.465  16.762  0.00  0.00    +0.000 A 
ATOM     27  C   UNL     1      -3.850  10.667  15.707  0.00  0.00    +0.000 A 
ATOM     28  C   UNL     1      -2.701   9.892  15.846  0.00  0.00    +0.000 A 
ATOM     29  C   UNL     1      -1.982   9.912  17.045  0.00  0.00    +0.000 A 
ENDBRANCH  23  24
ENDBRANCH   5  23
TORSDOF 5
ENDMDL
