MODEL 1
REMARK VINA RESULT:      -9.9      0.000      0.000
REMARK  Name = 
REMARK  4 active torsions:
REMARK  status: ('A' for Active; 'I' for Inactive)
REMARK    1  A    between atoms: C_1  and  N_2
REMARK    2  A    between atoms: C_6  and  C_7
REMARK    3  A    between atoms: C_11  and  N_12
REMARK    4  A    between atoms: C_13  and  C_15
REMARK                            x       y       z     vdW  Elec       q    Type
REMARK                         _______ _______ _______ _____ _____    ______ ____
ROOT
ATOM      1  N   UNL     1       3.110   6.512  19.518  0.00  0.00    +0.000 N 
ATOM      2  C   UNL     1       2.704   5.278  20.033  0.00  0.00    +0.000 C 
ATOM      3  O   UNL     1       1.609   5.098  20.576  0.00  0.00    +0.000 OA
ATOM      4  H   UNL     1       4.095   6.691  19.394  0.00  0.00    +0.000 HD
ENDROOT
BRANCH   2   5
ATOM      5  C   UNL     1       3.622   4.048  19.830  0.00  0.00    +0.000 C 
ATOM      6  C   UNL     1       2.979   2.707  19.517  0.00  0.00    +0.000 C 
ATOM      7  C   UNL     1       2.254   2.826  18.200  0.00  0.00    +0.000 C 
ATOM      8  O   UNL     1       1.104   2.430  18.048  0.00  0.00    +0.000 OA
ATOM      9  N   UNL     1       3.012   3.342  17.179  0.00  0.00    +0.000 N 
ATOM     10  C   UNL     1       4.291   3.869  17.402  0.00  0.00    +0.000 A 
ATOM     11  C   UNL     1       5.216   3.933  16.368  0.00  0.00    +0.000 A 
ATOM     12  C   UNL     1       6.491   4.414  16.645  0.00  0.00    +0.000 A 
ATOM     13  F   UNL     1       7.433   4.360  15.696  0.00  0.00    +0.000 F 
ATOM     14  C   UNL     1       6.816   4.923  17.902  0.00  0.00    +0.000 A 
ATOM     15  C   UNL     1       5.879   4.872  18.934  0.00  0.00    +0.000 A 
ATOM     16  C   UNL     1       4.631   4.283  18.703  0.00  0.00    +0.000 A 
ATOM     17  H   UNL     1       2.622   3.314  16.244  0.00  0.00    +0.000 HD
ENDBRANCH   2   5
BRANCH   1  22
ATOM     18  C   UNL     1       0.748   9.341  20.373  0.00  0.00    +0.000 A 
ATOM     19  C   UNL     1       0.555   9.899  19.099  0.00  0.00    +0.000 A 
ATOM     20  C   UNL     1       1.179   9.354  17.977  0.00  0.00    +0.000 A 
ATOM     21  C   UNL     1       2.006   8.241  18.121  0.00  0.00    +0.000 A 
ATOM     22  C   UNL     1       2.226   7.646  19.370  0.00  0.00    +0.000 A 
ATOM     23  C   UNL     1       1.605   8.218  20.499  0.00  0.00    +0.000 A 
BRANCH  18  29
ATOM     24  C   UNL     1       0.572  12.497  21.055  0.00  0.00    +0.000 C 
ATOM     25  N   UNL     1       0.022  11.376  21.757  0.00  0.00    +0.000 N 
ATOM     26  N   UNL     1      -0.585  11.586  22.941  0.00  0.00    +0.000 NA
ATOM     27  N   UNL     1      -0.887  10.382  23.395  0.00  0.00    +0.000 NA
ATOM     28  N   UNL     1      -0.475   9.416  22.519  0.00  0.00    +0.000 NA
ATOM     29  C   UNL     1       0.089  10.032  21.487  0.00  0.00    +0.000 A 
ENDBRANCH  18  29
ENDBRANCH   1  22
TORSDOF 3
ENDMDL
MODEL 2
REMARK VINA RESULT:      -9.5      0.572      1.149
REMARK  Name = 
REMARK  4 active torsions:
REMARK  status: ('A' for Active; 'I' for Inactive)
REMARK    1  A    between atoms: C_1  and  N_2
REMARK    2  A    between atoms: C_6  and  C_7
REMARK    3  A    between atoms: C_11  and  N_12
REMARK    4  A    between atoms: C_13  and  C_15
REMARK                            x       y       z     vdW  Elec       q    Type
REMARK                         _______ _______ _______ _____ _____    ______ ____
ROOT
ATOM      1  N   UNL     1       3.011   6.670  19.571  0.00  0.00    +0.000 N 
ATOM      2  C   UNL     1       2.516   5.446  20.027  0.00  0.00    +0.000 C 
ATOM      3  O   UNL     1       1.364   5.296  20.449  0.00  0.00    +0.000 OA
ATOM      4  H   UNL     1       4.008   6.820  19.554  0.00  0.00    +0.000 HD
ENDROOT
BRANCH   2   5
ATOM      5  C   UNL     1       3.412   4.189  19.911  0.00  0.00    +0.000 C 
ATOM      6  C   UNL     1       2.752   2.851  19.624  0.00  0.00    +0.000 C 
ATOM      7  C   UNL     1       2.085   2.932  18.275  0.00  0.00    +0.000 C 
ATOM      8  O   UNL     1       0.933   2.554  18.091  0.00  0.00    +0.000 OA
ATOM      9  N   UNL     1       2.894   3.390  17.267  0.00  0.00    +0.000 N 
ATOM     10  C   UNL     1       4.175   3.899  17.521  0.00  0.00    +0.000 A 
ATOM     11  C   UNL     1       5.142   3.902  16.525  0.00  0.00    +0.000 A 
ATOM     12  C   UNL     1       6.415   4.367  16.835  0.00  0.00    +0.000 A 
ATOM     13  F   UNL     1       7.394   4.255  15.928  0.00  0.00    +0.000 F 
ATOM     14  C   UNL     1       6.702   4.918  18.083  0.00  0.00    +0.000 A 
ATOM     15  C   UNL     1       5.723   4.929  19.077  0.00  0.00    +0.000 A 
ATOM     16  C   UNL     1       4.471   4.357  18.818  0.00  0.00    +0.000 A 
ATOM     17  H   UNL     1       2.542   3.333  16.318  0.00  0.00    +0.000 HD
ENDBRANCH   2   5
BRANCH   1  22
ATOM     18  C   UNL     1       0.933   9.764  20.216  0.00  0.00    +0.000 A 
ATOM     19  C   UNL     1       0.623  10.137  18.898  0.00  0.00    +0.000 A 
ATOM     20  C   UNL     1       1.078   9.384  17.816  0.00  0.00    +0.000 A 
ATOM     21  C   UNL     1       1.851   8.246  18.045  0.00  0.00    +0.000 A 
ATOM     22  C   UNL     1       2.182   7.831  19.342  0.00  0.00    +0.000 A 
ATOM     23  C   UNL     1       1.732   8.612  20.426  0.00  0.00    +0.000 A 
BRANCH  18  29
ATOM     24  C   UNL     1      -0.691   9.103  22.934  0.00  0.00    +0.000 C 
ATOM     25  N   UNL     1      -0.236  10.361  22.422  0.00  0.00    +0.000 N 
ATOM     26  N   UNL     1      -0.589  11.490  23.065  0.00  0.00    +0.000 NA
ATOM     27  N   UNL     1      -0.127  12.476  22.317  0.00  0.00    +0.000 NA
ATOM     28  N   UNL     1       0.507  11.987  21.208  0.00  0.00    +0.000 NA
ATOM     29  C   UNL     1       0.449  10.663  21.272  0.00  0.00    +0.000 A 
ENDBRANCH  18  29
ENDBRANCH   1  22
TORSDOF 3
ENDMDL
MODEL 3
REMARK VINA RESULT:      -9.0      6.472      7.688
REMARK  Name = 
REMARK  4 active torsions:
REMARK  status: ('A' for Active; 'I' for Inactive)
REMARK    1  A    between atoms: C_1  and  N_2
REMARK    2  A    between atoms: C_6  and  C_7
REMARK    3  A    between atoms: C_11  and  N_12
REMARK    4  A    between atoms: C_13  and  C_15
REMARK                            x       y       z     vdW  Elec       q    Type
REMARK                         _______ _______ _______ _____ _____    ______ ____
ROOT
ATOM      1  N   UNL     1       7.855   8.946  17.285  0.00  0.00    +0.000 N 
ATOM      2  C   UNL     1       7.672   7.624  17.699  0.00  0.00    +0.000 C 
ATOM      3  O   UNL     1       8.182   7.159  18.723  0.00  0.00    +0.000 OA
ATOM      4  H   UNL     1       7.707   9.181  16.315  0.00  0.00    +0.000 HD
ENDROOT
BRANCH   2   5
ATOM      5  C   UNL     1       6.706   6.719  16.896  0.00  0.00    +0.000 C 
ATOM      6  C   UNL     1       7.205   5.363  16.427  0.00  0.00    +0.000 C 
ATOM      7  C   UNL     1       7.535   4.533  17.641  0.00  0.00    +0.000 C 
ATOM      8  O   UNL     1       8.588   3.913  17.743  0.00  0.00    +0.000 OA
ATOM      9  N   UNL     1       6.535   4.475  18.578  0.00  0.00    +0.000 N 
ATOM     10  C   UNL     1       5.382   5.264  18.478  0.00  0.00    +0.000 A 
ATOM     11  C   UNL     1       4.206   4.877  19.108  0.00  0.00    +0.000 A 
ATOM     12  C   UNL     1       3.071   5.663  18.940  0.00  0.00    +0.000 A 
ATOM     13  F   UNL     1       1.900   5.237  19.430  0.00  0.00    +0.000 F 
ATOM     14  C   UNL     1       3.121   6.869  18.244  0.00  0.00    +0.000 A 
ATOM     15  C   UNL     1       4.308   7.264  17.625  0.00  0.00    +0.000 A 
ATOM     16  C   UNL     1       5.429   6.427  17.686  0.00  0.00    +0.000 A 
ATOM     17  H   UNL     1       6.647   3.822  19.345  0.00  0.00    +0.000 HD
ENDBRANCH   2   5
BRANCH   1  22
ATOM     18  C   UNL     1       9.077  12.318  18.487  0.00  0.00    +0.000 A 
ATOM     19  C   UNL     1       9.615  11.960  19.734  0.00  0.00    +0.000 A 
ATOM     20  C   UNL     1       9.586  10.636  20.172  0.00  0.00    +0.000 A 
ATOM     21  C   UNL     1       9.017   9.654  19.361  0.00  0.00    +0.000 A 
ATOM     22  C   UNL     1       8.473   9.962  18.107  0.00  0.00    +0.000 A 
ATOM     23  C   UNL     1       8.491  11.307  17.685  0.00  0.00    +0.000 A 
BRANCH  18  29
ATOM     24  C   UNL     1      11.409  14.084  17.107  0.00  0.00    +0.000 C 
ATOM     25  N   UNL     1      10.110  14.480  17.566  0.00  0.00    +0.000 N 
ATOM     26  N   UNL     1       9.783  15.786  17.544  0.00  0.00    +0.000 NA
ATOM     27  N   UNL     1       8.595  15.857  18.116  0.00  0.00    +0.000 NA
ATOM     28  N   UNL     1       8.169  14.616  18.505  0.00  0.00    +0.000 NA
ATOM     29  C   UNL     1       9.110  13.748  18.157  0.00  0.00    +0.000 A 
ENDBRANCH  18  29
ENDBRANCH   1  22
TORSDOF 3
ENDMDL
MODEL 4
REMARK VINA RESULT:      -8.9      6.381      7.560
REMARK  Name = 
REMARK  4 active torsions:
REMARK  status: ('A' for Active; 'I' for Inactive)
REMARK    1  A    between atoms: C_1  and  N_2
REMARK    2  A    between atoms: C_6  and  C_7
REMARK    3  A    between atoms: C_11  and  N_12
REMARK    4  A    between atoms: C_13  and  C_15
REMARK                            x       y       z     vdW  Elec       q    Type
REMARK                         _______ _______ _______ _____ _____    ______ ____
ROOT
ATOM      1  N   UNL     1       7.869   9.019  17.291  0.00  0.00    +0.000 N 
ATOM      2  C   UNL     1       7.681   7.695  17.694  0.00  0.00    +0.000 C 
ATOM      3  O   UNL     1       8.197   7.218  18.710  0.00  0.00    +0.000 OA
ATOM      4  H   UNL     1       7.714   9.264  16.324  0.00  0.00    +0.000 HD
ENDROOT
BRANCH   2   5
ATOM      5  C   UNL     1       6.703   6.803  16.892  0.00  0.00    +0.000 C 
ATOM      6  C   UNL     1       7.179   5.435  16.433  0.00  0.00    +0.000 C 
ATOM      7  C   UNL     1       7.488   4.607  17.655  0.00  0.00    +0.000 C 
ATOM      8  O   UNL     1       8.528   3.968  17.767  0.00  0.00    +0.000 OA
ATOM      9  N   UNL     1       6.482   4.573  18.587  0.00  0.00    +0.000 N 
ATOM     10  C   UNL     1       5.343   5.382  18.476  0.00  0.00    +0.000 A 
ATOM     11  C   UNL     1       4.158   5.020  19.102  0.00  0.00    +0.000 A 
ATOM     12  C   UNL     1       3.038   5.826  18.923  0.00  0.00    +0.000 A 
ATOM     13  F   UNL     1       1.857   5.424  19.409  0.00  0.00    +0.000 F 
ATOM     14  C   UNL     1       3.114   7.026  18.219  0.00  0.00    +0.000 A 
ATOM     15  C   UNL     1       4.311   7.395  17.605  0.00  0.00    +0.000 A 
ATOM     16  C   UNL     1       5.416   6.539  17.677  0.00  0.00    +0.000 A 
ATOM     17  H   UNL     1       6.578   3.923  19.359  0.00  0.00    +0.000 HD
ENDBRANCH   2   5
BRANCH   1  22
ATOM     18  C   UNL     1       9.145  12.369  18.498  0.00  0.00    +0.000 A 
ATOM     19  C   UNL     1       9.667  12.002  19.750  0.00  0.00    +0.000 A 
ATOM     20  C   UNL     1       9.610  10.680  20.188  0.00  0.00    +0.000 A 
ATOM     21  C   UNL     1       9.028   9.708  19.374  0.00  0.00    +0.000 A 
ATOM     22  C   UNL     1       8.499  10.024  18.116  0.00  0.00    +0.000 A 
ATOM     23  C   UNL     1       8.545  11.368  17.693  0.00  0.00    +0.000 A 
BRANCH  18  29
ATOM     24  C   UNL     1       6.767  14.533  18.151  0.00  0.00    +0.000 C 
ATOM     25  N   UNL     1       8.185  14.702  18.028  0.00  0.00    +0.000 N 
ATOM     26  N   UNL     1       8.663  15.888  17.608  0.00  0.00    +0.000 NA
ATOM     27  N   UNL     1       9.967  15.715  17.488  0.00  0.00    +0.000 NA
ATOM     28  N   UNL     1      10.319  14.435  17.820  0.00  0.00    +0.000 NA
ATOM     29  C   UNL     1       9.208  13.798  18.167  0.00  0.00    +0.000 A 
ENDBRANCH  18  29
ENDBRANCH   1  22
TORSDOF 3
ENDMDL
MODEL 5
REMARK VINA RESULT:      -8.8      1.029      1.363
REMARK  Name = 
REMARK  4 active torsions:
REMARK  status: ('A' for Active; 'I' for Inactive)
REMARK    1  A    between atoms: C_1  and  N_2
REMARK    2  A    between atoms: C_6  and  C_7
REMARK    3  A    between atoms: C_11  and  N_12
REMARK    4  A    between atoms: C_13  and  C_15
REMARK                            x       y       z     vdW  Elec       q    Type
REMARK                         _______ _______ _______ _____ _____    ______ ____
ROOT
ATOM      1  N   UNL     1       2.900   7.070  19.807  0.00  0.00    +0.000 N 
ATOM      2  C   UNL     1       2.843   5.789  19.253  0.00  0.00    +0.000 C 
ATOM      3  O   UNL     1       1.888   5.382  18.584  0.00  0.00    +0.000 OA
ATOM      4  H   UNL     1       3.512   7.239  20.591  0.00  0.00    +0.000 HD
ENDROOT
BRANCH   2   5
ATOM      5  C   UNL     1       4.074   4.860  19.395  0.00  0.00    +0.000 C 
ATOM      6  C   UNL     1       3.840   3.382  19.657  0.00  0.00    +0.000 C 
ATOM      7  C   UNL     1       3.099   2.804  18.478  0.00  0.00    +0.000 C 
ATOM      8  O   UNL     1       2.110   2.092  18.613  0.00  0.00    +0.000 OA
ATOM      9  N   UNL     1       3.665   3.080  17.260  0.00  0.00    +0.000 N 
ATOM     10  C   UNL     1       4.741   3.968  17.129  0.00  0.00    +0.000 A 
ATOM     11  C   UNL     1       5.598   3.881  16.040  0.00  0.00    +0.000 A 
ATOM     12  C   UNL     1       6.682   4.749  15.976  0.00  0.00    +0.000 A 
ATOM     13  F   UNL     1       7.590   4.593  15.005  0.00  0.00    +0.000 F 
ATOM     14  C   UNL     1       6.861   5.757  16.922  0.00  0.00    +0.000 A 
ATOM     15  C   UNL     1       5.989   5.852  18.007  0.00  0.00    +0.000 A 
ATOM     16  C   UNL     1       4.960   4.913  18.149  0.00  0.00    +0.000 A 
ATOM     17  H   UNL     1       3.290   2.602  16.449  0.00  0.00    +0.000 HD
ENDBRANCH   2   5
BRANCH   1  22
ATOM     18  C   UNL     1       0.338   9.824  20.209  0.00  0.00    +0.000 A 
ATOM     19  C   UNL     1       0.185  10.221  18.871  0.00  0.00    +0.000 A 
ATOM     20  C   UNL     1       0.901   9.593  17.852  0.00  0.00    +0.000 A 
ATOM     21  C   UNL     1       1.781   8.557  18.165  0.00  0.00    +0.000 A 
ATOM     22  C   UNL     1       1.963   8.122  19.485  0.00  0.00    +0.000 A 
ATOM     23  C   UNL     1       1.248   8.778  20.507  0.00  0.00    +0.000 A 
BRANCH  18  29
ATOM     24  C   UNL     1       0.053   9.398  23.402  0.00  0.00    +0.000 C 
ATOM     25  N   UNL     1      -0.527  10.399  22.556  0.00  0.00    +0.000 N 
ATOM     26  N   UNL     1      -1.413  11.263  23.085  0.00  0.00    +0.000 NA
ATOM     27  N   UNL     1      -1.850  11.981  22.066  0.00  0.00    +0.000 NA
ATOM     28  N   UNL     1      -1.257  11.580  20.901  0.00  0.00    +0.000 NA
ATOM     29  C   UNL     1      -0.421  10.594  21.202  0.00  0.00    +0.000 A 
ENDBRANCH  18  29
ENDBRANCH   1  22
TORSDOF 3
ENDMDL
MODEL 6
REMARK VINA RESULT:      -8.7      2.542      3.522
REMARK  Name = 
REMARK  4 active torsions:
REMARK  status: ('A' for Active; 'I' for Inactive)
REMARK    1  A    between atoms: C_1  and  N_2
REMARK    2  A    between atoms: C_6  and  C_7
REMARK    3  A    between atoms: C_11  and  N_12
REMARK    4  A    between atoms: C_13  and  C_15
REMARK                            x       y       z     vdW  Elec       q    Type
REMARK                         _______ _______ _______ _____ _____    ______ ____
ROOT
ATOM      1  N   UNL     1       2.402   7.195  17.774  0.00  0.00    +0.000 N 
ATOM      2  C   UNL     1       3.735   6.881  17.495  0.00  0.00    +0.000 C 
ATOM      3  O   UNL     1       4.649   7.711  17.542  0.00  0.00    +0.000 OA
ATOM      4  H   UNL     1       1.673   6.598  17.413  0.00  0.00    +0.000 HD
ENDROOT
BRANCH   2   5
ATOM      5  C   UNL     1       4.110   5.407  17.210  0.00  0.00    +0.000 C 
ATOM      6  C   UNL     1       5.548   4.969  17.429  0.00  0.00    +0.000 C 
ATOM      7  C   UNL     1       5.878   5.138  18.891  0.00  0.00    +0.000 C 
ATOM      8  O   UNL     1       6.904   5.690  19.270  0.00  0.00    +0.000 OA
ATOM      9  N   UNL     1       4.974   4.562  19.746  0.00  0.00    +0.000 N 
ATOM     10  C   UNL     1       3.767   4.017  19.290  0.00  0.00    +0.000 A 
ATOM     11  C   UNL     1       3.109   3.042  20.029  0.00  0.00    +0.000 A 
ATOM     12  C   UNL     1       1.941   2.491  19.513  0.00  0.00    +0.000 A 
ATOM     13  F   UNL     1       1.367   1.461  20.146  0.00  0.00    +0.000 F 
ATOM     14  C   UNL     1       1.374   2.970  18.334  0.00  0.00    +0.000 A 
ATOM     15  C   UNL     1       2.028   3.961  17.602  0.00  0.00    +0.000 A 
ATOM     16  C   UNL     1       3.265   4.443  18.046  0.00  0.00    +0.000 A 
ATOM     17  H   UNL     1       5.217   4.523  20.730  0.00  0.00    +0.000 HD
ENDBRANCH   2   5
BRANCH   1  22
ATOM     18  C   UNL     1       1.049   9.723  20.241  0.00  0.00    +0.000 A 
ATOM     19  C   UNL     1       1.219  10.907  19.504  0.00  0.00    +0.000 A 
ATOM     20  C   UNL     1       1.758  10.878  18.219  0.00  0.00    +0.000 A 
ATOM     21  C   UNL     1       2.134   9.659  17.656  0.00  0.00    +0.000 A 
ATOM     22  C   UNL     1       1.980   8.451  18.349  0.00  0.00    +0.000 A 
ATOM     23  C   UNL     1       1.452   8.496  19.656  0.00  0.00    +0.000 A 
BRANCH  18  29
ATOM     24  C   UNL     1      -1.289  11.653  21.366  0.00  0.00    +0.000 C 
ATOM     25  N   UNL     1      -0.471  10.704  22.062  0.00  0.00    +0.000 N 
ATOM     26  N   UNL     1      -0.565  10.623  23.402  0.00  0.00    +0.000 NA
ATOM     27  N   UNL     1       0.367   9.760  23.766  0.00  0.00    +0.000 NA
ATOM     28  N   UNL     1       1.052   9.299  22.675  0.00  0.00    +0.000 NA
ATOM     29  C   UNL     1       0.527   9.880  21.604  0.00  0.00    +0.000 A 
ENDBRANCH  18  29
ENDBRANCH   1  22
TORSDOF 3
ENDMDL
MODEL 7
REMARK VINA RESULT:      -8.6      1.116      1.178
REMARK  Name = 
REMARK  4 active torsions:
REMARK  status: ('A' for Active; 'I' for Inactive)
REMARK    1  A    between atoms: C_1  and  N_2
REMARK    2  A    between atoms: C_6  and  C_7
REMARK    3  A    between atoms: C_11  and  N_12
REMARK    4  A    between atoms: C_13  and  C_15
REMARK                            x       y       z     vdW  Elec       q    Type
REMARK                         _______ _______ _______ _____ _____    ______ ____
ROOT
ATOM      1  N   UNL     1       2.409   7.023  20.058  0.00  0.00    +0.000 N 
ATOM      2  C   UNL     1       2.523   5.990  19.124  0.00  0.00    +0.000 C 
ATOM      3  O   UNL     1       1.902   5.971  18.056  0.00  0.00    +0.000 OA
ATOM      4  H   UNL     1       2.660   6.844  21.018  0.00  0.00    +0.000 HD
ENDROOT
BRANCH   2   5
ATOM      5  C   UNL     1       3.548   4.860  19.383  0.00  0.00    +0.000 C 
ATOM      6  C   UNL     1       3.044   3.429  19.472  0.00  0.00    +0.000 C 
ATOM      7  C   UNL     1       2.440   3.056  18.142  0.00  0.00    +0.000 C 
ATOM      8  O   UNL     1       1.344   2.516  18.049  0.00  0.00    +0.000 OA
ATOM      9  N   UNL     1       3.248   3.305  17.062  0.00  0.00    +0.000 N 
ATOM     10  C   UNL     1       4.456   4.005  17.188  0.00  0.00    +0.000 A 
ATOM     11  C   UNL     1       5.467   3.839  16.250  0.00  0.00    +0.000 A 
ATOM     12  C   UNL     1       6.668   4.513  16.442  0.00  0.00    +0.000 A 
ATOM     13  F   UNL     1       7.697   4.264  15.623  0.00  0.00    +0.000 F 
ATOM     14  C   UNL     1       6.833   5.417  17.489  0.00  0.00    +0.000 A 
ATOM     15  C   UNL     1       5.809   5.594  18.421  0.00  0.00    +0.000 A 
ATOM     16  C   UNL     1       4.638   4.836  18.309  0.00  0.00    +0.000 A 
ATOM     17  H   UNL     1       2.952   2.947  16.161  0.00  0.00    +0.000 HD
ENDBRANCH   2   5
BRANCH   1  22
ATOM     18  C   UNL     1       0.281  10.112  20.547  0.00  0.00    +0.000 A 
ATOM     19  C   UNL     1       0.458  10.738  19.302  0.00  0.00    +0.000 A 
ATOM     20  C   UNL     1       1.253  10.155  18.315  0.00  0.00    +0.000 A 
ATOM     21  C   UNL     1       1.881   8.935  18.567  0.00  0.00    +0.000 A 
ATOM     22  C   UNL     1       1.730   8.270  19.791  0.00  0.00    +0.000 A 
ATOM     23  C   UNL     1       0.940   8.879  20.787  0.00  0.00    +0.000 A 
BRANCH  18  29
ATOM     24  C   UNL     1      -2.198  12.140  20.103  0.00  0.00    +0.000 C 
ATOM     25  N   UNL     1      -1.581  11.700  21.319  0.00  0.00    +0.000 N 
ATOM     26  N   UNL     1      -1.975  12.249  22.484  0.00  0.00    +0.000 NA
ATOM     27  N   UNL     1      -1.171  11.738  23.399  0.00  0.00    +0.000 NA
ATOM     28  N   UNL     1      -0.272  10.879  22.829  0.00  0.00    +0.000 NA
ATOM     29  C   UNL     1      -0.528  10.845  21.528  0.00  0.00    +0.000 A 
ENDBRANCH  18  29
ENDBRANCH   1  22
TORSDOF 3
ENDMDL
MODEL 8
REMARK VINA RESULT:      -8.6      3.150      4.365
REMARK  Name = 
REMARK  4 active torsions:
REMARK  status: ('A' for Active; 'I' for Inactive)
REMARK    1  A    between atoms: C_1  and  N_2
REMARK    2  A    between atoms: C_6  and  C_7
REMARK    3  A    between atoms: C_11  and  N_12
REMARK    4  A    between atoms: C_13  and  C_15
REMARK                            x       y       z     vdW  Elec       q    Type
REMARK                         _______ _______ _______ _____ _____    ______ ____
ROOT
ATOM      1  N   UNL     1       1.923   8.333  17.640  0.00  0.00    +0.000 N 
ATOM      2  C   UNL     1       2.230   7.347  18.580  0.00  0.00    +0.000 C 
ATOM      3  O   UNL     1       2.304   7.568  19.793  0.00  0.00    +0.000 OA
ATOM      4  H   UNL     1       2.192   8.193  16.677  0.00  0.00    +0.000 HD
ENDROOT
BRANCH   2   5
ATOM      5  C   UNL     1       2.387   5.883  18.102  0.00  0.00    +0.000 C 
ATOM      6  C   UNL     1       3.681   5.480  17.414  0.00  0.00    +0.000 C 
ATOM      7  C   UNL     1       4.812   5.652  18.396  0.00  0.00    +0.000 C 
ATOM      8  O   UNL     1       5.853   6.228  18.100  0.00  0.00    +0.000 OA
ATOM      9  N   UNL     1       4.606   5.050  19.611  0.00  0.00    +0.000 N 
ATOM     10  C   UNL     1       3.374   4.478  19.953  0.00  0.00    +0.000 A 
ATOM     11  C   UNL     1       3.303   3.484  20.921  0.00  0.00    +0.000 A 
ATOM     12  C   UNL     1       2.067   2.907  21.192  0.00  0.00    +0.000 A 
ATOM     13  F   UNL     1       2.001   1.860  22.024  0.00  0.00    +0.000 F 
ATOM     14  C   UNL     1       0.900   3.375  20.590  0.00  0.00    +0.000 A 
ATOM     15  C   UNL     1       0.973   4.385  19.630  0.00  0.00    +0.000 A 
ATOM     16  C   UNL     1       2.223   4.896  19.259  0.00  0.00    +0.000 A 
ATOM     17  H   UNL     1       5.387   5.014  20.256  0.00  0.00    +0.000 HD
ENDBRANCH   2   5
BRANCH   1  22
ATOM     18  C   UNL     1      -0.392  11.173  18.578  0.00  0.00    +0.000 A 
ATOM     19  C   UNL     1       0.539  12.212  18.743  0.00  0.00    +0.000 A 
ATOM     20  C   UNL     1       1.901  11.989  18.542  0.00  0.00    +0.000 A 
ATOM     21  C   UNL     1       2.345  10.720  18.172  0.00  0.00    +0.000 A 
ATOM     22  C   UNL     1       1.454   9.654  17.991  0.00  0.00    +0.000 A 
ATOM     23  C   UNL     1       0.082   9.887  18.216  0.00  0.00    +0.000 A 
BRANCH  18  29
ATOM     24  C   UNL     1      -3.016  11.006  16.694  0.00  0.00    +0.000 C 
ATOM     25  N   UNL     1      -2.893  11.426  18.059  0.00  0.00    +0.000 N 
ATOM     26  N   UNL     1      -3.973  11.936  18.682  0.00  0.00    +0.000 NA
ATOM     27  N   UNL     1      -3.539  12.328  19.866  0.00  0.00    +0.000 NA
ATOM     28  N   UNL     1      -2.200  12.080  19.998  0.00  0.00    +0.000 NA
ATOM     29  C   UNL     1      -1.791  11.508  18.873  0.00  0.00    +0.000 A 
ENDBRANCH  18  29
ENDBRANCH   1  22
TORSDOF 3
ENDMDL
MODEL 9
REMARK VINA RESULT:      -8.6      2.923      3.994
REMARK  Name = 
REMARK  4 active torsions:
REMARK  status: ('A' for Active; 'I' for Inactive)
REMARK    1  A    between atoms: C_1  and  N_2
REMARK    2  A    between atoms: C_6  and  C_7
REMARK    3  A    between atoms: C_11  and  N_12
REMARK    4  A    between atoms: C_13  and  C_15
REMARK                            x       y       z     vdW  Elec       q    Type
REMARK                         _______ _______ _______ _____ _____    ______ ____
ROOT
ATOM      1  N   UNL     1       2.640   6.746  18.165  0.00  0.00    +0.000 N 
ATOM      2  C   UNL     1       3.906   6.889  17.592  0.00  0.00    +0.000 C 
ATOM      3  O   UNL     1       4.555   7.939  17.639  0.00  0.00    +0.000 OA
ATOM      4  H   UNL     1       2.029   6.016  17.828  0.00  0.00    +0.000 HD
ENDROOT
BRANCH   2   5
ATOM      5  C   UNL     1       4.578   5.651  16.951  0.00  0.00    +0.000 C 
ATOM      6  C   UNL     1       6.093   5.541  17.000  0.00  0.00    +0.000 C 
ATOM      7  C   UNL     1       6.515   5.461  18.446  0.00  0.00    +0.000 C 
ATOM      8  O   UNL     1       7.420   6.150  18.902  0.00  0.00    +0.000 OA
ATOM      9  N   UNL     1       5.854   4.507  19.178  0.00  0.00    +0.000 N 
ATOM     10  C   UNL     1       4.765   3.798  18.656  0.00  0.00    +0.000 A 
ATOM     11  C   UNL     1       4.422   2.554  19.170  0.00  0.00    +0.000 A 
ATOM     12  C   UNL     1       3.366   1.862  18.587  0.00  0.00    +0.000 A 
ATOM     13  F   UNL     1       3.107   0.609  18.982  0.00  0.00    +0.000 F 
ATOM     14  C   UNL     1       2.593   2.433  17.579  0.00  0.00    +0.000 A 
ATOM     15  C   UNL     1       2.929   3.690  17.075  0.00  0.00    +0.000 A 
ATOM     16  C   UNL     1       4.060   4.351  17.570  0.00  0.00    +0.000 A 
ATOM     17  H   UNL     1       6.193   4.315  20.113  0.00  0.00    +0.000 HD
ENDBRANCH   2   5
BRANCH   1  22
ATOM     18  C   UNL     1       0.964   9.908  19.391  0.00  0.00    +0.000 A 
ATOM     19  C   UNL     1       0.829   9.606  20.756  0.00  0.00    +0.000 A 
ATOM     20  C   UNL     1       1.286   8.393  21.269  0.00  0.00    +0.000 A 
ATOM     21  C   UNL     1       1.886   7.466  20.417  0.00  0.00    +0.000 A 
ATOM     22  C   UNL     1       2.048   7.723  19.049  0.00  0.00    +0.000 A 
ATOM     23  C   UNL     1       1.563   8.946  18.539  0.00  0.00    +0.000 A 
BRANCH  18  29
ATOM     24  C   UNL     1      -1.933  10.572  18.117  0.00  0.00    +0.000 C 
ATOM     25  N   UNL     1      -0.842  11.450  18.418  0.00  0.00    +0.000 N 
ATOM     26  N   UNL     1      -0.927  12.742  18.048  0.00  0.00    +0.000 NA
ATOM     27  N   UNL     1       0.246  13.269  18.352  0.00  0.00    +0.000 NA
ATOM     28  N   UNL     1       1.072  12.328  18.902  0.00  0.00    +0.000 NA
ATOM     29  C   UNL     1       0.394  11.188  18.953  0.00  0.00    +0.000 A 
ENDBRANCH  18  29
ENDBRANCH   1  22
TORSDOF 3
ENDMDL
