MODEL 1
REMARK VINA RESULT:      -6.2      0.000      0.000
REMARK  Name = 
REMARK  3 active torsions:
REMARK  status: ('A' for Active; 'I' for Inactive)
REMARK    1  A    between atoms: C_2  and  C_3
REMARK    2  A    between atoms: C_18  and  C_19
REMARK    3  A    between atoms: C_18  and  C_25
REMARK                            x       y       z     vdW  Elec       q    Type
REMARK                         _______ _______ _______ _____ _____    ______ ____
ROOT
ATOM      1  O   UNL     1      -0.352  10.580  23.091  0.00  0.00    +0.000 OA
ATOM      2  C   UNL     1      -0.616  11.246  22.079  0.00  0.00    +0.000 C 
ATOM      3  N   UNL     1      -0.288  10.752  20.816  0.00  0.00    +0.000 N 
ATOM      4  C   UNL     1       0.355   9.444  20.776  0.00  0.00    +0.000 C 
ATOM      5  C   UNL     1       1.215   9.462  19.531  0.00  0.00    +0.000 C 
ATOM      6  C   UNL     1       0.359  10.230  18.547  0.00  0.00    +0.000 C 
ATOM      7  C   UNL     1      -0.457  11.294  19.380  0.00  0.00    +0.000 C 
ENDROOT
BRANCH   2   8
ATOM      8  C   UNL     1      -1.161  12.617  22.294  0.00  0.00    +0.000 A 
ATOM      9  C   UNL     1      -0.342  13.686  22.437  0.00  0.00    +0.000 A 
ATOM     10  C   UNL     1      -0.876  15.034  22.650  0.00  0.00    +0.000 A 
ATOM     11  C   UNL     1      -2.201  15.239  22.504  0.00  0.00    +0.000 A 
ATOM     12  N   UNL     1      -3.024  14.159  22.310  0.00  0.00    +0.000 N 
ATOM     13  C   UNL     1      -2.579  12.894  22.545  0.00  0.00    +0.000 A 
ATOM     14  O   UNL     1      -3.317  12.059  23.061  0.00  0.00    +0.000 OA
ATOM     15  C   UNL     1      -2.893  16.551  22.733  0.00  0.00    +0.000 C 
ATOM     16  C   UNL     1      -2.020  17.532  23.509  0.00  0.00    +0.000 C 
ATOM     17  C   UNL     1      -0.599  17.538  22.953  0.00  0.00    +0.000 C 
ATOM     18  C   UNL     1       0.053  16.151  23.051  0.00  0.00    +0.000 C 
ATOM     19  H   UNL     1      -4.025  14.281  22.401  0.00  0.00    +0.000 HD
ENDBRANCH   2   8
BRANCH   7  20
ATOM     20  C   UNL     1       0.254  12.661  19.217  0.00  0.00    +0.000 A 
ATOM     21  C   UNL     1      -0.457  13.837  18.916  0.00  0.00    +0.000 A 
ATOM     22  C   UNL     1       0.184  15.081  18.845  0.00  0.00    +0.000 A 
ATOM     23  C   UNL     1       1.557  15.175  19.035  0.00  0.00    +0.000 A 
ATOM     24  C   UNL     1       2.294  14.021  19.266  0.00  0.00    +0.000 A 
ATOM     25  C   UNL     1       1.654  12.780  19.341  0.00  0.00    +0.000 A 
ENDBRANCH   7  20
BRANCH   7  26
ATOM     26  C   UNL     1      -1.941  11.181  18.783  0.00  0.00    +0.000 C 
ATOM     27  F   UNL     1      -2.299   9.890  18.579  0.00  0.00    +0.000 F 
ATOM     28  F   UNL     1      -2.893  11.798  19.517  0.00  0.00    +0.000 F 
ATOM     29  F   UNL     1      -2.040  11.779  17.560  0.00  0.00    +0.000 F 
ENDBRANCH   7  26
TORSDOF 3
ENDMDL
MODEL 2
REMARK VINA RESULT:      -6.1      9.305     11.450
REMARK  Name = 
REMARK  3 active torsions:
REMARK  status: ('A' for Active; 'I' for Inactive)
REMARK    1  A    between atoms: C_2  and  C_3
REMARK    2  A    between atoms: C_18  and  C_19
REMARK    3  A    between atoms: C_18  and  C_25
REMARK                            x       y       z     vdW  Elec       q    Type
REMARK                         _______ _______ _______ _____ _____    ______ ____
ROOT
ATOM      1  O   UNL     1      12.131  16.199  21.119  0.00  0.00    +0.000 OA
ATOM      2  C   UNL     1      11.375  15.536  20.392  0.00  0.00    +0.000 C 
ATOM      3  N   UNL     1      11.321  15.799  19.022  0.00  0.00    +0.000 N 
ATOM      4  C   UNL     1      12.188  16.863  18.529  0.00  0.00    +0.000 C 
ATOM      5  C   UNL     1      11.478  17.425  17.318  0.00  0.00    +0.000 C 
ATOM      6  C   UNL     1      10.882  16.190  16.678  0.00  0.00    +0.000 C 
ATOM      7  C   UNL     1      10.519  15.195  17.849  0.00  0.00    +0.000 C 
ENDROOT
BRANCH   2   8
ATOM      8  C   UNL     1      10.462  14.570  21.065  0.00  0.00    +0.000 A 
ATOM      9  C   UNL     1       9.643  14.958  22.071  0.00  0.00    +0.000 A 
ATOM     10  C   UNL     1       8.746  14.009  22.735  0.00  0.00    +0.000 A 
ATOM     11  C   UNL     1       8.594  12.778  22.205  0.00  0.00    +0.000 A 
ATOM     12  N   UNL     1       9.393  12.403  21.155  0.00  0.00    +0.000 N 
ATOM     13  C   UNL     1      10.502  13.122  20.833  0.00  0.00    +0.000 A 
ATOM     14  O   UNL     1      11.532  12.556  20.476  0.00  0.00    +0.000 OA
ATOM     15  C   UNL     1       7.748  11.690  22.799  0.00  0.00    +0.000 C 
ATOM     16  C   UNL     1       7.377  11.979  24.250  0.00  0.00    +0.000 C 
ATOM     17  C   UNL     1       6.928  13.429  24.408  0.00  0.00    +0.000 C 
ATOM     18  C   UNL     1       8.036  14.412  24.002  0.00  0.00    +0.000 C 
ATOM     19  H   UNL     1       9.426  11.427  20.887  0.00  0.00    +0.000 HD
ENDBRANCH   2   8
BRANCH   7  20
ATOM     20  C   UNL     1       8.995  15.312  18.104  0.00  0.00    +0.000 A 
ATOM     21  C   UNL     1       8.420  16.474  18.650  0.00  0.00    +0.000 A 
ATOM     22  C   UNL     1       7.033  16.600  18.807  0.00  0.00    +0.000 A 
ATOM     23  C   UNL     1       6.189  15.552  18.458  0.00  0.00    +0.000 A 
ATOM     24  C   UNL     1       6.734  14.368  17.981  0.00  0.00    +0.000 A 
ATOM     25  C   UNL     1       8.118  14.244  17.820  0.00  0.00    +0.000 A 
ENDBRANCH   7  20
BRANCH   7  26
ATOM     26  C   UNL     1      11.052  13.779  17.321  0.00  0.00    +0.000 C 
ATOM     27  F   UNL     1      12.332  13.554  17.705  0.00  0.00    +0.000 F 
ATOM     28  F   UNL     1      10.289  12.721  17.672  0.00  0.00    +0.000 F 
ATOM     29  F   UNL     1      11.071  13.723  15.958  0.00  0.00    +0.000 F 
ENDBRANCH   7  26
TORSDOF 3
ENDMDL
MODEL 3
REMARK VINA RESULT:      -6.1      0.182      1.164
REMARK  Name = 
REMARK  3 active torsions:
REMARK  status: ('A' for Active; 'I' for Inactive)
REMARK    1  A    between atoms: C_2  and  C_3
REMARK    2  A    between atoms: C_18  and  C_19
REMARK    3  A    between atoms: C_18  and  C_25
REMARK                            x       y       z     vdW  Elec       q    Type
REMARK                         _______ _______ _______ _____ _____    ______ ____
ROOT
ATOM      1  O   UNL     1      -0.603  10.465  23.147  0.00  0.00    +0.000 OA
ATOM      2  C   UNL     1      -0.799  11.173  22.148  0.00  0.00    +0.000 C 
ATOM      3  N   UNL     1      -0.421  10.715  20.885  0.00  0.00    +0.000 N 
ATOM      4  C   UNL     1       0.191   9.393  20.829  0.00  0.00    +0.000 C 
ATOM      5  C   UNL     1       1.112   9.432  19.630  0.00  0.00    +0.000 C 
ATOM      6  C   UNL     1       0.326  10.256  18.634  0.00  0.00    +0.000 C 
ATOM      7  C   UNL     1      -0.504  11.311  19.464  0.00  0.00    +0.000 C 
ENDROOT
BRANCH   2   8
ATOM      8  C   UNL     1      -1.319  12.550  22.385  0.00  0.00    +0.000 A 
ATOM      9  C   UNL     1      -0.482  13.605  22.526  0.00  0.00    +0.000 A 
ATOM     10  C   UNL     1      -0.991  14.958  22.761  0.00  0.00    +0.000 A 
ATOM     11  C   UNL     1      -2.315  15.184  22.639  0.00  0.00    +0.000 A 
ATOM     12  N   UNL     1      -3.158  14.119  22.448  0.00  0.00    +0.000 N 
ATOM     13  C   UNL     1      -2.728  12.845  22.664  0.00  0.00    +0.000 A 
ATOM     14  O   UNL     1      -3.470  12.016  23.183  0.00  0.00    +0.000 OA
ATOM     15  C   UNL     1      -2.984  16.504  22.894  0.00  0.00    +0.000 C 
ATOM     16  C   UNL     1      -2.084  17.464  23.664  0.00  0.00    +0.000 C 
ATOM     17  C   UNL     1      -0.672  17.455  23.084  0.00  0.00    +0.000 C 
ATOM     18  C   UNL     1      -0.039  16.057  23.158  0.00  0.00    +0.000 C 
ATOM     19  H   UNL     1      -4.156  14.256  22.557  0.00  0.00    +0.000 HD
ENDBRANCH   2   8
BRANCH   7  20
ATOM     20  C   UNL     1       0.249  12.663  19.386  0.00  0.00    +0.000 A 
ATOM     21  C   UNL     1       1.615  12.773  19.708  0.00  0.00    +0.000 A 
ATOM     22  C   UNL     1       2.306  13.983  19.562  0.00  0.00    +0.000 A 
ATOM     23  C   UNL     1       1.641  15.123  19.127  0.00  0.00    +0.000 A 
ATOM     24  C   UNL     1       0.278  15.060  18.867  0.00  0.00    +0.000 A 
ATOM     25  C   UNL     1      -0.411  13.851  19.008  0.00  0.00    +0.000 A 
ENDBRANCH   7  20
BRANCH   7  26
ATOM     26  C   UNL     1      -1.958  11.260  18.791  0.00  0.00    +0.000 C 
ATOM     27  F   UNL     1      -2.895  11.834  19.585  0.00  0.00    +0.000 F 
ATOM     28  F   UNL     1      -2.029  11.801  17.555  0.00  0.00    +0.000 F 
ATOM     29  F   UNL     1      -2.383   9.976  18.605  0.00  0.00    +0.000 F 
ENDBRANCH   7  26
TORSDOF 3
ENDMDL
MODEL 4
REMARK VINA RESULT:      -6.0      1.191      1.912
REMARK  Name = 
REMARK  3 active torsions:
REMARK  status: ('A' for Active; 'I' for Inactive)
REMARK    1  A    between atoms: C_2  and  C_3
REMARK    2  A    between atoms: C_18  and  C_19
REMARK    3  A    between atoms: C_18  and  C_25
REMARK                            x       y       z     vdW  Elec       q    Type
REMARK                         _______ _______ _______ _____ _____    ______ ____
ROOT
ATOM      1  O   UNL     1      -0.063  10.411  22.766  0.00  0.00    +0.000 OA
ATOM      2  C   UNL     1      -0.395  11.074  21.771  0.00  0.00    +0.000 C 
ATOM      3  N   UNL     1      -0.074  10.616  20.492  0.00  0.00    +0.000 N 
ATOM      4  C   UNL     1       0.644   9.350  20.415  0.00  0.00    +0.000 C 
ATOM      5  C   UNL     1       1.465   9.435  19.148  0.00  0.00    +0.000 C 
ATOM      6  C   UNL     1       0.538  10.163  18.199  0.00  0.00    +0.000 C 
ATOM      7  C   UNL     1      -0.316  11.165  19.070  0.00  0.00    +0.000 C 
ENDROOT
BRANCH   2   8
ATOM      8  C   UNL     1      -1.013  12.407  22.021  0.00  0.00    +0.000 A 
ATOM      9  C   UNL     1      -2.319  12.640  21.747  0.00  0.00    +0.000 A 
ATOM     10  C   UNL     1      -2.928  13.950  21.989  0.00  0.00    +0.000 A 
ATOM     11  C   UNL     1      -2.228  14.875  22.676  0.00  0.00    +0.000 A 
ATOM     12  N   UNL     1      -0.919  14.617  22.995  0.00  0.00    +0.000 N 
ATOM     13  C   UNL     1      -0.245  13.598  22.397  0.00  0.00    +0.000 A 
ATOM     14  O   UNL     1       0.935  13.729  22.081  0.00  0.00    +0.000 OA
ATOM     15  C   UNL     1      -2.703  16.270  22.960  0.00  0.00    +0.000 C 
ATOM     16  C   UNL     1      -3.884  16.664  22.079  0.00  0.00    +0.000 C 
ATOM     17  C   UNL     1      -4.910  15.535  22.024  0.00  0.00    +0.000 C 
ATOM     18  C   UNL     1      -4.303  14.247  21.447  0.00  0.00    +0.000 C 
ATOM     19  H   UNL     1      -0.335  15.376  23.328  0.00  0.00    +0.000 HD
ENDBRANCH   2   8
BRANCH   7  20
ATOM     20  C   UNL     1       0.308  12.574  18.907  0.00  0.00    +0.000 A 
ATOM     21  C   UNL     1      -0.486  13.730  18.798  0.00  0.00    +0.000 A 
ATOM     22  C   UNL     1       0.087  15.007  18.727  0.00  0.00    +0.000 A 
ATOM     23  C   UNL     1       1.468  15.158  18.725  0.00  0.00    +0.000 A 
ATOM     24  C   UNL     1       2.277  14.030  18.763  0.00  0.00    +0.000 A 
ATOM     25  C   UNL     1       1.706  12.755  18.838  0.00  0.00    +0.000 A 
ENDBRANCH   7  20
BRANCH   7  26
ATOM     26  C   UNL     1      -1.807  10.972  18.513  0.00  0.00    +0.000 C 
ATOM     27  F   UNL     1      -2.176   9.668  18.521  0.00  0.00    +0.000 F 
ATOM     28  F   UNL     1      -2.747  11.706  19.147  0.00  0.00    +0.000 F 
ATOM     29  F   UNL     1      -1.915  11.368  17.211  0.00  0.00    +0.000 F 
ENDBRANCH   7  26
TORSDOF 3
ENDMDL
MODEL 5
REMARK VINA RESULT:      -5.9      2.693      5.754
REMARK  Name = 
REMARK  3 active torsions:
REMARK  status: ('A' for Active; 'I' for Inactive)
REMARK    1  A    between atoms: C_2  and  C_3
REMARK    2  A    between atoms: C_18  and  C_19
REMARK    3  A    between atoms: C_18  and  C_25
REMARK                            x       y       z     vdW  Elec       q    Type
REMARK                         _______ _______ _______ _____ _____    ______ ____
ROOT
ATOM      1  O   UNL     1      -4.395  13.738  21.293  0.00  0.00    +0.000 OA
ATOM      2  C   UNL     1      -3.231  13.930  21.677  0.00  0.00    +0.000 C 
ATOM      3  N   UNL     1      -2.744  15.233  21.795  0.00  0.00    +0.000 N 
ATOM      4  C   UNL     1      -3.670  16.307  21.455  0.00  0.00    +0.000 C 
ATOM      5  C   UNL     1      -2.799  17.442  20.966  0.00  0.00    +0.000 C 
ATOM      6  C   UNL     1      -1.597  17.358  21.881  0.00  0.00    +0.000 C 
ATOM      7  C   UNL     1      -1.387  15.832  22.225  0.00  0.00    +0.000 C 
ENDROOT
BRANCH   2   8
ATOM      8  C   UNL     1      -2.371  12.727  21.865  0.00  0.00    +0.000 A 
ATOM      9  C   UNL     1      -1.637  12.220  20.847  0.00  0.00    +0.000 A 
ATOM     10  C   UNL     1      -0.794  11.036  21.030  0.00  0.00    +0.000 A 
ATOM     11  C   UNL     1      -0.595  10.565  22.278  0.00  0.00    +0.000 A 
ATOM     12  N   UNL     1      -1.305  11.114  23.316  0.00  0.00    +0.000 N 
ATOM     13  C   UNL     1      -2.388  11.903  23.078  0.00  0.00    +0.000 A 
ATOM     14  O   UNL     1      -3.383  11.830  23.794  0.00  0.00    +0.000 OA
ATOM     15  C   UNL     1       0.204   9.340  22.613  0.00  0.00    +0.000 C 
ATOM     16  C   UNL     1       0.456   8.467  21.388  0.00  0.00    +0.000 C 
ATOM     17  C   UNL     1       0.886   9.323  20.201  0.00  0.00    +0.000 C 
ATOM     18  C   UNL     1      -0.189  10.355  19.828  0.00  0.00    +0.000 C 
ATOM     19  H   UNL     1      -1.313  10.638  24.211  0.00  0.00    +0.000 HD
ENDBRANCH   2   8
BRANCH   7  20
ATOM     20  C   UNL     1      -0.240  15.304  21.326  0.00  0.00    +0.000 A 
ATOM     21  C   UNL     1       0.871  14.626  21.861  0.00  0.00    +0.000 A 
ATOM     22  C   UNL     1       1.866  14.086  21.035  0.00  0.00    +0.000 A 
ATOM     23  C   UNL     1       1.794  14.242  19.656  0.00  0.00    +0.000 A 
ATOM     24  C   UNL     1       0.744  14.965  19.106  0.00  0.00    +0.000 A 
ATOM     25  C   UNL     1      -0.251  15.501  19.929  0.00  0.00    +0.000 A 
ENDBRANCH   7  20
BRANCH   7  26
ATOM     26  C   UNL     1      -1.117  15.835  23.805  0.00  0.00    +0.000 C 
ATOM     27  F   UNL     1      -0.988  14.575  24.290  0.00  0.00    +0.000 F 
ATOM     28  F   UNL     1      -0.056  16.574  24.196  0.00  0.00    +0.000 F 
ATOM     29  F   UNL     1      -2.161  16.380  24.494  0.00  0.00    +0.000 F 
ENDBRANCH   7  26
TORSDOF 3
ENDMDL
MODEL 6
REMARK VINA RESULT:      -5.9      1.211      2.253
REMARK  Name = 
REMARK  3 active torsions:
REMARK  status: ('A' for Active; 'I' for Inactive)
REMARK    1  A    between atoms: C_2  and  C_3
REMARK    2  A    between atoms: C_18  and  C_19
REMARK    3  A    between atoms: C_18  and  C_25
REMARK                            x       y       z     vdW  Elec       q    Type
REMARK                         _______ _______ _______ _____ _____    ______ ____
ROOT
ATOM      1  O   UNL     1      -0.307  10.232  22.776  0.00  0.00    +0.000 OA
ATOM      2  C   UNL     1      -0.573  10.932  21.787  0.00  0.00    +0.000 C 
ATOM      3  N   UNL     1      -0.191  10.509  20.513  0.00  0.00    +0.000 N 
ATOM      4  C   UNL     1       0.509   9.232  20.434  0.00  0.00    +0.000 C 
ATOM      5  C   UNL     1       1.399   9.342  19.216  0.00  0.00    +0.000 C 
ATOM      6  C   UNL     1       0.538  10.117  18.242  0.00  0.00    +0.000 C 
ATOM      7  C   UNL     1      -0.345  11.107  19.098  0.00  0.00    +0.000 C 
ENDROOT
BRANCH   2   8
ATOM      8  C   UNL     1      -1.181  12.269  22.046  0.00  0.00    +0.000 A 
ATOM      9  C   UNL     1      -2.474  12.525  21.738  0.00  0.00    +0.000 A 
ATOM     10  C   UNL     1      -3.073  13.838  21.989  0.00  0.00    +0.000 A 
ATOM     11  C   UNL     1      -2.382  14.739  22.717  0.00  0.00    +0.000 A 
ATOM     12  N   UNL     1      -1.087  14.457  23.070  0.00  0.00    +0.000 N 
ATOM     13  C   UNL     1      -0.408  13.440  22.470  0.00  0.00    +0.000 A 
ATOM     14  O   UNL     1       0.782  13.562  22.193  0.00  0.00    +0.000 OA
ATOM     15  C   UNL     1      -2.847  16.135  23.015  0.00  0.00    +0.000 C 
ATOM     16  C   UNL     1      -3.996  16.563  22.108  0.00  0.00    +0.000 C 
ATOM     17  C   UNL     1      -5.034  15.450  21.998  0.00  0.00    +0.000 C 
ATOM     18  C   UNL     1      -4.427  14.166  21.413  0.00  0.00    +0.000 C 
ATOM     19  H   UNL     1      -0.504  15.200  23.435  0.00  0.00    +0.000 HD
ENDBRANCH   2   8
BRANCH   7  20
ATOM     20  C   UNL     1       0.311  12.509  19.015  0.00  0.00    +0.000 A 
ATOM     21  C   UNL     1       1.705  12.683  19.111  0.00  0.00    +0.000 A 
ATOM     22  C   UNL     1       2.296  13.944  18.960  0.00  0.00    +0.000 A 
ATOM     23  C   UNL     1       1.507  15.068  18.746  0.00  0.00    +0.000 A 
ATOM     24  C   UNL     1       0.126  14.935  18.714  0.00  0.00    +0.000 A 
ATOM     25  C   UNL     1      -0.465  13.676  18.861  0.00  0.00    +0.000 A 
ENDBRANCH   7  20
BRANCH   7  26
ATOM     26  C   UNL     1      -1.806  10.961  18.455  0.00  0.00    +0.000 C 
ATOM     27  F   UNL     1      -2.732  11.660  19.157  0.00  0.00    +0.000 F 
ATOM     28  F   UNL     1      -1.887  11.299  17.150  0.00  0.00    +0.000 F 
ATOM     29  F   UNL     1      -2.240   9.667  18.479  0.00  0.00    +0.000 F 
ENDBRANCH   7  26
TORSDOF 3
ENDMDL
MODEL 7
REMARK VINA RESULT:      -5.9      3.522      6.399
REMARK  Name = 
REMARK  3 active torsions:
REMARK  status: ('A' for Active; 'I' for Inactive)
REMARK    1  A    between atoms: C_2  and  C_3
REMARK    2  A    between atoms: C_18  and  C_19
REMARK    3  A    between atoms: C_18  and  C_25
REMARK                            x       y       z     vdW  Elec       q    Type
REMARK                         _______ _______ _______ _____ _____    ______ ____
ROOT
ATOM      1  O   UNL     1      -3.846  12.475  24.181  0.00  0.00    +0.000 OA
ATOM      2  C   UNL     1      -4.245  12.861  23.072  0.00  0.00    +0.000 C 
ATOM      3  N   UNL     1      -5.612  13.028  22.844  0.00  0.00    +0.000 N 
ATOM      4  C   UNL     1      -6.499  12.735  23.963  0.00  0.00    +0.000 C 
ATOM      5  C   UNL     1      -7.799  12.287  23.333  0.00  0.00    +0.000 C 
ATOM      6  C   UNL     1      -7.914  13.193  22.127  0.00  0.00    +0.000 C 
ATOM      7  C   UNL     1      -6.444  13.475  21.622  0.00  0.00    +0.000 C 
ENDROOT
BRANCH   2   8
ATOM      8  C   UNL     1      -3.224  12.998  21.994  0.00  0.00    +0.000 A 
ATOM      9  C   UNL     1      -2.615  11.913  21.458  0.00  0.00    +0.000 A 
ATOM     10  C   UNL     1      -1.610  12.046  20.401  0.00  0.00    +0.000 A 
ATOM     11  C   UNL     1      -1.434  13.250  19.819  0.00  0.00    +0.000 A 
ATOM     12  N   UNL     1      -2.090  14.340  20.333  0.00  0.00    +0.000 N 
ATOM     13  C   UNL     1      -2.671  14.286  21.563  0.00  0.00    +0.000 A 
ATOM     14  O   UNL     1      -2.621  15.252  22.320  0.00  0.00    +0.000 OA
ATOM     15  C   UNL     1      -0.414  13.546  18.758  0.00  0.00    +0.000 C 
ATOM     16  C   UNL     1       0.652  12.460  18.670  0.00  0.00    +0.000 C 
ATOM     17  C   UNL     1       0.011  11.076  18.706  0.00  0.00    +0.000 C 
ATOM     18  C   UNL     1      -0.780  10.853  20.004  0.00  0.00    +0.000 C 
ATOM     19  H   UNL     1      -1.811  15.267  20.035  0.00  0.00    +0.000 HD
ENDBRANCH   2   8
BRANCH   7  20
ATOM     20  C   UNL     1      -6.182  12.551  20.407  0.00  0.00    +0.000 A 
ATOM     21  C   UNL     1      -5.320  12.927  19.360  0.00  0.00    +0.000 A 
ATOM     22  C   UNL     1      -5.029  12.055  18.302  0.00  0.00    +0.000 A 
ATOM     23  C   UNL     1      -5.623  10.800  18.244  0.00  0.00    +0.000 A 
ATOM     24  C   UNL     1      -6.530  10.429  19.228  0.00  0.00    +0.000 A 
ATOM     25  C   UNL     1      -6.817  11.297  20.286  0.00  0.00    +0.000 A 
ENDBRANCH   7  20
BRANCH   7  26
ATOM     26  C   UNL     1      -6.440  15.052  21.339  0.00  0.00    +0.000 C 
ATOM     27  F   UNL     1      -6.739  15.760  22.456  0.00  0.00    +0.000 F 
ATOM     28  F   UNL     1      -5.294  15.527  20.804  0.00  0.00    +0.000 F 
ATOM     29  F   UNL     1      -7.391  15.404  20.426  0.00  0.00    +0.000 F 
ENDBRANCH   7  26
TORSDOF 3
ENDMDL
MODEL 8
REMARK VINA RESULT:      -5.8      8.594     10.216
REMARK  Name = 
REMARK  3 active torsions:
REMARK  status: ('A' for Active; 'I' for Inactive)
REMARK    1  A    between atoms: C_2  and  C_3
REMARK    2  A    between atoms: C_18  and  C_19
REMARK    3  A    between atoms: C_18  and  C_25
REMARK                            x       y       z     vdW  Elec       q    Type
REMARK                         _______ _______ _______ _____ _____    ______ ____
ROOT
ATOM      1  O   UNL     1       6.980  14.024  17.487  0.00  0.00    +0.000 OA
ATOM      2  C   UNL     1       7.777  14.211  18.419  0.00  0.00    +0.000 C 
ATOM      3  N   UNL     1       8.853  13.341  18.600  0.00  0.00    +0.000 N 
ATOM      4  C   UNL     1       8.969  12.243  17.647  0.00  0.00    +0.000 C 
ATOM      5  C   UNL     1       9.655  11.129  18.406  0.00  0.00    +0.000 C 
ATOM      6  C   UNL     1      10.659  11.875  19.258  0.00  0.00    +0.000 C 
ATOM      7  C   UNL     1      10.007  13.266  19.623  0.00  0.00    +0.000 C 
ENDROOT
BRANCH   2   8
ATOM      8  C   UNL     1       7.452  15.303  19.380  0.00  0.00    +0.000 A 
ATOM      9  C   UNL     1       6.549  15.121  20.373  0.00  0.00    +0.000 A 
ATOM     10  C   UNL     1       6.226  16.193  21.317  0.00  0.00    +0.000 A 
ATOM     11  C   UNL     1       6.983  17.310  21.316  0.00  0.00    +0.000 A 
ATOM     12  N   UNL     1       7.930  17.471  20.338  0.00  0.00    +0.000 N 
ATOM     13  C   UNL     1       7.925  16.683  19.228  0.00  0.00    +0.000 A 
ATOM     14  O   UNL     1       8.195  17.154  18.126  0.00  0.00    +0.000 OA
ATOM     15  C   UNL     1       6.744  18.505  22.193  0.00  0.00    +0.000 C 
ATOM     16  C   UNL     1       5.351  18.493  22.812  0.00  0.00    +0.000 C 
ATOM     17  C   UNL     1       5.019  17.106  23.355  0.00  0.00    +0.000 C 
ATOM     18  C   UNL     1       5.049  16.042  22.247  0.00  0.00    +0.000 C 
ATOM     19  H   UNL     1       8.356  18.381  20.211  0.00  0.00    +0.000 HD
ENDBRANCH   2   8
BRANCH   7  20
ATOM     20  C   UNL     1       9.458  13.159  21.068  0.00  0.00    +0.000 A 
ATOM     21  C   UNL     1       9.564  14.222  21.984  0.00  0.00    +0.000 A 
ATOM     22  C   UNL     1       8.998  14.145  23.264  0.00  0.00    +0.000 A 
ATOM     23  C   UNL     1       8.345  12.989  23.674  0.00  0.00    +0.000 A 
ATOM     24  C   UNL     1       8.284  11.899  22.815  0.00  0.00    +0.000 A 
ATOM     25  C   UNL     1       8.845  11.978  21.536  0.00  0.00    +0.000 A 
ENDBRANCH   7  20
BRANCH   7  26
ATOM     26  C   UNL     1      11.195  14.314  19.383  0.00  0.00    +0.000 C 
ATOM     27  F   UNL     1      10.804  15.583  19.657  0.00  0.00    +0.000 F 
ATOM     28  F   UNL     1      12.333  14.043  20.059  0.00  0.00    +0.000 F 
ATOM     29  F   UNL     1      11.594  14.336  18.078  0.00  0.00    +0.000 F 
ENDBRANCH   7  26
TORSDOF 3
ENDMDL
MODEL 9
REMARK VINA RESULT:      -5.6      1.800      2.618
REMARK  Name = 
REMARK  3 active torsions:
REMARK  status: ('A' for Active; 'I' for Inactive)
REMARK    1  A    between atoms: C_2  and  C_3
REMARK    2  A    between atoms: C_18  and  C_19
REMARK    3  A    between atoms: C_18  and  C_25
REMARK                            x       y       z     vdW  Elec       q    Type
REMARK                         _______ _______ _______ _____ _____    ______ ____
ROOT
ATOM      1  O   UNL     1      -0.337  10.717  23.232  0.00  0.00    +0.000 OA
ATOM      2  C   UNL     1      -0.823  11.474  22.378  0.00  0.00    +0.000 C 
ATOM      3  N   UNL     1      -0.412  11.377  21.048  0.00  0.00    +0.000 N 
ATOM      4  C   UNL     1       0.586  10.357  20.748  0.00  0.00    +0.000 C 
ATOM      5  C   UNL     1       1.355  10.891  19.560  0.00  0.00    +0.000 C 
ATOM      6  C   UNL     1       0.275  11.560  18.738  0.00  0.00    +0.000 C 
ATOM      7  C   UNL     1      -0.787  12.135  19.756  0.00  0.00    +0.000 C 
ENDROOT
BRANCH   2   8
ATOM      8  C   UNL     1      -1.739  12.545  22.864  0.00  0.00    +0.000 A 
ATOM      9  C   UNL     1      -3.070  12.498  22.621  0.00  0.00    +0.000 A 
ATOM     10  C   UNL     1      -3.971  13.551  23.096  0.00  0.00    +0.000 A 
ATOM     11  C   UNL     1      -3.494  14.475  23.955  0.00  0.00    +0.000 A 
ATOM     12  N   UNL     1      -2.153  14.491  24.238  0.00  0.00    +0.000 N 
ATOM     13  C   UNL     1      -1.271  13.797  23.468  0.00  0.00    +0.000 A 
ATOM     14  O   UNL     1      -0.169  14.269  23.200  0.00  0.00    +0.000 OA
ATOM     15  C   UNL     1      -4.286  15.634  24.488  0.00  0.00    +0.000 C 
ATOM     16  C   UNL     1      -5.555  15.882  23.680  0.00  0.00    +0.000 C 
ATOM     17  C   UNL     1      -6.276  14.567  23.400  0.00  0.00    +0.000 C 
ATOM     18  C   UNL     1      -5.394  13.597  22.600  0.00  0.00    +0.000 C 
ATOM     19  H   UNL     1      -1.760  15.295  24.715  0.00  0.00    +0.000 HD
ENDBRANCH   2   8
BRANCH   7  20
ATOM     20  C   UNL     1      -0.516  13.653  19.907  0.00  0.00    +0.000 A 
ATOM     21  C   UNL     1      -1.562  14.587  20.013  0.00  0.00    +0.000 A 
ATOM     22  C   UNL     1      -1.309  15.949  20.224  0.00  0.00    +0.000 A 
ATOM     23  C   UNL     1      -0.002  16.416  20.298  0.00  0.00    +0.000 A 
ATOM     24  C   UNL     1       1.051  15.527  20.130  0.00  0.00    +0.000 A 
ATOM     25  C   UNL     1       0.798  14.167  19.923  0.00  0.00    +0.000 A 
ENDBRANCH   7  20
BRANCH   7  26
ATOM     26  C   UNL     1      -2.193  11.718  19.109  0.00  0.00    +0.000 C 
ATOM     27  F   UNL     1      -3.231  12.068  19.907  0.00  0.00    +0.000 F 
ATOM     28  F   UNL     1      -2.406  12.195  17.864  0.00  0.00    +0.000 F 
ATOM     29  F   UNL     1      -2.297  10.365  18.957  0.00  0.00    +0.000 F 
ENDBRANCH   7  26
TORSDOF 3
ENDMDL
