MODEL 1
REMARK VINA RESULT:      -9.1      0.000      0.000
REMARK  Name = 
REMARK  7 active torsions:
REMARK  status: ('A' for Active; 'I' for Inactive)
REMARK    1  A    between atoms: C_1  and  C_2
REMARK    2  A    between atoms: N_7  and  C_8
REMARK    3  A    between atoms: C_8  and  C_9
REMARK    4  A    between atoms: C_14  and  C_15
REMARK    5  A    between atoms: C_15  and  N_16
REMARK    6  A    between atoms: C_17  and  C_19
REMARK    7  A    between atoms: C_19  and  N_20
REMARK                            x       y       z     vdW  Elec       q    Type
REMARK                         _______ _______ _______ _____ _____    ______ ____
ROOT
ATOM      1  N   UNL     1       0.868   7.568  20.941  0.00  0.00    +0.000 N 
ATOM      2  C   UNL     1       0.776   8.797  21.565  0.00  0.00    +0.000 C 
ATOM      3  O   UNL     1       1.721   9.343  22.130  0.00  0.00    +0.000 OA
ATOM      4  H   UNL     1       0.084   7.224  20.402  0.00  0.00    +0.000 HD
ENDROOT
BRANCH   1   5
ATOM      5  C   UNL     1       2.125   6.854  20.786  0.00  0.00    +0.000 C 
BRANCH   5  11
ATOM      6  C   UNL     1       2.440   5.442  18.653  0.00  0.00    +0.000 A 
ATOM      7  C   UNL     1       2.137   4.249  17.961  0.00  0.00    +0.000 A 
ATOM      8  C   UNL     1       1.403   3.224  18.557  0.00  0.00    +0.000 A 
ATOM      9  C   UNL     1       0.961   3.364  19.864  0.00  0.00    +0.000 A 
ATOM     10  C   UNL     1       1.234   4.538  20.561  0.00  0.00    +0.000 A 
ATOM     11  C   UNL     1       1.956   5.596  19.971  0.00  0.00    +0.000 A 
BRANCH   6  12
ATOM     12  C   UNL     1       3.263   6.487  17.912  0.00  0.00    +0.000 C 
BRANCH  12  19
ATOM     13  C   UNL     1       5.286   5.508  15.872  0.00  0.00    +0.000 C 
ATOM     14  C   UNL     1       5.505   6.612  16.927  0.00  0.00    +0.000 C 
ATOM     15  C   UNL     1       7.005   6.731  17.258  0.00  0.00    +0.000 C 
ATOM     16  C   UNL     1       7.506   5.560  18.096  0.00  0.00    +0.000 C 
ATOM     17  C   UNL     1       6.633   5.396  19.332  0.00  0.00    +0.000 C 
ATOM     18  C   UNL     1       5.144   5.316  18.979  0.00  0.00    +0.000 C 
ATOM     19  N   UNL     1       4.716   6.474  18.177  0.00  0.00    +0.000 NA
ENDBRANCH  12  19
ENDBRANCH   6  12
ENDBRANCH   5  11
ENDBRANCH   1   5
BRANCH   2  20
ATOM     20  C   UNL     1      -0.570   9.535  21.329  0.00  0.00    +0.000 C 
BRANCH  20  21
ATOM     21  N   UNL     1      -0.323  10.667  20.435  0.00  0.00    +0.000 N 
ATOM     22  N   UNL     1      -0.971  11.824  20.812  0.00  0.00    +0.000 NA
ATOM     23  N   UNL     1      -1.801  12.349  20.034  0.00  0.00    +0.000 NA
ATOM     24  C   UNL     1      -2.220  11.586  18.934  0.00  0.00    +0.000 A 
ATOM     25  C   UNL     1      -3.549  11.628  18.517  0.00  0.00    +0.000 A 
ATOM     26  C   UNL     1      -3.982  10.807  17.471  0.00  0.00    +0.000 A 
ATOM     27  C   UNL     1      -3.076   9.984  16.795  0.00  0.00    +0.000 A 
ATOM     28  C   UNL     1      -1.748   9.930  17.206  0.00  0.00    +0.000 A 
ATOM     29  C   UNL     1      -1.356  10.702  18.300  0.00  0.00    +0.000 A 
ATOM     30  C   UNL     1      -0.177  10.343  19.089  0.00  0.00    +0.000 A 
ATOM     31  O   UNL     1       0.709   9.629  18.631  0.00  0.00    +0.000 OA
ENDBRANCH  20  21
ENDBRANCH   2  20
TORSDOF 6
ENDMDL
MODEL 2
REMARK VINA RESULT:      -9.0      2.289      2.769
REMARK  Name = 
REMARK  7 active torsions:
REMARK  status: ('A' for Active; 'I' for Inactive)
REMARK    1  A    between atoms: C_1  and  C_2
REMARK    2  A    between atoms: N_7  and  C_8
REMARK    3  A    between atoms: C_8  and  C_9
REMARK    4  A    between atoms: C_14  and  C_15
REMARK    5  A    between atoms: C_15  and  N_16
REMARK    6  A    between atoms: C_17  and  C_19
REMARK    7  A    between atoms: C_19  and  N_20
REMARK                            x       y       z     vdW  Elec       q    Type
REMARK                         _______ _______ _______ _____ _____    ______ ____
ROOT
ATOM      1  N   UNL     1       2.081   7.309  20.405  0.00  0.00    +0.000 N 
ATOM      2  C   UNL     1       1.628   8.383  19.663  0.00  0.00    +0.000 C 
ATOM      3  O   UNL     1       2.049   8.659  18.542  0.00  0.00    +0.000 OA
ATOM      4  H   UNL     1       1.618   7.073  21.273  0.00  0.00    +0.000 HD
ENDROOT
BRANCH   1   5
ATOM      5  C   UNL     1       3.016   6.327  19.881  0.00  0.00    +0.000 C 
BRANCH   5  11
ATOM      6  C   UNL     1       2.540   4.274  18.397  0.00  0.00    +0.000 A 
ATOM      7  C   UNL     1       1.776   3.104  18.195  0.00  0.00    +0.000 A 
ATOM      8  C   UNL     1       0.859   2.657  19.146  0.00  0.00    +0.000 A 
ATOM      9  C   UNL     1       0.691   3.364  20.326  0.00  0.00    +0.000 A 
ATOM     10  C   UNL     1       1.422   4.530  20.541  0.00  0.00    +0.000 A 
ATOM     11  C   UNL     1       2.339   5.013  19.584  0.00  0.00    +0.000 A 
BRANCH   6  12
ATOM     12  C   UNL     1       3.525   4.660  17.301  0.00  0.00    +0.000 C 
BRANCH  12  19
ATOM     13  C   UNL     1       5.648   5.623  15.359  0.00  0.00    +0.000 C 
ATOM     14  C   UNL     1       5.226   6.310  16.673  0.00  0.00    +0.000 C 
ATOM     15  C   UNL     1       6.386   7.169  17.213  0.00  0.00    +0.000 C 
ATOM     16  C   UNL     1       7.512   6.319  17.792  0.00  0.00    +0.000 C 
ATOM     17  C   UNL     1       6.954   5.352  18.826  0.00  0.00    +0.000 C 
ATOM     18  C   UNL     1       5.778   4.537  18.276  0.00  0.00    +0.000 C 
ATOM     19  N   UNL     1       4.720   5.408  17.739  0.00  0.00    +0.000 NA
ENDBRANCH  12  19
ENDBRANCH   6  12
ENDBRANCH   5  11
ENDBRANCH   1   5
BRANCH   2  20
ATOM     20  C   UNL     1       0.397   9.106  20.272  0.00  0.00    +0.000 C 
BRANCH  20  21
ATOM     21  N   UNL     1       0.872  10.033  21.300  0.00  0.00    +0.000 N 
ATOM     22  N   UNL     1       0.662   9.590  22.589  0.00  0.00    +0.000 NA
ATOM     23  N   UNL     1      -0.053  10.265  23.366  0.00  0.00    +0.000 NA
ATOM     24  C   UNL     1      -0.815  11.298  22.801  0.00  0.00    +0.000 A 
ATOM     25  C   UNL     1      -2.107  11.550  23.260  0.00  0.00    +0.000 A 
ATOM     26  C   UNL     1      -2.892  12.528  22.643  0.00  0.00    +0.000 A 
ATOM     27  C   UNL     1      -2.371  13.302  21.602  0.00  0.00    +0.000 A 
ATOM     28  C   UNL     1      -1.085  13.057  21.131  0.00  0.00    +0.000 A 
ATOM     29  C   UNL     1      -0.347  12.026  21.714  0.00  0.00    +0.000 A 
ATOM     30  C   UNL     1       0.750  11.384  20.987  0.00  0.00    +0.000 A 
ATOM     31  O   UNL     1       1.311  11.941  20.050  0.00  0.00    +0.000 OA
ENDBRANCH  20  21
ENDBRANCH   2  20
TORSDOF 6
ENDMDL
MODEL 3
REMARK VINA RESULT:      -8.8      1.030      1.621
REMARK  Name = 
REMARK  7 active torsions:
REMARK  status: ('A' for Active; 'I' for Inactive)
REMARK    1  A    between atoms: C_1  and  C_2
REMARK    2  A    between atoms: N_7  and  C_8
REMARK    3  A    between atoms: C_8  and  C_9
REMARK    4  A    between atoms: C_14  and  C_15
REMARK    5  A    between atoms: C_15  and  N_16
REMARK    6  A    between atoms: C_17  and  C_19
REMARK    7  A    between atoms: C_19  and  N_20
REMARK                            x       y       z     vdW  Elec       q    Type
REMARK                         _______ _______ _______ _____ _____    ______ ____
ROOT
ATOM      1  N   UNL     1       1.246   7.541  20.190  0.00  0.00    +0.000 N 
ATOM      2  C   UNL     1       0.981   8.519  21.130  0.00  0.00    +0.000 C 
ATOM      3  O   UNL     1       1.804   8.908  21.954  0.00  0.00    +0.000 OA
ATOM      4  H   UNL     1       0.562   7.342  19.471  0.00  0.00    +0.000 HD
ENDROOT
BRANCH   1   5
ATOM      5  C   UNL     1       2.568   6.964  20.005  0.00  0.00    +0.000 C 
BRANCH   5  11
ATOM      6  C   UNL     1       3.627   4.629  19.743  0.00  0.00    +0.000 A 
ATOM      7  C   UNL     1       3.442   3.229  19.767  0.00  0.00    +0.000 A 
ATOM      8  C   UNL     1       2.225   2.659  20.139  0.00  0.00    +0.000 A 
ATOM      9  C   UNL     1       1.166   3.475  20.507  0.00  0.00    +0.000 A 
ATOM     10  C   UNL     1       1.320   4.859  20.476  0.00  0.00    +0.000 A 
ATOM     11  C   UNL     1       2.535   5.458  20.082  0.00  0.00    +0.000 A 
BRANCH   6  12
ATOM     12  C   UNL     1       5.002   5.142  19.338  0.00  0.00    +0.000 C 
BRANCH  12  19
ATOM     13  C   UNL     1       7.258   6.551  17.877  0.00  0.00    +0.000 C 
ATOM     14  C   UNL     1       6.931   5.045  17.828  0.00  0.00    +0.000 C 
ATOM     15  C   UNL     1       7.451   4.437  16.510  0.00  0.00    +0.000 C 
ATOM     16  C   UNL     1       6.610   4.857  15.310  0.00  0.00    +0.000 C 
ATOM     17  C   UNL     1       5.142   4.550  15.572  0.00  0.00    +0.000 C 
ATOM     18  C   UNL     1       4.660   5.133  16.904  0.00  0.00    +0.000 C 
ATOM     19  N   UNL     1       5.503   4.688  18.026  0.00  0.00    +0.000 NA
ENDBRANCH  12  19
ENDBRANCH   6  12
ENDBRANCH   5  11
ENDBRANCH   1   5
BRANCH   2  20
ATOM     20  C   UNL     1      -0.384   9.233  20.940  0.00  0.00    +0.000 C 
BRANCH  20  21
ATOM     21  N   UNL     1      -0.169  10.424  20.116  0.00  0.00    +0.000 N 
ATOM     22  N   UNL     1      -0.721  11.572  20.645  0.00  0.00    +0.000 NA
ATOM     23  N   UNL     1      -1.595  12.193  19.995  0.00  0.00    +0.000 NA
ATOM     24  C   UNL     1      -2.154  11.540  18.886  0.00  0.00    +0.000 A 
ATOM     25  C   UNL     1      -3.513  11.670  18.607  0.00  0.00    +0.000 A 
ATOM     26  C   UNL     1      -4.082  10.956  17.548  0.00  0.00    +0.000 A 
ATOM     27  C   UNL     1      -3.286  10.155  16.725  0.00  0.00    +0.000 A 
ATOM     28  C   UNL     1      -1.929  10.013  16.996  0.00  0.00    +0.000 A 
ATOM     29  C   UNL     1      -1.397  10.677  18.103  0.00  0.00    +0.000 A 
ATOM     30  C   UNL     1      -0.167  10.206  18.741  0.00  0.00    +0.000 A 
ATOM     31  O   UNL     1       0.635   9.496  18.144  0.00  0.00    +0.000 OA
ENDBRANCH  20  21
ENDBRANCH   2  20
TORSDOF 6
ENDMDL
MODEL 4
REMARK VINA RESULT:      -8.8      2.357      3.257
REMARK  Name = 
REMARK  7 active torsions:
REMARK  status: ('A' for Active; 'I' for Inactive)
REMARK    1  A    between atoms: C_1  and  C_2
REMARK    2  A    between atoms: N_7  and  C_8
REMARK    3  A    between atoms: C_8  and  C_9
REMARK    4  A    between atoms: C_14  and  C_15
REMARK    5  A    between atoms: C_15  and  N_16
REMARK    6  A    between atoms: C_17  and  C_19
REMARK    7  A    between atoms: C_19  and  N_20
REMARK                            x       y       z     vdW  Elec       q    Type
REMARK                         _______ _______ _______ _____ _____    ______ ____
ROOT
ATOM      1  N   UNL     1       1.934   7.862  19.947  0.00  0.00    +0.000 N 
ATOM      2  C   UNL     1       1.433   8.999  19.341  0.00  0.00    +0.000 C 
ATOM      3  O   UNL     1       1.818   9.411  18.249  0.00  0.00    +0.000 OA
ATOM      4  H   UNL     1       1.500   7.518  20.793  0.00  0.00    +0.000 HD
ENDROOT
BRANCH   1   5
ATOM      5  C   UNL     1       2.880   6.973  19.293  0.00  0.00    +0.000 C 
BRANCH   5  11
ATOM      6  C   UNL     1       3.758   4.592  19.743  0.00  0.00    +0.000 A 
ATOM      7  C   UNL     1       3.457   3.264  20.116  0.00  0.00    +0.000 A 
ATOM      8  C   UNL     1       2.176   2.889  20.518  0.00  0.00    +0.000 A 
ATOM      9  C   UNL     1       1.165   3.838  20.568  0.00  0.00    +0.000 A 
ATOM     10  C   UNL     1       1.435   5.151  20.189  0.00  0.00    +0.000 A 
ATOM     11  C   UNL     1       2.718   5.547  19.758  0.00  0.00    +0.000 A 
BRANCH   6  12
ATOM     12  C   UNL     1       5.195   4.893  19.338  0.00  0.00    +0.000 C 
BRANCH  12  19
ATOM     13  C   UNL     1       7.155   6.470  17.640  0.00  0.00    +0.000 C 
ATOM     14  C   UNL     1       6.950   4.941  17.627  0.00  0.00    +0.000 C 
ATOM     15  C   UNL     1       7.373   4.367  16.260  0.00  0.00    +0.000 C 
ATOM     16  C   UNL     1       6.375   4.706  15.159  0.00  0.00    +0.000 C 
ATOM     17  C   UNL     1       4.975   4.281  15.578  0.00  0.00    +0.000 C 
ATOM     18  C   UNL     1       4.593   4.835  16.955  0.00  0.00    +0.000 C 
ATOM     19  N   UNL     1       5.586   4.470  17.978  0.00  0.00    +0.000 NA
ENDBRANCH  12  19
ENDBRANCH   6  12
ENDBRANCH   5  11
ENDBRANCH   1   5
BRANCH   2  20
ATOM     20  C   UNL     1       0.201   9.615  20.057  0.00  0.00    +0.000 C 
BRANCH  20  21
ATOM     21  N   UNL     1       0.678  10.408  21.190  0.00  0.00    +0.000 N 
ATOM     22  N   UNL     1       0.507   9.791  22.412  0.00  0.00    +0.000 NA
ATOM     23  N   UNL     1      -0.205  10.337  23.286  0.00  0.00    +0.000 NA
ATOM     24  C   UNL     1      -1.004  11.417  22.879  0.00  0.00    +0.000 A 
ATOM     25  C   UNL     1      -2.290  11.571  23.394  0.00  0.00    +0.000 A 
ATOM     26  C   UNL     1      -3.112  12.601  22.928  0.00  0.00    +0.000 A 
ATOM     27  C   UNL     1      -2.634  13.521  21.991  0.00  0.00    +0.000 A 
ATOM     28  C   UNL     1      -1.353  13.375  21.466  0.00  0.00    +0.000 A 
ATOM     29  C   UNL     1      -0.578  12.295  21.891  0.00  0.00    +0.000 A 
ATOM     30  C   UNL     1       0.517  11.785  21.064  0.00  0.00    +0.000 A 
ATOM     31  O   UNL     1       1.044  12.477  20.199  0.00  0.00    +0.000 OA
ENDBRANCH  20  21
ENDBRANCH   2  20
TORSDOF 6
ENDMDL
MODEL 5
REMARK VINA RESULT:      -8.6      2.374      2.979
REMARK  Name = 
REMARK  7 active torsions:
REMARK  status: ('A' for Active; 'I' for Inactive)
REMARK    1  A    between atoms: C_1  and  C_2
REMARK    2  A    between atoms: N_7  and  C_8
REMARK    3  A    between atoms: C_8  and  C_9
REMARK    4  A    between atoms: C_14  and  C_15
REMARK    5  A    between atoms: C_15  and  N_16
REMARK    6  A    between atoms: C_17  and  C_19
REMARK    7  A    between atoms: C_19  and  N_20
REMARK                            x       y       z     vdW  Elec       q    Type
REMARK                         _______ _______ _______ _____ _____    ______ ____
ROOT
ATOM      1  N   UNL     1       2.117   7.313  20.657  0.00  0.00    +0.000 N 
ATOM      2  C   UNL     1       1.745   8.347  19.819  0.00  0.00    +0.000 C 
ATOM      3  O   UNL     1       2.241   8.535  18.711  0.00  0.00    +0.000 OA
ATOM      4  H   UNL     1       1.596   7.149  21.508  0.00  0.00    +0.000 HD
ENDROOT
BRANCH   1   5
ATOM      5  C   UNL     1       3.047   6.270  20.255  0.00  0.00    +0.000 C 
BRANCH   5  11
ATOM      6  C   UNL     1       2.305   4.485  18.550  0.00  0.00    +0.000 A 
ATOM      7  C   UNL     1       1.522   3.340  18.293  0.00  0.00    +0.000 A 
ATOM      8  C   UNL     1       0.803   2.703  19.304  0.00  0.00    +0.000 A 
ATOM      9  C   UNL     1       0.860   3.190  20.601  0.00  0.00    +0.000 A 
ATOM     10  C   UNL     1       1.615   4.329  20.876  0.00  0.00    +0.000 A 
ATOM     11  C   UNL     1       2.331   5.002  19.865  0.00  0.00    +0.000 A 
BRANCH   6  12
ATOM     12  C   UNL     1       3.062   5.090  17.375  0.00  0.00    +0.000 C 
BRANCH  12  19
ATOM     13  C   UNL     1       5.251   7.091  16.732  0.00  0.00    +0.000 C 
ATOM     14  C   UNL     1       5.392   5.822  17.596  0.00  0.00    +0.000 C 
ATOM     15  C   UNL     1       6.855   5.339  17.585  0.00  0.00    +0.000 C 
ATOM     16  C   UNL     1       7.244   4.709  16.253  0.00  0.00    +0.000 C 
ATOM     17  C   UNL     1       6.251   3.616  15.885  0.00  0.00    +0.000 C 
ATOM     18  C   UNL     1       4.802   4.112  15.939  0.00  0.00    +0.000 C 
ATOM     19  N   UNL     1       4.481   4.701  17.249  0.00  0.00    +0.000 NA
ENDBRANCH  12  19
ENDBRANCH   6  12
ENDBRANCH   5  11
ENDBRANCH   1   5
BRANCH   2  20
ATOM     20  C   UNL     1       0.506   9.147  20.305  0.00  0.00    +0.000 C 
BRANCH  20  21
ATOM     21  N   UNL     1       0.934  10.056  21.369  0.00  0.00    +0.000 N 
ATOM     22  N   UNL     1       0.689   9.579  22.639  0.00  0.00    +0.000 NA
ATOM     23  N   UNL     1      -0.060  10.225  23.408  0.00  0.00    +0.000 NA
ATOM     24  C   UNL     1      -0.819  11.261  22.843  0.00  0.00    +0.000 A 
ATOM     25  C   UNL     1      -2.128  11.484  23.266  0.00  0.00    +0.000 A 
ATOM     26  C   UNL     1      -2.908  12.465  22.646  0.00  0.00    +0.000 A 
ATOM     27  C   UNL     1      -2.365  13.271  21.641  0.00  0.00    +0.000 A 
ATOM     28  C   UNL     1      -1.061  13.055  21.207  0.00  0.00    +0.000 A 
ATOM     29  C   UNL     1      -0.327  12.021  21.789  0.00  0.00    +0.000 A 
ATOM     30  C   UNL     1       0.802  11.412  21.084  0.00  0.00    +0.000 A 
ATOM     31  O   UNL     1       1.385  11.999  20.179  0.00  0.00    +0.000 OA
ENDBRANCH  20  21
ENDBRANCH   2  20
TORSDOF 6
ENDMDL
MODEL 6
REMARK VINA RESULT:      -8.5      2.942      7.789
REMARK  Name = 
REMARK  7 active torsions:
REMARK  status: ('A' for Active; 'I' for Inactive)
REMARK    1  A    between atoms: C_1  and  C_2
REMARK    2  A    between atoms: N_7  and  C_8
REMARK    3  A    between atoms: C_8  and  C_9
REMARK    4  A    between atoms: C_14  and  C_15
REMARK    5  A    between atoms: C_15  and  N_16
REMARK    6  A    between atoms: C_17  and  C_19
REMARK    7  A    between atoms: C_19  and  N_20
REMARK                            x       y       z     vdW  Elec       q    Type
REMARK                         _______ _______ _______ _____ _____    ______ ____
ROOT
ATOM      1  N   UNL     1       3.418   6.624  18.450  0.00  0.00    +0.000 N 
ATOM      2  C   UNL     1       4.503   6.238  17.687  0.00  0.00    +0.000 C 
ATOM      3  O   UNL     1       4.851   6.816  16.661  0.00  0.00    +0.000 OA
ATOM      4  H   UNL     1       3.249   6.173  19.340  0.00  0.00    +0.000 HD
ENDROOT
BRANCH   1   5
ATOM      5  C   UNL     1       2.653   7.830  18.179  0.00  0.00    +0.000 C 
BRANCH   5  11
ATOM      6  C   UNL     1       1.175   9.487  19.487  0.00  0.00    +0.000 A 
ATOM      7  C   UNL     1       0.476   9.771  20.680  0.00  0.00    +0.000 A 
ATOM      8  C   UNL     1       0.368   8.832  21.706  0.00  0.00    +0.000 A 
ATOM      9  C   UNL     1       0.948   7.582  21.558  0.00  0.00    +0.000 A 
ATOM     10  C   UNL     1       1.657   7.284  20.396  0.00  0.00    +0.000 A 
ATOM     11  C   UNL     1       1.798   8.226  19.356  0.00  0.00    +0.000 A 
BRANCH   6  12
ATOM     12  C   UNL     1       1.215  10.580  18.427  0.00  0.00    +0.000 C 
BRANCH  12  19
ATOM     13  C   UNL     1      -0.492  13.070  18.115  0.00  0.00    +0.000 C 
ATOM     14  C   UNL     1       0.515  12.782  19.246  0.00  0.00    +0.000 C 
ATOM     15  C   UNL     1       1.025  14.107  19.845  0.00  0.00    +0.000 C 
ATOM     16  C   UNL     1       1.987  14.829  18.909  0.00  0.00    +0.000 C 
ATOM     17  C   UNL     1       3.111  13.890  18.493  0.00  0.00    +0.000 C 
ATOM     18  C   UNL     1       2.578  12.566  17.936  0.00  0.00    +0.000 C 
ATOM     19  N   UNL     1       1.661  11.910  18.884  0.00  0.00    +0.000 NA
ENDBRANCH  12  19
ENDBRANCH   6  12
ENDBRANCH   5  11
ENDBRANCH   1   5
BRANCH   2  20
ATOM     20  C   UNL     1       5.375   5.127  18.334  0.00  0.00    +0.000 C 
BRANCH  20  21
ATOM     21  N   UNL     1       4.761   3.832  18.041  0.00  0.00    +0.000 N 
ATOM     22  N   UNL     1       3.852   3.869  17.004  0.00  0.00    +0.000 NA
ATOM     23  N   UNL     1       2.659   3.549  17.216  0.00  0.00    +0.000 NA
ATOM     24  C   UNL     1       2.257   3.426  18.554  0.00  0.00    +0.000 A 
ATOM     25  C   UNL     1       0.994   3.863  18.951  0.00  0.00    +0.000 A 
ATOM     26  C   UNL     1       0.626   3.811  20.298  0.00  0.00    +0.000 A 
ATOM     27  C   UNL     1       1.493   3.266  21.249  0.00  0.00    +0.000 A 
ATOM     28  C   UNL     1       2.758   2.830  20.867  0.00  0.00    +0.000 A 
ATOM     29  C   UNL     1       3.131   2.960  19.528  0.00  0.00    +0.000 A 
ATOM     30  C   UNL     1       4.543   3.012  19.144  0.00  0.00    +0.000 A 
ATOM     31  O   UNL     1       5.423   2.569  19.874  0.00  0.00    +0.000 OA
ENDBRANCH  20  21
ENDBRANCH   2  20
TORSDOF 6
ENDMDL
MODEL 7
REMARK VINA RESULT:      -8.5      3.041      4.854
REMARK  Name = 
REMARK  7 active torsions:
REMARK  status: ('A' for Active; 'I' for Inactive)
REMARK    1  A    between atoms: C_1  and  C_2
REMARK    2  A    between atoms: N_7  and  C_8
REMARK    3  A    between atoms: C_8  and  C_9
REMARK    4  A    between atoms: C_14  and  C_15
REMARK    5  A    between atoms: C_15  and  N_16
REMARK    6  A    between atoms: C_17  and  C_19
REMARK    7  A    between atoms: C_19  and  N_20
REMARK                            x       y       z     vdW  Elec       q    Type
REMARK                         _______ _______ _______ _____ _____    ______ ____
ROOT
ATOM      1  N   UNL     1      -0.151   9.235  21.806  0.00  0.00    +0.000 N 
ATOM      2  C   UNL     1      -0.290   9.888  23.016  0.00  0.00    +0.000 C 
ATOM      3  O   UNL     1       0.380   9.621  24.011  0.00  0.00    +0.000 OA
ATOM      4  H   UNL     1      -0.655   9.573  20.997  0.00  0.00    +0.000 HD
ENDROOT
BRANCH   1   5
ATOM      5  C   UNL     1       0.889   8.249  21.557  0.00  0.00    +0.000 C 
BRANCH   5  11
ATOM      6  C   UNL     1       2.132   7.289  19.513  0.00  0.00    +0.000 A 
ATOM      7  C   UNL     1       2.636   7.515  18.214  0.00  0.00    +0.000 A 
ATOM      8  C   UNL     1       2.405   8.712  17.538  0.00  0.00    +0.000 A 
ATOM      9  C   UNL     1       1.654   9.710  18.141  0.00  0.00    +0.000 A 
ATOM     10  C   UNL     1       1.159   9.516  19.429  0.00  0.00    +0.000 A 
ATOM     11  C   UNL     1       1.399   8.322  20.140  0.00  0.00    +0.000 A 
BRANCH   6  12
ATOM     12  C   UNL     1       2.429   5.939  20.151  0.00  0.00    +0.000 C 
BRANCH  12  19
ATOM     13  C   UNL     1       1.339   3.257  21.061  0.00  0.00    +0.000 C 
ATOM     14  C   UNL     1       1.250   3.851  19.641  0.00  0.00    +0.000 C 
ATOM     15  C   UNL     1       1.116   2.718  18.605  0.00  0.00    +0.000 C 
ATOM     16  C   UNL     1       2.422   1.954  18.414  0.00  0.00    +0.000 C 
ATOM     17  C   UNL     1       3.549   2.926  18.095  0.00  0.00    +0.000 C 
ATOM     18  C   UNL     1       3.637   4.063  19.118  0.00  0.00    +0.000 C 
ATOM     19  N   UNL     1       2.352   4.768  19.255  0.00  0.00    +0.000 NA
ENDBRANCH  12  19
ENDBRANCH   6  12
ENDBRANCH   5  11
ENDBRANCH   1   5
BRANCH   2  20
ATOM     20  C   UNL     1      -1.226  11.125  22.970  0.00  0.00    +0.000 C 
BRANCH  20  21
ATOM     21  N   UNL     1      -0.886  11.915  21.785  0.00  0.00    +0.000 N 
ATOM     22  N   UNL     1       0.446  12.262  21.713  0.00  0.00    +0.000 NA
ATOM     23  N   UNL     1       0.769  13.473  21.697  0.00  0.00    +0.000 NA
ATOM     24  C   UNL     1      -0.228  14.407  22.020  0.00  0.00    +0.000 A 
ATOM     25  C   UNL     1       0.085  15.531  22.781  0.00  0.00    +0.000 A 
ATOM     26  C   UNL     1      -0.925  16.418  23.169  0.00  0.00    +0.000 A 
ATOM     27  C   UNL     1      -2.242  16.220  22.746  0.00  0.00    +0.000 A 
ATOM     28  C   UNL     1      -2.567  15.098  21.989  0.00  0.00    +0.000 A 
ATOM     29  C   UNL     1      -1.556  14.188  21.678  0.00  0.00    +0.000 A 
ATOM     30  C   UNL     1      -1.873  12.796  21.353  0.00  0.00    +0.000 A 
ATOM     31  O   UNL     1      -2.988  12.466  20.964  0.00  0.00    +0.000 OA
ENDBRANCH  20  21
ENDBRANCH   2  20
TORSDOF 6
ENDMDL
MODEL 8
REMARK VINA RESULT:      -8.5      2.297      8.298
REMARK  Name = 
REMARK  7 active torsions:
REMARK  status: ('A' for Active; 'I' for Inactive)
REMARK    1  A    between atoms: C_1  and  C_2
REMARK    2  A    between atoms: N_7  and  C_8
REMARK    3  A    between atoms: C_8  and  C_9
REMARK    4  A    between atoms: C_14  and  C_15
REMARK    5  A    between atoms: C_15  and  N_16
REMARK    6  A    between atoms: C_17  and  C_19
REMARK    7  A    between atoms: C_19  and  N_20
REMARK                            x       y       z     vdW  Elec       q    Type
REMARK                         _______ _______ _______ _____ _____    ______ ____
ROOT
ATOM      1  N   UNL     1       2.673   6.977  18.582  0.00  0.00    +0.000 N 
ATOM      2  C   UNL     1       3.836   6.739  17.875  0.00  0.00    +0.000 C 
ATOM      3  O   UNL     1       4.181   7.397  16.896  0.00  0.00    +0.000 OA
ATOM      4  H   UNL     1       2.501   6.471  19.441  0.00  0.00    +0.000 HD
ENDROOT
BRANCH   1   5
ATOM      5  C   UNL     1       1.803   8.109  18.310  0.00  0.00    +0.000 C 
BRANCH   5  11
ATOM      6  C   UNL     1       0.185   9.646  19.600  0.00  0.00    +0.000 A 
ATOM      7  C   UNL     1      -0.218  10.168  20.848  0.00  0.00    +0.000 A 
ATOM      8  C   UNL     1       0.354   9.731  22.043  0.00  0.00    +0.000 A 
ATOM      9  C   UNL     1       1.336   8.753  22.019  0.00  0.00    +0.000 A 
ATOM     10  C   UNL     1       1.761   8.234  20.798  0.00  0.00    +0.000 A 
ATOM     11  C   UNL     1       1.213   8.677  19.576  0.00  0.00    +0.000 A 
BRANCH   6  12
ATOM     12  C   UNL     1      -0.518  10.183  18.361  0.00  0.00    +0.000 C 
BRANCH  12  19
ATOM     13  C   UNL     1      -2.432  10.241  16.006  0.00  0.00    +0.000 C 
ATOM     14  C   UNL     1      -2.771   9.840  17.456  0.00  0.00    +0.000 C 
ATOM     15  C   UNL     1      -4.270  10.071  17.728  0.00  0.00    +0.000 C 
ATOM     16  C   UNL     1      -4.612  11.551  17.852  0.00  0.00    +0.000 C 
ATOM     17  C   UNL     1      -3.709  12.208  18.886  0.00  0.00    +0.000 C 
ATOM     18  C   UNL     1      -2.226  11.933  18.614  0.00  0.00    +0.000 C 
ATOM     19  N   UNL     1      -1.954  10.490  18.513  0.00  0.00    +0.000 NA
ENDBRANCH  12  19
ENDBRANCH   6  12
ENDBRANCH   5  11
ENDBRANCH   1   5
BRANCH   2  20
ATOM     20  C   UNL     1       4.781   5.697  18.531  0.00  0.00    +0.000 C 
BRANCH  20  21
ATOM     21  N   UNL     1       4.358   4.362  18.106  0.00  0.00    +0.000 N 
ATOM     22  N   UNL     1       3.296   4.369  17.226  0.00  0.00    +0.000 NA
ATOM     23  N   UNL     1       2.229   3.793  17.542  0.00  0.00    +0.000 NA
ATOM     24  C   UNL     1       2.084   3.401  18.881  0.00  0.00    +0.000 A 
ATOM     25  C   UNL     1       0.850   3.519  19.518  0.00  0.00    +0.000 A 
ATOM     26  C   UNL     1       0.728   3.201  20.874  0.00  0.00    +0.000 A 
ATOM     27  C   UNL     1       1.822   2.706  21.587  0.00  0.00    +0.000 A 
ATOM     28  C   UNL     1       3.061   2.587  20.964  0.00  0.00    +0.000 A 
ATOM     29  C   UNL     1       3.177   2.981  19.630  0.00  0.00    +0.000 A 
ATOM     30  C   UNL     1       4.473   3.364  19.069  0.00  0.00    +0.000 A 
ATOM     31  O   UNL     1       5.526   3.002  19.583  0.00  0.00    +0.000 OA
ENDBRANCH  20  21
ENDBRANCH   2  20
TORSDOF 6
ENDMDL
MODEL 9
REMARK VINA RESULT:      -8.4      1.762      2.251
REMARK  Name = 
REMARK  7 active torsions:
REMARK  status: ('A' for Active; 'I' for Inactive)
REMARK    1  A    between atoms: C_1  and  C_2
REMARK    2  A    between atoms: N_7  and  C_8
REMARK    3  A    between atoms: C_8  and  C_9
REMARK    4  A    between atoms: C_14  and  C_15
REMARK    5  A    between atoms: C_15  and  N_16
REMARK    6  A    between atoms: C_17  and  C_19
REMARK    7  A    between atoms: C_19  and  N_20
REMARK                            x       y       z     vdW  Elec       q    Type
REMARK                         _______ _______ _______ _____ _____    ______ ____
ROOT
ATOM      1  N   UNL     1       2.034   7.340  20.301  0.00  0.00    +0.000 N 
ATOM      2  C   UNL     1       1.587   8.461  19.628  0.00  0.00    +0.000 C 
ATOM      3  O   UNL     1       2.013   8.807  18.529  0.00  0.00    +0.000 OA
ATOM      4  H   UNL     1       1.567   7.051  21.151  0.00  0.00    +0.000 HD
ENDROOT
BRANCH   1   5
ATOM      5  C   UNL     1       2.967   6.390  19.718  0.00  0.00    +0.000 C 
BRANCH   5  11
ATOM      6  C   UNL     1       2.582   4.224  18.376  0.00  0.00    +0.000 A 
ATOM      7  C   UNL     1       1.850   3.024  18.238  0.00  0.00    +0.000 A 
ATOM      8  C   UNL     1       0.914   2.625  19.191  0.00  0.00    +0.000 A 
ATOM      9  C   UNL     1       0.694   3.412  20.312  0.00  0.00    +0.000 A 
ATOM     10  C   UNL     1       1.393   4.608  20.461  0.00  0.00    +0.000 A 
ATOM     11  C   UNL     1       2.328   5.042  19.499  0.00  0.00    +0.000 A 
BRANCH   6  12
ATOM     12  C   UNL     1       3.591   4.553  17.284  0.00  0.00    +0.000 C 
BRANCH  12  19
ATOM     13  C   UNL     1       5.491   5.823  15.287  0.00  0.00    +0.000 C 
ATOM     14  C   UNL     1       5.110   6.378  16.674  0.00  0.00    +0.000 C 
ATOM     15  C   UNL     1       6.235   7.291  17.202  0.00  0.00    +0.000 C 
ATOM     16  C   UNL     1       7.461   6.499  17.640  0.00  0.00    +0.000 C 
ATOM     17  C   UNL     1       7.054   5.418  18.632  0.00  0.00    +0.000 C 
ATOM     18  C   UNL     1       5.911   4.549  18.099  0.00  0.00    +0.000 C 
ATOM     19  N   UNL     1       4.753   5.365  17.699  0.00  0.00    +0.000 NA
ENDBRANCH  12  19
ENDBRANCH   6  12
ENDBRANCH   5  11
ENDBRANCH   1   5
BRANCH   2  20
ATOM     20  C   UNL     1       0.357   9.149  20.279  0.00  0.00    +0.000 C 
BRANCH  20  21
ATOM     21  N   UNL     1       0.628  10.584  20.370  0.00  0.00    +0.000 N 
ATOM     22  N   UNL     1       0.981  11.004  21.635  0.00  0.00    +0.000 NA
ATOM     23  N   UNL     1       0.275  11.857  22.222  0.00  0.00    +0.000 NA
ATOM     24  C   UNL     1      -0.982  12.140  21.667  0.00  0.00    +0.000 A 
ATOM     25  C   UNL     1      -2.081  12.360  22.496  0.00  0.00    +0.000 A 
ATOM     26  C   UNL     1      -3.348  12.563  21.940  0.00  0.00    +0.000 A 
ATOM     27  C   UNL     1      -3.514  12.610  20.553  0.00  0.00    +0.000 A 
ATOM     28  C   UNL     1      -2.425  12.387  19.715  0.00  0.00    +0.000 A 
ATOM     29  C   UNL     1      -1.185  12.112  20.293  0.00  0.00    +0.000 A 
ATOM     30  C   UNL     1      -0.152  11.392  19.547  0.00  0.00    +0.000 A 
ATOM     31  O   UNL     1      -0.161  11.345  18.322  0.00  0.00    +0.000 OA
ENDBRANCH  20  21
ENDBRANCH   2  20
TORSDOF 6
ENDMDL
