MODEL 1
REMARK VINA RESULT:      -8.8      0.000      0.000
REMARK  Name = 
REMARK  6 active torsions:
REMARK  status: ('A' for Active; 'I' for Inactive)
REMARK    1  A    between atoms: C_8  and  S_9
REMARK    2  A    between atoms: S_9  and  N_12
REMARK    3  A    between atoms: N_12  and  C_13
REMARK    4  A    between atoms: C_13  and  C_14
REMARK    5  A    between atoms: C_18  and  C_19
REMARK    6  A    between atoms: C_19  and  N_20
REMARK                            x       y       z     vdW  Elec       q    Type
REMARK                         _______ _______ _______ _____ _____    ______ ____
ROOT
ATOM      1  S   UNL     1       1.784   3.898  20.644  0.00  0.00    +0.000 S 
ATOM      2  O   UNL     1       0.879   2.803  20.386  0.00  0.00    +0.000 OA
ATOM      3  O   UNL     1       2.534   4.001  21.876  0.00  0.00    +0.000 OA
ENDROOT
BRANCH   1  11
ATOM      4  O   UNL     1       7.816   4.677  15.441  0.00  0.00    +0.000 OA
ATOM      5  C   UNL     1       7.016   4.632  16.370  0.00  0.00    +0.000 A 
ATOM      6  N   UNL     1       7.351   5.031  17.633  0.00  0.00    +0.000 N 
ATOM      7  C   UNL     1       6.543   4.979  18.738  0.00  0.00    +0.000 A 
ATOM      8  O   UNL     1       6.930   5.299  19.857  0.00  0.00    +0.000 OA
ATOM      9  C   UNL     1       5.168   4.493  18.516  0.00  0.00    +0.000 A 
ATOM     10  C   UNL     1       4.256   4.430  19.568  0.00  0.00    +0.000 A 
ATOM     11  C   UNL     1       2.969   3.951  19.314  0.00  0.00    +0.000 A 
ATOM     12  C   UNL     1       2.588   3.570  18.021  0.00  0.00    +0.000 A 
ATOM     13  C   UNL     1       3.513   3.636  16.973  0.00  0.00    +0.000 A 
ATOM     14  C   UNL     1       4.806   4.097  17.226  0.00  0.00    +0.000 A 
ATOM     15  N   UNL     1       5.742   4.170  16.192  0.00  0.00    +0.000 N 
ATOM     16  H   UNL     1       8.294   5.363  17.767  0.00  0.00    +0.000 HD
ATOM     17  H   UNL     1       5.506   3.883  15.252  0.00  0.00    +0.000 HD
ENDBRANCH   1  11
BRANCH   1  18
ATOM     18  N   UNL     1       0.957   5.365  20.430  0.00  0.00    +0.000 NA
ATOM     19  H   UNL     1       0.016   5.323  20.824  0.00  0.00    +0.000 HD
BRANCH  18  20
ATOM     20  C   UNL     1       1.702   6.549  20.901  0.00  0.00    +0.000 C 
BRANCH  20  21
ATOM     21  C   UNL     1       1.794   7.669  19.888  0.00  0.00    +0.000 A 
ATOM     22  C   UNL     1       2.473   7.427  18.686  0.00  0.00    +0.000 A 
ATOM     23  C   UNL     1       2.541   8.406  17.695  0.00  0.00    +0.000 A 
ATOM     24  C   UNL     1       1.891   9.625  17.875  0.00  0.00    +0.000 A 
ATOM     25  C   UNL     1       1.143   9.867  19.037  0.00  0.00    +0.000 A 
ATOM     26  C   UNL     1       1.124   8.892  20.052  0.00  0.00    +0.000 A 
BRANCH  25  27
ATOM     27  C   UNL     1       0.324  11.129  19.170  0.00  0.00    +0.000 C 
BRANCH  27  28
ATOM     28  N   UNL     1      -1.017  10.974  18.640  0.00  0.00    +0.000 N 
ATOM     29  C   UNL     1      -2.106  11.745  18.942  0.00  0.00    +0.000 A 
ATOM     30  C   UNL     1      -3.133  11.208  18.202  0.00  0.00    +0.000 A 
ATOM     31  N   UNL     1      -2.680  10.181  17.413  0.00  0.00    +0.000 NA
ATOM     32  C   UNL     1      -1.398  10.080  17.681  0.00  0.00    +0.000 A 
ENDBRANCH  27  28
ENDBRANCH  25  27
ENDBRANCH  20  21
ENDBRANCH  18  20
ENDBRANCH   1  18
TORSDOF 6
ENDMDL
MODEL 2
REMARK VINA RESULT:      -8.8      1.077      1.125
REMARK  Name = 
REMARK  6 active torsions:
REMARK  status: ('A' for Active; 'I' for Inactive)
REMARK    1  A    between atoms: C_8  and  S_9
REMARK    2  A    between atoms: S_9  and  N_12
REMARK    3  A    between atoms: N_12  and  C_13
REMARK    4  A    between atoms: C_13  and  C_14
REMARK    5  A    between atoms: C_18  and  C_19
REMARK    6  A    between atoms: C_19  and  N_20
REMARK                            x       y       z     vdW  Elec       q    Type
REMARK                         _______ _______ _______ _____ _____    ______ ____
ROOT
ATOM      1  S   UNL     1       2.770   3.233  20.511  0.00  0.00    +0.000 S 
ATOM      2  O   UNL     1       1.435   2.814  20.157  0.00  0.00    +0.000 OA
ATOM      3  O   UNL     1       3.638   2.420  21.334  0.00  0.00    +0.000 OA
ENDROOT
BRANCH   1  11
ATOM      4  O   UNL     1       7.606   5.143  14.427  0.00  0.00    +0.000 OA
ATOM      5  C   UNL     1       7.014   4.904  15.474  0.00  0.00    +0.000 A 
ATOM      6  N   UNL     1       7.604   5.078  16.695  0.00  0.00    +0.000 N 
ATOM      7  C   UNL     1       7.040   4.799  17.912  0.00  0.00    +0.000 A 
ATOM      8  O   UNL     1       7.651   4.923  18.968  0.00  0.00    +0.000 OA
ATOM      9  C   UNL     1       5.647   4.316  17.887  0.00  0.00    +0.000 A 
ATOM     10  C   UNL     1       4.970   4.033  19.073  0.00  0.00    +0.000 A 
ATOM     11  C   UNL     1       3.656   3.566  19.001  0.00  0.00    +0.000 A 
ATOM     12  C   UNL     1       3.015   3.414  17.766  0.00  0.00    +0.000 A 
ATOM     13  C   UNL     1       3.705   3.699  16.582  0.00  0.00    +0.000 A 
ATOM     14  C   UNL     1       5.025   4.149  16.648  0.00  0.00    +0.000 A 
ATOM     15  N   UNL     1       5.729   4.440  15.477  0.00  0.00    +0.000 N 
ATOM     16  H   UNL     1       8.556   5.411  16.693  0.00  0.00    +0.000 HD
ATOM     17  H   UNL     1       5.303   4.321  14.567  0.00  0.00    +0.000 HD
ENDBRANCH   1  11
BRANCH   1  18
ATOM     18  N   UNL     1       2.700   4.775  21.219  0.00  0.00    +0.000 NA
ATOM     19  H   UNL     1       3.544   5.314  21.022  0.00  0.00    +0.000 HD
BRANCH  18  20
ATOM     20  C   UNL     1       1.474   5.530  20.896  0.00  0.00    +0.000 C 
BRANCH  20  21
ATOM     21  C   UNL     1       1.715   6.809  20.126  0.00  0.00    +0.000 A 
ATOM     22  C   UNL     1       2.320   6.724  18.864  0.00  0.00    +0.000 A 
ATOM     23  C   UNL     1       2.515   7.865  18.088  0.00  0.00    +0.000 A 
ATOM     24  C   UNL     1       2.068   9.103  18.545  0.00  0.00    +0.000 A 
ATOM     25  C   UNL     1       1.393   9.207  19.771  0.00  0.00    +0.000 A 
ATOM     26  C   UNL     1       1.247   8.056  20.568  0.00  0.00    +0.000 A 
BRANCH  25  27
ATOM     27  C   UNL     1       0.784  10.521  20.199  0.00  0.00    +0.000 C 
BRANCH  27  28
ATOM     28  N   UNL     1      -0.260  10.964  19.296  0.00  0.00    +0.000 N 
ATOM     29  C   UNL     1      -0.365  12.199  18.718  0.00  0.00    +0.000 A 
ATOM     30  C   UNL     1      -1.512  12.136  17.960  0.00  0.00    +0.000 A 
ATOM     31  N   UNL     1      -2.061  10.880  18.012  0.00  0.00    +0.000 NA
ATOM     32  C   UNL     1      -1.273  10.191  18.805  0.00  0.00    +0.000 A 
ENDBRANCH  27  28
ENDBRANCH  25  27
ENDBRANCH  20  21
ENDBRANCH  18  20
ENDBRANCH   1  18
TORSDOF 6
ENDMDL
MODEL 3
REMARK VINA RESULT:      -8.5      1.657      2.246
REMARK  Name = 
REMARK  6 active torsions:
REMARK  status: ('A' for Active; 'I' for Inactive)
REMARK    1  A    between atoms: C_8  and  S_9
REMARK    2  A    between atoms: S_9  and  N_12
REMARK    3  A    between atoms: N_12  and  C_13
REMARK    4  A    between atoms: C_13  and  C_14
REMARK    5  A    between atoms: C_18  and  C_19
REMARK    6  A    between atoms: C_19  and  N_20
REMARK                            x       y       z     vdW  Elec       q    Type
REMARK                         _______ _______ _______ _____ _____    ______ ____
ROOT
ATOM      1  S   UNL     1       2.754   3.436  20.446  0.00  0.00    +0.000 S 
ATOM      2  O   UNL     1       1.395   3.089  20.107  0.00  0.00    +0.000 OA
ATOM      3  O   UNL     1       3.585   2.580  21.263  0.00  0.00    +0.000 OA
ENDROOT
BRANCH   1  11
ATOM      4  O   UNL     1       7.630   5.037  14.304  0.00  0.00    +0.000 OA
ATOM      5  C   UNL     1       7.038   4.834  15.359  0.00  0.00    +0.000 A 
ATOM      6  N   UNL     1       7.654   4.960  16.572  0.00  0.00    +0.000 N 
ATOM      7  C   UNL     1       7.089   4.714  17.795  0.00  0.00    +0.000 A 
ATOM      8  O   UNL     1       7.720   4.790  18.843  0.00  0.00    +0.000 OA
ATOM      9  C   UNL     1       5.665   4.330  17.787  0.00  0.00    +0.000 A 
ATOM     10  C   UNL     1       4.986   4.089  18.981  0.00  0.00    +0.000 A 
ATOM     11  C   UNL     1       3.641   3.715  18.925  0.00  0.00    +0.000 A 
ATOM     12  C   UNL     1       2.975   3.615  17.698  0.00  0.00    +0.000 A 
ATOM     13  C   UNL     1       3.667   3.858  16.506  0.00  0.00    +0.000 A 
ATOM     14  C   UNL     1       5.016   4.214  16.556  0.00  0.00    +0.000 A 
ATOM     15  N   UNL     1       5.723   4.461  15.377  0.00  0.00    +0.000 N 
ATOM     16  H   UNL     1       8.627   5.225  16.558  0.00  0.00    +0.000 HD
ATOM     17  H   UNL     1       5.278   4.378  14.473  0.00  0.00    +0.000 HD
ENDBRANCH   1  11
BRANCH   1  18
ATOM     18  N   UNL     1       2.775   4.982  21.147  0.00  0.00    +0.000 NA
ATOM     19  H   UNL     1       3.645   5.474  20.940  0.00  0.00    +0.000 HD
BRANCH  18  20
ATOM     20  C   UNL     1       1.588   5.801  20.833  0.00  0.00    +0.000 C 
BRANCH  20  21
ATOM     21  C   UNL     1       1.859   6.954  19.892  0.00  0.00    +0.000 A 
ATOM     22  C   UNL     1       2.776   6.762  18.849  0.00  0.00    +0.000 A 
ATOM     23  C   UNL     1       3.021   7.772  17.920  0.00  0.00    +0.000 A 
ATOM     24  C   UNL     1       2.319   8.973  17.995  0.00  0.00    +0.000 A 
ATOM     25  C   UNL     1       1.342   9.165  18.984  0.00  0.00    +0.000 A 
ATOM     26  C   UNL     1       1.140   8.158  19.947  0.00  0.00    +0.000 A 
BRANCH  25  27
ATOM     27  C   UNL     1       0.483  10.407  18.980  0.00  0.00    +0.000 C 
BRANCH  27  28
ATOM     28  N   UNL     1       1.154  11.543  19.581  0.00  0.00    +0.000 N 
ATOM     29  C   UNL     1       1.893  12.490  18.927  0.00  0.00    +0.000 A 
ATOM     30  C   UNL     1       2.322  13.345  19.916  0.00  0.00    +0.000 A 
ATOM     31  N   UNL     1       1.808  12.979  21.134  0.00  0.00    +0.000 NA
ATOM     32  C   UNL     1       1.090  11.905  20.896  0.00  0.00    +0.000 A 
ENDBRANCH  27  28
ENDBRANCH  25  27
ENDBRANCH  20  21
ENDBRANCH  18  20
ENDBRANCH   1  18
TORSDOF 6
ENDMDL
MODEL 4
REMARK VINA RESULT:      -8.5      1.404      1.768
REMARK  Name = 
REMARK  6 active torsions:
REMARK  status: ('A' for Active; 'I' for Inactive)
REMARK    1  A    between atoms: C_8  and  S_9
REMARK    2  A    between atoms: S_9  and  N_12
REMARK    3  A    between atoms: N_12  and  C_13
REMARK    4  A    between atoms: C_13  and  C_14
REMARK    5  A    between atoms: C_18  and  C_19
REMARK    6  A    between atoms: C_19  and  N_20
REMARK                            x       y       z     vdW  Elec       q    Type
REMARK                         _______ _______ _______ _____ _____    ______ ____
ROOT
ATOM      1  S   UNL     1       2.211   3.111  20.183  0.00  0.00    +0.000 S 
ATOM      2  O   UNL     1       1.238   2.153  19.717  0.00  0.00    +0.000 OA
ATOM      3  O   UNL     1       3.073   2.843  21.313  0.00  0.00    +0.000 OA
ENDROOT
BRANCH   1  11
ATOM      4  O   UNL     1       7.746   5.328  14.843  0.00  0.00    +0.000 OA
ATOM      5  C   UNL     1       7.032   5.035  15.797  0.00  0.00    +0.000 A 
ATOM      6  N   UNL     1       7.469   5.139  17.088  0.00  0.00    +0.000 N 
ATOM      7  C   UNL     1       6.762   4.797  18.210  0.00  0.00    +0.000 A 
ATOM      8  O   UNL     1       7.240   4.861  19.338  0.00  0.00    +0.000 OA
ATOM      9  C   UNL     1       5.383   4.322  17.990  0.00  0.00    +0.000 A 
ATOM     10  C   UNL     1       4.568   3.978  19.069  0.00  0.00    +0.000 A 
ATOM     11  C   UNL     1       3.273   3.522  18.812  0.00  0.00    +0.000 A 
ATOM     12  C   UNL     1       2.787   3.441  17.502  0.00  0.00    +0.000 A 
ATOM     13  C   UNL     1       3.615   3.787  16.428  0.00  0.00    +0.000 A 
ATOM     14  C   UNL     1       4.916   4.226  16.678  0.00  0.00    +0.000 A 
ATOM     15  N   UNL     1       5.757   4.577  15.618  0.00  0.00    +0.000 N 
ATOM     16  H   UNL     1       8.413   5.467  17.219  0.00  0.00    +0.000 HD
ATOM     17  H   UNL     1       5.444   4.510  14.659  0.00  0.00    +0.000 HD
ENDBRANCH   1  11
BRANCH   1  18
ATOM     18  N   UNL     1       1.436   4.593  20.477  0.00  0.00    +0.000 NA
ATOM     19  H   UNL     1       0.694   4.494  21.172  0.00  0.00    +0.000 HD
BRANCH  18  20
ATOM     20  C   UNL     1       2.357   5.699  20.805  0.00  0.00    +0.000 C 
BRANCH  20  21
ATOM     21  C   UNL     1       2.095   6.975  20.038  0.00  0.00    +0.000 A 
ATOM     22  C   UNL     1       2.514   7.048  18.702  0.00  0.00    +0.000 A 
ATOM     23  C   UNL     1       2.249   8.180  17.932  0.00  0.00    +0.000 A 
ATOM     24  C   UNL     1       1.521   9.236  18.474  0.00  0.00    +0.000 A 
ATOM     25  C   UNL     1       1.025   9.160  19.784  0.00  0.00    +0.000 A 
ATOM     26  C   UNL     1       1.343   8.035  20.569  0.00  0.00    +0.000 A 
BRANCH  25  27
ATOM     27  C   UNL     1       0.118  10.240  20.324  0.00  0.00    +0.000 C 
BRANCH  27  28
ATOM     28  N   UNL     1       0.444  11.549  19.792  0.00  0.00    +0.000 N 
ATOM     29  C   UNL     1       1.553  12.294  20.089  0.00  0.00    +0.000 A 
ATOM     30  C   UNL     1       1.409  13.446  19.350  0.00  0.00    +0.000 A 
ATOM     31  N   UNL     1       0.284  13.387  18.569  0.00  0.00    +0.000 NA
ATOM     32  C   UNL     1      -0.264  12.224  18.839  0.00  0.00    +0.000 A 
ENDBRANCH  27  28
ENDBRANCH  25  27
ENDBRANCH  20  21
ENDBRANCH  18  20
ENDBRANCH   1  18
TORSDOF 6
ENDMDL
MODEL 5
REMARK VINA RESULT:      -8.4      1.040      1.660
REMARK  Name = 
REMARK  6 active torsions:
REMARK  status: ('A' for Active; 'I' for Inactive)
REMARK    1  A    between atoms: C_8  and  S_9
REMARK    2  A    between atoms: S_9  and  N_12
REMARK    3  A    between atoms: N_12  and  C_13
REMARK    4  A    between atoms: C_13  and  C_14
REMARK    5  A    between atoms: C_18  and  C_19
REMARK    6  A    between atoms: C_19  and  N_20
REMARK                            x       y       z     vdW  Elec       q    Type
REMARK                         _______ _______ _______ _____ _____    ______ ____
ROOT
ATOM      1  S   UNL     1       1.898   4.570  20.713  0.00  0.00    +0.000 S 
ATOM      2  O   UNL     1       0.570   4.380  20.181  0.00  0.00    +0.000 OA
ATOM      3  O   UNL     1       2.432   3.735  21.766  0.00  0.00    +0.000 OA
ENDROOT
BRANCH   1  11
ATOM      4  O   UNL     1       7.841   4.646  15.352  0.00  0.00    +0.000 OA
ATOM      5  C   UNL     1       7.066   4.697  16.301  0.00  0.00    +0.000 A 
ATOM      6  N   UNL     1       7.472   5.078  17.549  0.00  0.00    +0.000 N 
ATOM      7  C   UNL     1       6.692   5.125  18.674  0.00  0.00    +0.000 A 
ATOM      8  O   UNL     1       7.139   5.419  19.777  0.00  0.00    +0.000 OA
ATOM      9  C   UNL     1       5.270   4.781  18.493  0.00  0.00    +0.000 A 
ATOM     10  C   UNL     1       4.383   4.828  19.569  0.00  0.00    +0.000 A 
ATOM     11  C   UNL     1       3.047   4.481  19.353  0.00  0.00    +0.000 A 
ATOM     12  C   UNL     1       2.596   4.124  18.077  0.00  0.00    +0.000 A 
ATOM     13  C   UNL     1       3.495   4.078  17.006  0.00  0.00    +0.000 A 
ATOM     14  C   UNL     1       4.835   4.406  17.220  0.00  0.00    +0.000 A 
ATOM     15  N   UNL     1       5.747   4.367  16.162  0.00  0.00    +0.000 N 
ATOM     16  H   UNL     1       8.448   5.312  17.654  0.00  0.00    +0.000 HD
ATOM     17  H   UNL     1       5.458   4.093  15.233  0.00  0.00    +0.000 HD
ENDBRANCH   1  11
BRANCH   1  18
ATOM     18  N   UNL     1       2.073   6.184  21.209  0.00  0.00    +0.000 NA
ATOM     19  H   UNL     1       2.964   6.333  21.685  0.00  0.00    +0.000 HD
BRANCH  18  20
ATOM     20  C   UNL     1       1.847   7.172  20.136  0.00  0.00    +0.000 C 
BRANCH  20  21
ATOM     21  C   UNL     1       1.122   8.421  20.582  0.00  0.00    +0.000 A 
ATOM     22  C   UNL     1       0.994   8.664  21.957  0.00  0.00    +0.000 A 
ATOM     23  C   UNL     1       0.384   9.828  22.422  0.00  0.00    +0.000 A 
ATOM     24  C   UNL     1      -0.068  10.787  21.518  0.00  0.00    +0.000 A 
ATOM     25  C   UNL     1       0.113  10.605  20.139  0.00  0.00    +0.000 A 
ATOM     26  C   UNL     1       0.684   9.403  19.679  0.00  0.00    +0.000 A 
BRANCH  25  27
ATOM     27  C   UNL     1      -0.246  11.705  19.168  0.00  0.00    +0.000 C 
BRANCH  27  28
ATOM     28  N   UNL     1      -1.603  11.580  18.672  0.00  0.00    +0.000 N 
ATOM     29  C   UNL     1      -2.737  12.047  19.278  0.00  0.00    +0.000 A 
ATOM     30  C   UNL     1      -3.761  11.683  18.435  0.00  0.00    +0.000 A 
ATOM     31  N   UNL     1      -3.272  11.070  17.310  0.00  0.00    +0.000 NA
ATOM     32  C   UNL     1      -1.968  11.043  17.470  0.00  0.00    +0.000 A 
ENDBRANCH  27  28
ENDBRANCH  25  27
ENDBRANCH  20  21
ENDBRANCH  18  20
ENDBRANCH   1  18
TORSDOF 6
ENDMDL
MODEL 6
REMARK VINA RESULT:      -8.2      4.253      9.391
REMARK  Name = 
REMARK  6 active torsions:
REMARK  status: ('A' for Active; 'I' for Inactive)
REMARK    1  A    between atoms: C_8  and  S_9
REMARK    2  A    between atoms: S_9  and  N_12
REMARK    3  A    between atoms: N_12  and  C_13
REMARK    4  A    between atoms: C_13  and  C_14
REMARK    5  A    between atoms: C_18  and  C_19
REMARK    6  A    between atoms: C_19  and  N_20
REMARK                            x       y       z     vdW  Elec       q    Type
REMARK                         _______ _______ _______ _____ _____    ______ ____
ROOT
ATOM      1  S   UNL     1       0.445  10.102  19.098  0.00  0.00    +0.000 S 
ATOM      2  O   UNL     1       1.219  11.319  19.136  0.00  0.00    +0.000 OA
ATOM      3  O   UNL     1       0.215   9.300  20.280  0.00  0.00    +0.000 OA
ENDROOT
BRANCH   1  11
ATOM      4  O   UNL     1      -6.936  12.444  17.076  0.00  0.00    +0.000 OA
ATOM      5  C   UNL     1      -5.831  12.196  17.546  0.00  0.00    +0.000 A 
ATOM      6  N   UNL     1      -5.408  12.737  18.727  0.00  0.00    +0.000 N 
ATOM      7  C   UNL     1      -4.181  12.552  19.308  0.00  0.00    +0.000 A 
ATOM      8  O   UNL     1      -3.846  13.119  20.342  0.00  0.00    +0.000 OA
ATOM      9  C   UNL     1      -3.261  11.638  18.605  0.00  0.00    +0.000 A 
ATOM     10  C   UNL     1      -1.999  11.357  19.129  0.00  0.00    +0.000 A 
ATOM     11  C   UNL     1      -1.157  10.494  18.423  0.00  0.00    +0.000 A 
ATOM     12  C   UNL     1      -1.579   9.897  17.229  0.00  0.00    +0.000 A 
ATOM     13  C   UNL     1      -2.847  10.188  16.713  0.00  0.00    +0.000 A 
ATOM     14  C   UNL     1      -3.685  11.063  17.405  0.00  0.00    +0.000 A 
ATOM     15  N   UNL     1      -4.955  11.365  16.906  0.00  0.00    +0.000 N 
ATOM     16  H   UNL     1      -6.051  13.358  19.195  0.00  0.00    +0.000 HD
ATOM     17  H   UNL     1      -5.283  10.966  16.036  0.00  0.00    +0.000 HD
ENDBRANCH   1  11
BRANCH   1  18
ATOM     18  N   UNL     1       1.081   9.075  17.905  0.00  0.00    +0.000 NA
ATOM     19  H   UNL     1       0.851   9.406  16.967  0.00  0.00    +0.000 HD
BRANCH  18  20
ATOM     20  C   UNL     1       2.523   8.799  18.056  0.00  0.00    +0.000 C 
BRANCH  20  21
ATOM     21  C   UNL     1       2.916   7.367  17.767  0.00  0.00    +0.000 A 
ATOM     22  C   UNL     1       4.208   7.114  17.284  0.00  0.00    +0.000 A 
ATOM     23  C   UNL     1       4.641   5.809  17.055  0.00  0.00    +0.000 A 
ATOM     24  C   UNL     1       3.803   4.736  17.347  0.00  0.00    +0.000 A 
ATOM     25  C   UNL     1       2.532   4.956  17.901  0.00  0.00    +0.000 A 
ATOM     26  C   UNL     1       2.087   6.279  18.080  0.00  0.00    +0.000 A 
BRANCH  25  27
ATOM     27  C   UNL     1       1.681   3.792  18.349  0.00  0.00    +0.000 C 
BRANCH  27  28
ATOM     28  N   UNL     1       1.984   3.379  19.706  0.00  0.00    +0.000 N 
ATOM     29  C   UNL     1       2.997   2.547  20.096  0.00  0.00    +0.000 A 
ATOM     30  C   UNL     1       2.869   2.455  21.463  0.00  0.00    +0.000 A 
ATOM     31  N   UNL     1       1.854   3.259  21.913  0.00  0.00    +0.000 NA
ATOM     32  C   UNL     1       1.355   3.821  20.835  0.00  0.00    +0.000 A 
ENDBRANCH  27  28
ENDBRANCH  25  27
ENDBRANCH  20  21
ENDBRANCH  18  20
ENDBRANCH   1  18
TORSDOF 6
ENDMDL
MODEL 7
REMARK VINA RESULT:      -8.2      1.469      1.911
REMARK  Name = 
REMARK  6 active torsions:
REMARK  status: ('A' for Active; 'I' for Inactive)
REMARK    1  A    between atoms: C_8  and  S_9
REMARK    2  A    between atoms: S_9  and  N_12
REMARK    3  A    between atoms: N_12  and  C_13
REMARK    4  A    between atoms: C_13  and  C_14
REMARK    5  A    between atoms: C_18  and  C_19
REMARK    6  A    between atoms: C_19  and  N_20
REMARK                            x       y       z     vdW  Elec       q    Type
REMARK                         _______ _______ _______ _____ _____    ______ ____
ROOT
ATOM      1  S   UNL     1       1.748   3.618  20.524  0.00  0.00    +0.000 S 
ATOM      2  O   UNL     1       0.791   2.602  20.158  0.00  0.00    +0.000 OA
ATOM      3  O   UNL     1       2.491   3.563  21.763  0.00  0.00    +0.000 OA
ENDROOT
BRANCH   1  11
ATOM      4  O   UNL     1       7.811   4.703  15.413  0.00  0.00    +0.000 OA
ATOM      5  C   UNL     1       7.003   4.613  16.331  0.00  0.00    +0.000 A 
ATOM      6  N   UNL     1       7.309   4.997  17.606  0.00  0.00    +0.000 N 
ATOM      7  C   UNL     1       6.490   4.895  18.699  0.00  0.00    +0.000 A 
ATOM      8  O   UNL     1       6.853   5.205  19.829  0.00  0.00    +0.000 OA
ATOM      9  C   UNL     1       5.136   4.368  18.450  0.00  0.00    +0.000 A 
ATOM     10  C   UNL     1       4.213   4.254  19.490  0.00  0.00    +0.000 A 
ATOM     11  C   UNL     1       2.946   3.738  19.210  0.00  0.00    +0.000 A 
ATOM     12  C   UNL     1       2.593   3.371  17.905  0.00  0.00    +0.000 A 
ATOM     13  C   UNL     1       3.528   3.489  16.870  0.00  0.00    +0.000 A 
ATOM     14  C   UNL     1       4.801   3.987  17.149  0.00  0.00    +0.000 A 
ATOM     15  N   UNL     1       5.747   4.112  16.128  0.00  0.00    +0.000 N 
ATOM     16  H   UNL     1       8.239   5.357  17.758  0.00  0.00    +0.000 HD
ATOM     17  H   UNL     1       5.532   3.837  15.179  0.00  0.00    +0.000 HD
ENDBRANCH   1  11
BRANCH   1  18
ATOM     18  N   UNL     1       0.999   5.140  20.449  0.00  0.00    +0.000 NA
ATOM     19  H   UNL     1       0.095   5.134  20.924  0.00  0.00    +0.000 HD
BRANCH  18  20
ATOM     20  C   UNL     1       1.854   6.254  20.902  0.00  0.00    +0.000 C 
BRANCH  20  21
ATOM     21  C   UNL     1       1.840   7.460  19.989  0.00  0.00    +0.000 A 
ATOM     22  C   UNL     1       2.348   7.320  18.690  0.00  0.00    +0.000 A 
ATOM     23  C   UNL     1       2.308   8.383  17.790  0.00  0.00    +0.000 A 
ATOM     24  C   UNL     1       1.719   9.589  18.162  0.00  0.00    +0.000 A 
ATOM     25  C   UNL     1       1.136   9.734  19.430  0.00  0.00    +0.000 A 
ATOM     26  C   UNL     1       1.227   8.671  20.348  0.00  0.00    +0.000 A 
BRANCH  25  27
ATOM     27  C   UNL     1       0.373  10.989  19.783  0.00  0.00    +0.000 C 
BRANCH  27  28
ATOM     28  N   UNL     1      -0.141  10.958  21.137  0.00  0.00    +0.000 N 
ATOM     29  C   UNL     1      -1.308  11.521  21.578  0.00  0.00    +0.000 A 
ATOM     30  C   UNL     1      -1.352  11.231  22.922  0.00  0.00    +0.000 A 
ATOM     31  N   UNL     1      -0.283  10.455  23.289  0.00  0.00    +0.000 NA
ATOM     32  C   UNL     1       0.415  10.288  22.189  0.00  0.00    +0.000 A 
ENDBRANCH  27  28
ENDBRANCH  25  27
ENDBRANCH  20  21
ENDBRANCH  18  20
ENDBRANCH   1  18
TORSDOF 6
ENDMDL
MODEL 8
REMARK VINA RESULT:      -8.2      2.918      4.774
REMARK  Name = 
REMARK  6 active torsions:
REMARK  status: ('A' for Active; 'I' for Inactive)
REMARK    1  A    between atoms: C_8  and  S_9
REMARK    2  A    between atoms: S_9  and  N_12
REMARK    3  A    between atoms: N_12  and  C_13
REMARK    4  A    between atoms: C_13  and  C_14
REMARK    5  A    between atoms: C_18  and  C_19
REMARK    6  A    between atoms: C_19  and  N_20
REMARK                            x       y       z     vdW  Elec       q    Type
REMARK                         _______ _______ _______ _____ _____    ______ ____
ROOT
ATOM      1  S   UNL     1       0.689   9.214  21.286  0.00  0.00    +0.000 S 
ATOM      2  O   UNL     1      -0.607   8.679  21.627  0.00  0.00    +0.000 OA
ATOM      3  O   UNL     1       1.650   9.602  22.294  0.00  0.00    +0.000 OA
ENDROOT
BRANCH   1  11
ATOM      4  O   UNL     1       4.315   3.195  17.454  0.00  0.00    +0.000 OA
ATOM      5  C   UNL     1       3.740   3.990  18.190  0.00  0.00    +0.000 A 
ATOM      6  N   UNL     1       3.312   3.641  19.440  0.00  0.00    +0.000 N 
ATOM      7  C   UNL     1       2.627   4.444  20.313  0.00  0.00    +0.000 A 
ATOM      8  O   UNL     1       2.220   4.046  21.398  0.00  0.00    +0.000 OA
ATOM      9  C   UNL     1       2.384   5.829  19.867  0.00  0.00    +0.000 A 
ATOM     10  C   UNL     1       1.723   6.737  20.694  0.00  0.00    +0.000 A 
ATOM     11  C   UNL     1       1.503   8.035  20.226  0.00  0.00    +0.000 A 
ATOM     12  C   UNL     1       1.965   8.430  18.964  0.00  0.00    +0.000 A 
ATOM     13  C   UNL     1       2.625   7.509  18.143  0.00  0.00    +0.000 A 
ATOM     14  C   UNL     1       2.830   6.206  18.599  0.00  0.00    +0.000 A 
ATOM     15  N   UNL     1       3.489   5.274  17.793  0.00  0.00    +0.000 N 
ATOM     16  H   UNL     1       3.489   2.691  19.728  0.00  0.00    +0.000 HD
ATOM     17  H   UNL     1       3.816   5.520  16.869  0.00  0.00    +0.000 HD
ENDBRANCH   1  11
BRANCH   1  18
ATOM     18  N   UNL     1       0.488  10.537  20.242  0.00  0.00    +0.000 NA
ATOM     19  H   UNL     1       0.757  10.302  19.286  0.00  0.00    +0.000 HD
BRANCH  18  20
ATOM     20  C   UNL     1      -0.850  11.155  20.304  0.00  0.00    +0.000 C 
BRANCH  20  21
ATOM     21  C   UNL     1      -1.666  11.002  19.040  0.00  0.00    +0.000 A 
ATOM     22  C   UNL     1      -1.199  10.129  18.046  0.00  0.00    +0.000 A 
ATOM     23  C   UNL     1      -1.940   9.908  16.886  0.00  0.00    +0.000 A 
ATOM     24  C   UNL     1      -3.179  10.523  16.723  0.00  0.00    +0.000 A 
ATOM     25  C   UNL     1      -3.705  11.342  17.733  0.00  0.00    +0.000 A 
ATOM     26  C   UNL     1      -2.926  11.599  18.877  0.00  0.00    +0.000 A 
BRANCH  25  27
ATOM     27  C   UNL     1      -5.107  11.893  17.620  0.00  0.00    +0.000 C 
BRANCH  27  28
ATOM     28  N   UNL     1      -5.927  11.550  18.765  0.00  0.00    +0.000 N 
ATOM     29  C   UNL     1      -6.204  12.353  19.837  0.00  0.00    +0.000 A 
ATOM     30  C   UNL     1      -7.007  11.588  20.651  0.00  0.00    +0.000 A 
ATOM     31  N   UNL     1      -7.277  10.376  20.069  0.00  0.00    +0.000 NA
ATOM     32  C   UNL     1      -6.633  10.391  18.924  0.00  0.00    +0.000 A 
ENDBRANCH  27  28
ENDBRANCH  25  27
ENDBRANCH  20  21
ENDBRANCH  18  20
ENDBRANCH   1  18
TORSDOF 6
ENDMDL
MODEL 9
REMARK VINA RESULT:      -8.2      1.742      2.669
REMARK  Name = 
REMARK  6 active torsions:
REMARK  status: ('A' for Active; 'I' for Inactive)
REMARK    1  A    between atoms: C_8  and  S_9
REMARK    2  A    between atoms: S_9  and  N_12
REMARK    3  A    between atoms: N_12  and  C_13
REMARK    4  A    between atoms: C_13  and  C_14
REMARK    5  A    between atoms: C_18  and  C_19
REMARK    6  A    between atoms: C_19  and  N_20
REMARK                            x       y       z     vdW  Elec       q    Type
REMARK                         _______ _______ _______ _____ _____    ______ ____
ROOT
ATOM      1  S   UNL     1       1.989   4.349  20.591  0.00  0.00    +0.000 S 
ATOM      2  O   UNL     1       0.654   4.139  20.085  0.00  0.00    +0.000 OA
ATOM      3  O   UNL     1       2.572   3.494  21.601  0.00  0.00    +0.000 OA
ENDROOT
BRANCH   1  11
ATOM      4  O   UNL     1       7.797   4.773  15.100  0.00  0.00    +0.000 OA
ATOM      5  C   UNL     1       7.044   4.768  16.068  0.00  0.00    +0.000 A 
ATOM      6  N   UNL     1       7.473   5.104  17.321  0.00  0.00    +0.000 N 
ATOM      7  C   UNL     1       6.720   5.088  18.465  0.00  0.00    +0.000 A 
ATOM      8  O   UNL     1       7.188   5.345  19.569  0.00  0.00    +0.000 OA
ATOM      9  C   UNL     1       5.301   4.722  18.303  0.00  0.00    +0.000 A 
ATOM     10  C   UNL     1       4.440   4.706  19.401  0.00  0.00    +0.000 A 
ATOM     11  C   UNL     1       3.106   4.341  19.202  0.00  0.00    +0.000 A 
ATOM     12  C   UNL     1       2.631   4.028  17.923  0.00  0.00    +0.000 A 
ATOM     13  C   UNL     1       3.505   4.046  16.830  0.00  0.00    +0.000 A 
ATOM     14  C   UNL     1       4.842   4.392  17.026  0.00  0.00    +0.000 A 
ATOM     15  N   UNL     1       5.729   4.417  15.947  0.00  0.00    +0.000 N 
ATOM     16  H   UNL     1       8.446   5.354  17.413  0.00  0.00    +0.000 HD
ATOM     17  H   UNL     1       5.423   4.176  15.013  0.00  0.00    +0.000 HD
ENDBRANCH   1  11
BRANCH   1  18
ATOM     18  N   UNL     1       2.131   5.949  21.140  0.00  0.00    +0.000 NA
ATOM     19  H   UNL     1       2.963   6.073  21.718  0.00  0.00    +0.000 HD
BRANCH  18  20
ATOM     20  C   UNL     1       2.045   6.963  20.070  0.00  0.00    +0.000 C 
BRANCH  20  21
ATOM     21  C   UNL     1       1.347   8.241  20.478  0.00  0.00    +0.000 A 
ATOM     22  C   UNL     1       1.108   8.465  21.842  0.00  0.00    +0.000 A 
ATOM     23  C   UNL     1       0.519   9.651  22.277  0.00  0.00    +0.000 A 
ATOM     24  C   UNL     1       0.200  10.649  21.358  0.00  0.00    +0.000 A 
ATOM     25  C   UNL     1       0.495  10.482  19.996  0.00  0.00    +0.000 A 
ATOM     26  C   UNL     1       1.043   9.260  19.562  0.00  0.00    +0.000 A 
BRANCH  25  27
ATOM     27  C   UNL     1       0.280  11.616  19.023  0.00  0.00    +0.000 C 
BRANCH  27  28
ATOM     28  N   UNL     1       1.392  12.546  19.007  0.00  0.00    +0.000 N 
ATOM     29  C   UNL     1       1.641  13.532  19.922  0.00  0.00    +0.000 A 
ATOM     30  C   UNL     1       2.792  14.141  19.478  0.00  0.00    +0.000 A 
ATOM     31  N   UNL     1       3.279  13.509  18.363  0.00  0.00    +0.000 NA
ATOM     32  C   UNL     1       2.428  12.538  18.117  0.00  0.00    +0.000 A 
ENDBRANCH  27  28
ENDBRANCH  25  27
ENDBRANCH  20  21
ENDBRANCH  18  20
ENDBRANCH   1  18
TORSDOF 6
ENDMDL
