MODEL 1
REMARK VINA RESULT:      -7.8      0.000      0.000
REMARK  Name = 
REMARK  6 active torsions:
REMARK  status: ('A' for Active; 'I' for Inactive)
REMARK    1  A    between atoms: C_2  and  C_4
REMARK    2  A    between atoms: C_4  and  C_5
REMARK    3  A    between atoms: C_9  and  N_10
REMARK    4  A    between atoms: C_15  and  C_16
REMARK    5  A    between atoms: C_16  and  N_17
REMARK    6  A    between atoms: C_23  and  C_24
REMARK                            x       y       z     vdW  Elec       q    Type
REMARK                         _______ _______ _______ _____ _____    ______ ____
ROOT
ATOM      1  N   UNL     1       2.551   7.279  19.418  0.00  0.00    +0.000 N 
ATOM      2  C   UNL     1       2.216   8.025  20.662  0.00  0.00    +0.000 C 
ATOM      3  C   UNL     1       1.201   9.015  20.176  0.00  0.00    +0.000 A 
ATOM      4  C   UNL     1       1.441   9.220  18.816  0.00  0.00    +0.000 A 
ATOM      5  C   UNL     1       0.587   9.932  17.998  0.00  0.00    +0.000 A 
ATOM      6  C   UNL     1      -0.561  10.481  18.580  0.00  0.00    +0.000 A 
ATOM      7  C   UNL     1      -0.805  10.292  19.962  0.00  0.00    +0.000 A 
ATOM      8  C   UNL     1       0.068   9.547  20.785  0.00  0.00    +0.000 A 
ATOM      9  C   UNL     1       2.445   8.228  18.371  0.00  0.00    +0.000 C 
ATOM     10  O   UNL     1       2.887   8.167  17.239  0.00  0.00    +0.000 OA
ENDROOT
BRANCH   1  15
ATOM     11  C   UNL     1       1.893   3.857  18.451  0.00  0.00    +0.000 A 
ATOM     12  C   UNL     1       1.455   3.383  19.693  0.00  0.00    +0.000 A 
ATOM     13  C   UNL     1       0.944   4.264  20.641  0.00  0.00    +0.000 A 
ATOM     14  C   UNL     1       1.000   5.631  20.408  0.00  0.00    +0.000 A 
ATOM     15  C   UNL     1       1.687   6.112  19.281  0.00  0.00    +0.000 A 
ATOM     16  C   UNL     1       1.956   5.235  18.227  0.00  0.00    +0.000 A 
BRANCH  11  17
ATOM     17  C   UNL     1       2.353   2.898  17.385  0.00  0.00    +0.000 C 
BRANCH  17  19
ATOM     18  N   UNL     1       4.804   2.938  17.366  0.00  0.00    +0.000 N 
ATOM     19  C   UNL     1       3.678   2.238  17.708  0.00  0.00    +0.000 C 
ATOM     20  O   UNL     1       3.778   1.115  18.191  0.00  0.00    +0.000 OA
ATOM     21  H   UNL     1       5.679   2.534  17.660  0.00  0.00    +0.000 HD
ATOM     22  H   UNL     1       4.778   3.948  17.287  0.00  0.00    +0.000 HD
ENDBRANCH  17  19
ENDBRANCH  11  17
ENDBRANCH   1  15
BRANCH   8  23
ATOM     23  C   UNL     1      -0.315   9.287  22.219  0.00  0.00    +0.000 C 
ATOM     24  F   UNL     1       0.738   9.275  23.080  0.00  0.00    +0.000 F 
ATOM     25  F   UNL     1      -1.173  10.226  22.704  0.00  0.00    +0.000 F 
ATOM     26  F   UNL     1      -0.941   8.087  22.382  0.00  0.00    +0.000 F 
ENDBRANCH   8  23
BRANCH   6  27
ATOM     27  C   UNL     1      -1.556  11.235  17.720  0.00  0.00    +0.000 C 
BRANCH  27  28
ATOM     28  N   UNL     1      -2.882  10.621  17.735  0.00  0.00    +0.000 NA
ATOM     29  C   UNL     1      -3.904  11.502  18.295  0.00  0.00    +0.000 C 
ATOM     30  C   UNL     1      -5.088  11.422  17.354  0.00  0.00    +0.000 C 
ATOM     31  N   UNL     1      -4.584  10.862  16.105  0.00  0.00    +0.000 NA
ATOM     32  C   UNL     1      -3.312  10.225  16.401  0.00  0.00    +0.000 C 
ATOM     33  H   UNL     1      -4.424  11.613  15.439  0.00  0.00    +0.000 HD
ENDBRANCH  27  28
ENDBRANCH   6  27
TORSDOF 6
ENDMDL
MODEL 2
REMARK VINA RESULT:      -7.6      4.938      7.385
REMARK  Name = 
REMARK  6 active torsions:
REMARK  status: ('A' for Active; 'I' for Inactive)
REMARK    1  A    between atoms: C_2  and  C_4
REMARK    2  A    between atoms: C_4  and  C_5
REMARK    3  A    between atoms: C_9  and  N_10
REMARK    4  A    between atoms: C_15  and  C_16
REMARK    5  A    between atoms: C_16  and  N_17
REMARK    6  A    between atoms: C_23  and  C_24
REMARK                            x       y       z     vdW  Elec       q    Type
REMARK                         _______ _______ _______ _____ _____    ______ ____
ROOT
ATOM      1  N   UNL     1      -0.234  11.230  18.470  0.00  0.00    +0.000 N 
ATOM      2  C   UNL     1       0.474  10.469  19.536  0.00  0.00    +0.000 C 
ATOM      3  C   UNL     1       0.010  11.161  20.783  0.00  0.00    +0.000 A 
ATOM      4  C   UNL     1      -0.339  12.465  20.426  0.00  0.00    +0.000 A 
ATOM      5  C   UNL     1      -0.980  13.336  21.285  0.00  0.00    +0.000 A 
ATOM      6  C   UNL     1      -1.270  12.879  22.575  0.00  0.00    +0.000 A 
ATOM      7  C   UNL     1      -0.905  11.563  22.951  0.00  0.00    +0.000 A 
ATOM      8  C   UNL     1      -0.265  10.676  22.058  0.00  0.00    +0.000 A 
ATOM      9  C   UNL     1      -0.316  12.561  18.949  0.00  0.00    +0.000 C 
ATOM     10  O   UNL     1      -0.548  13.582  18.330  0.00  0.00    +0.000 OA
ENDROOT
BRANCH   1  15
ATOM     11  C   UNL     1      -3.811  11.313  17.947  0.00  0.00    +0.000 A 
ATOM     12  C   UNL     1      -3.834  10.758  16.662  0.00  0.00    +0.000 A 
ATOM     13  C   UNL     1      -2.784   9.959  16.224  0.00  0.00    +0.000 A 
ATOM     14  C   UNL     1      -1.647   9.827  17.008  0.00  0.00    +0.000 A 
ATOM     15  C   UNL     1      -1.517  10.604  18.171  0.00  0.00    +0.000 A 
ATOM     16  C   UNL     1      -2.659  11.186  18.728  0.00  0.00    +0.000 A 
BRANCH  11  17
ATOM     17  C   UNL     1      -4.990  12.096  18.464  0.00  0.00    +0.000 C 
BRANCH  17  19
ATOM     18  N   UNL     1      -6.953  12.349  17.017  0.00  0.00    +0.000 N 
ATOM     19  C   UNL     1      -6.319  11.577  17.955  0.00  0.00    +0.000 C 
ATOM     20  O   UNL     1      -6.860  10.561  18.378  0.00  0.00    +0.000 OA
ATOM     21  H   UNL     1      -7.792  11.958  16.620  0.00  0.00    +0.000 HD
ATOM     22  H   UNL     1      -6.422  12.976  16.423  0.00  0.00    +0.000 HD
ENDBRANCH  17  19
ENDBRANCH  11  17
ENDBRANCH   1  15
BRANCH   8  23
ATOM     23  C   UNL     1      -0.012   9.254  22.488  0.00  0.00    +0.000 C 
ATOM     24  F   UNL     1       1.241   8.805  22.207  0.00  0.00    +0.000 F 
ATOM     25  F   UNL     1      -0.171   9.082  23.829  0.00  0.00    +0.000 F 
ATOM     26  F   UNL     1      -0.864   8.371  21.892  0.00  0.00    +0.000 F 
ENDBRANCH   8  23
BRANCH   6  27
ATOM     27  C   UNL     1      -2.011  13.778  23.546  0.00  0.00    +0.000 C 
BRANCH  27  28
ATOM     28  N   UNL     1      -3.344  14.135  23.065  0.00  0.00    +0.000 NA
ATOM     29  C   UNL     1      -4.273  13.008  23.092  0.00  0.00    +0.000 C 
ATOM     30  C   UNL     1      -5.555  13.536  23.702  0.00  0.00    +0.000 C 
ATOM     31  N   UNL     1      -5.207  14.781  24.379  0.00  0.00    +0.000 NA
ATOM     32  C   UNL     1      -3.929  15.217  23.844  0.00  0.00    +0.000 C 
ATOM     33  H   UNL     1      -5.101  14.605  25.374  0.00  0.00    +0.000 HD
ENDBRANCH  27  28
ENDBRANCH   6  27
TORSDOF 6
ENDMDL
MODEL 3
REMARK VINA RESULT:      -7.6      4.211      6.194
REMARK  Name = 
REMARK  6 active torsions:
REMARK  status: ('A' for Active; 'I' for Inactive)
REMARK    1  A    between atoms: C_2  and  C_4
REMARK    2  A    between atoms: C_4  and  C_5
REMARK    3  A    between atoms: C_9  and  N_10
REMARK    4  A    between atoms: C_15  and  C_16
REMARK    5  A    between atoms: C_16  and  N_17
REMARK    6  A    between atoms: C_23  and  C_24
REMARK                            x       y       z     vdW  Elec       q    Type
REMARK                         _______ _______ _______ _____ _____    ______ ____
ROOT
ATOM      1  N   UNL     1       6.173   4.079  18.153  0.00  0.00    +0.000 N 
ATOM      2  C   UNL     1       4.910   3.292  18.126  0.00  0.00    +0.000 C 
ATOM      3  C   UNL     1       3.905   4.286  18.627  0.00  0.00    +0.000 A 
ATOM      4  C   UNL     1       4.595   5.210  19.415  0.00  0.00    +0.000 A 
ATOM      5  C   UNL     1       4.021   6.371  19.893  0.00  0.00    +0.000 A 
ATOM      6  C   UNL     1       2.678   6.608  19.578  0.00  0.00    +0.000 A 
ATOM      7  C   UNL     1       1.966   5.669  18.794  0.00  0.00    +0.000 A 
ATOM      8  C   UNL     1       2.569   4.493  18.296  0.00  0.00    +0.000 A 
ATOM      9  C   UNL     1       6.045   4.959  19.256  0.00  0.00    +0.000 C 
ATOM     10  O   UNL     1       6.912   5.583  19.839  0.00  0.00    +0.000 OA
ENDROOT
BRANCH   1  15
ATOM     11  C   UNL     1       5.573   4.486  14.610  0.00  0.00    +0.000 A 
ATOM     12  C   UNL     1       5.170   5.827  14.632  0.00  0.00    +0.000 A 
ATOM     13  C   UNL     1       5.559   6.659  15.677  0.00  0.00    +0.000 A 
ATOM     14  C   UNL     1       6.227   6.124  16.769  0.00  0.00    +0.000 A 
ATOM     15  C   UNL     1       6.388   4.733  16.867  0.00  0.00    +0.000 A 
ATOM     16  C   UNL     1       6.236   3.951  15.717  0.00  0.00    +0.000 A 
BRANCH  11  17
ATOM     17  C   UNL     1       5.241   3.607  13.433  0.00  0.00    +0.000 C 
BRANCH  17  19
ATOM     18  N   UNL     1       6.530   2.238  11.859  0.00  0.00    +0.000 N 
ATOM     19  C   UNL     1       6.388   3.464  12.453  0.00  0.00    +0.000 C 
ATOM     20  O   UNL     1       7.201   4.354  12.224  0.00  0.00    +0.000 OA
ATOM     21  H   UNL     1       7.239   2.175  11.146  0.00  0.00    +0.000 HD
ATOM     22  H   UNL     1       5.733   1.620  11.759  0.00  0.00    +0.000 HD
ENDBRANCH  17  19
ENDBRANCH  11  17
ENDBRANCH   1  15
BRANCH   8  23
ATOM     23  C   UNL     1       1.785   3.598  17.371  0.00  0.00    +0.000 C 
ATOM     24  F   UNL     1       2.461   3.235  16.248  0.00  0.00    +0.000 F 
ATOM     25  F   UNL     1       1.415   2.433  17.968  0.00  0.00    +0.000 F 
ATOM     26  F   UNL     1       0.632   4.182  16.936  0.00  0.00    +0.000 F 
ENDBRANCH   8  23
BRANCH   6  27
ATOM     27  C   UNL     1       2.009   7.888  20.041  0.00  0.00    +0.000 C 
BRANCH  27  28
ATOM     28  N   UNL     1       1.311   8.574  18.956  0.00  0.00    +0.000 NA
ATOM     29  C   UNL     1       0.563   9.741  19.417  0.00  0.00    +0.000 C 
ATOM     30  C   UNL     1       0.878  10.854  18.440  0.00  0.00    +0.000 C 
ATOM     31  N   UNL     1       2.081  10.445  17.724  0.00  0.00    +0.000 NA
ATOM     32  C   UNL     1       2.228   9.012  17.913  0.00  0.00    +0.000 C 
ATOM     33  H   UNL     1       2.889  10.911  18.128  0.00  0.00    +0.000 HD
ENDBRANCH  27  28
ENDBRANCH   6  27
TORSDOF 6
ENDMDL
MODEL 4
REMARK VINA RESULT:      -7.3      4.904      7.253
REMARK  Name = 
REMARK  6 active torsions:
REMARK  status: ('A' for Active; 'I' for Inactive)
REMARK    1  A    between atoms: C_2  and  C_4
REMARK    2  A    between atoms: C_4  and  C_5
REMARK    3  A    between atoms: C_9  and  N_10
REMARK    4  A    between atoms: C_15  and  C_16
REMARK    5  A    between atoms: C_16  and  N_17
REMARK    6  A    between atoms: C_23  and  C_24
REMARK                            x       y       z     vdW  Elec       q    Type
REMARK                         _______ _______ _______ _____ _____    ______ ____
ROOT
ATOM      1  N   UNL     1      -0.359  11.099  18.324  0.00  0.00    +0.000 N 
ATOM      2  C   UNL     1       0.356  10.303  19.358  0.00  0.00    +0.000 C 
ATOM      3  C   UNL     1      -0.020  11.014  20.623  0.00  0.00    +0.000 A 
ATOM      4  C   UNL     1      -0.319  12.334  20.282  0.00  0.00    +0.000 A 
ATOM      5  C   UNL     1      -0.878  13.234  21.167  0.00  0.00    +0.000 A 
ATOM      6  C   UNL     1      -1.135  12.789  22.469  0.00  0.00    +0.000 A 
ATOM      7  C   UNL     1      -0.819  11.456  22.829  0.00  0.00    +0.000 A 
ATOM      8  C   UNL     1      -0.263  10.541  21.909  0.00  0.00    +0.000 A 
ATOM      9  C   UNL     1      -0.354  12.432  18.805  0.00  0.00    +0.000 C 
ATOM     10  O   UNL     1      -0.562  13.464  18.196  0.00  0.00    +0.000 OA
ENDROOT
BRANCH   1  15
ATOM     11  C   UNL     1      -3.955  11.345  18.034  0.00  0.00    +0.000 A 
ATOM     12  C   UNL     1      -4.081  10.851  16.730  0.00  0.00    +0.000 A 
ATOM     13  C   UNL     1      -3.093  10.032  16.191  0.00  0.00    +0.000 A 
ATOM     14  C   UNL     1      -1.916   9.821  16.895  0.00  0.00    +0.000 A 
ATOM     15  C   UNL     1      -1.683  10.538  18.080  0.00  0.00    +0.000 A 
ATOM     16  C   UNL     1      -2.763  11.138  18.733  0.00  0.00    +0.000 A 
BRANCH  11  17
ATOM     17  C   UNL     1      -5.066  12.148  18.658  0.00  0.00    +0.000 C 
BRANCH  17  19
ATOM     18  N   UNL     1      -6.401  11.404  20.575  0.00  0.00    +0.000 N 
ATOM     19  C   UNL     1      -6.175  11.288  19.229  0.00  0.00    +0.000 C 
ATOM     20  O   UNL     1      -6.816  10.478  18.567  0.00  0.00    +0.000 OA
ATOM     21  H   UNL     1      -7.194  10.895  20.932  0.00  0.00    +0.000 HD
ATOM     22  H   UNL     1      -6.150  12.253  21.068  0.00  0.00    +0.000 HD
ENDBRANCH  17  19
ENDBRANCH  11  17
ENDBRANCH   1  15
BRANCH   8  23
ATOM     23  C   UNL     1      -0.062   9.107  22.328  0.00  0.00    +0.000 C 
ATOM     24  F   UNL     1      -0.915   8.232  21.732  0.00  0.00    +0.000 F 
ATOM     25  F   UNL     1       1.189   8.654  22.041  0.00  0.00    +0.000 F 
ATOM     26  F   UNL     1      -0.227   8.929  23.670  0.00  0.00    +0.000 F 
ENDBRANCH   8  23
BRANCH   6  27
ATOM     27  C   UNL     1      -1.788  13.722  23.470  0.00  0.00    +0.000 C 
BRANCH  27  28
ATOM     28  N   UNL     1      -3.174  13.353  23.751  0.00  0.00    +0.000 NA
ATOM     29  C   UNL     1      -3.943  14.454  24.325  0.00  0.00    +0.000 C 
ATOM     30  C   UNL     1      -5.261  14.480  23.577  0.00  0.00    +0.000 C 
ATOM     31  N   UNL     1      -5.055  13.709  22.356  0.00  0.00    +0.000 NA
ATOM     32  C   UNL     1      -3.868  12.897  22.555  0.00  0.00    +0.000 C 
ATOM     33  H   UNL     1      -4.889  14.345  21.580  0.00  0.00    +0.000 HD
ENDBRANCH  27  28
ENDBRANCH   6  27
TORSDOF 6
ENDMDL
MODEL 5
REMARK VINA RESULT:      -7.2      3.657      4.765
REMARK  Name = 
REMARK  6 active torsions:
REMARK  status: ('A' for Active; 'I' for Inactive)
REMARK    1  A    between atoms: C_2  and  C_4
REMARK    2  A    between atoms: C_4  and  C_5
REMARK    3  A    between atoms: C_9  and  N_10
REMARK    4  A    between atoms: C_15  and  C_16
REMARK    5  A    between atoms: C_16  and  N_17
REMARK    6  A    between atoms: C_23  and  C_24
REMARK                            x       y       z     vdW  Elec       q    Type
REMARK                         _______ _______ _______ _____ _____    ______ ____
ROOT
ATOM      1  N   UNL     1       0.804   8.330  21.137  0.00  0.00    +0.000 N 
ATOM      2  C   UNL     1      -0.441   8.658  20.390  0.00  0.00    +0.000 C 
ATOM      3  C   UNL     1      -0.276  10.125  20.126  0.00  0.00    +0.000 A 
ATOM      4  C   UNL     1       0.561  10.632  21.121  0.00  0.00    +0.000 A 
ATOM      5  C   UNL     1       1.078  11.913  21.092  0.00  0.00    +0.000 A 
ATOM      6  C   UNL     1       0.721  12.732  20.015  0.00  0.00    +0.000 A 
ATOM      7  C   UNL     1      -0.142  12.230  19.010  0.00  0.00    +0.000 A 
ATOM      8  C   UNL     1      -0.650  10.914  19.043  0.00  0.00    +0.000 A 
ATOM      9  C   UNL     1       1.110   9.492  21.888  0.00  0.00    +0.000 C 
ATOM     10  O   UNL     1       1.854   9.608  22.844  0.00  0.00    +0.000 OA
ENDROOT
BRANCH   1  15
ATOM     11  C   UNL     1       2.657   5.816  19.312  0.00  0.00    +0.000 A 
ATOM     12  C   UNL     1       2.449   6.318  18.022  0.00  0.00    +0.000 A 
ATOM     13  C   UNL     1       2.144   7.662  17.832  0.00  0.00    +0.000 A 
ATOM     14  C   UNL     1       1.907   8.474  18.931  0.00  0.00    +0.000 A 
ATOM     15  C   UNL     1       1.849   7.903  20.213  0.00  0.00    +0.000 A 
ATOM     16  C   UNL     1       2.406   6.637  20.415  0.00  0.00    +0.000 A 
BRANCH  11  17
ATOM     17  C   UNL     1       3.085   4.387  19.518  0.00  0.00    +0.000 C 
BRANCH  17  19
ATOM     18  N   UNL     1       4.998   2.883  19.217  0.00  0.00    +0.000 N 
ATOM     19  C   UNL     1       4.576   4.180  19.340  0.00  0.00    +0.000 C 
ATOM     20  O   UNL     1       5.396   5.092  19.362  0.00  0.00    +0.000 OA
ATOM     21  H   UNL     1       5.977   2.757  19.013  0.00  0.00    +0.000 HD
ATOM     22  H   UNL     1       4.369   2.168  18.869  0.00  0.00    +0.000 HD
ENDBRANCH  17  19
ENDBRANCH  11  17
ENDBRANCH   1  15
BRANCH   8  23
ATOM     23  C   UNL     1      -1.466  10.410  17.879  0.00  0.00    +0.000 C 
ATOM     24  F   UNL     1      -2.630   9.806  18.240  0.00  0.00    +0.000 F 
ATOM     25  F   UNL     1      -1.821  11.409  17.025  0.00  0.00    +0.000 F 
ATOM     26  F   UNL     1      -0.791   9.495  17.127  0.00  0.00    +0.000 F 
ENDBRANCH   8  23
BRANCH   6  27
ATOM     27  C   UNL     1       1.293  14.131  19.909  0.00  0.00    +0.000 C 
BRANCH  27  28
ATOM     28  N   UNL     1       1.807  14.423  18.573  0.00  0.00    +0.000 NA
ATOM     29  C   UNL     1       2.217  15.816  18.419  0.00  0.00    +0.000 C 
ATOM     30  C   UNL     1       3.566  15.783  17.729  0.00  0.00    +0.000 C 
ATOM     31  N   UNL     1       4.074  14.425  17.886  0.00  0.00    +0.000 NA
ATOM     32  C   UNL     1       2.945  13.580  18.234  0.00  0.00    +0.000 C 
ATOM     33  H   UNL     1       4.745  14.402  18.650  0.00  0.00    +0.000 HD
ENDBRANCH  27  28
ENDBRANCH   6  27
TORSDOF 6
ENDMDL
MODEL 6
REMARK VINA RESULT:      -7.2      4.941      7.798
REMARK  Name = 
REMARK  6 active torsions:
REMARK  status: ('A' for Active; 'I' for Inactive)
REMARK    1  A    between atoms: C_2  and  C_4
REMARK    2  A    between atoms: C_4  and  C_5
REMARK    3  A    between atoms: C_9  and  N_10
REMARK    4  A    between atoms: C_15  and  C_16
REMARK    5  A    between atoms: C_16  and  N_17
REMARK    6  A    between atoms: C_23  and  C_24
REMARK                            x       y       z     vdW  Elec       q    Type
REMARK                         _______ _______ _______ _____ _____    ______ ____
ROOT
ATOM      1  N   UNL     1      -0.227  11.197  18.476  0.00  0.00    +0.000 N 
ATOM      2  C   UNL     1       0.472  10.466  19.568  0.00  0.00    +0.000 C 
ATOM      3  C   UNL     1       0.018  11.207  20.789  0.00  0.00    +0.000 A 
ATOM      4  C   UNL     1      -0.315  12.502  20.387  0.00  0.00    +0.000 A 
ATOM      5  C   UNL     1      -0.944  13.411  21.215  0.00  0.00    +0.000 A 
ATOM      6  C   UNL     1      -1.239  13.003  22.520  0.00  0.00    +0.000 A 
ATOM      7  C   UNL     1      -0.890  11.697  22.942  0.00  0.00    +0.000 A 
ATOM      8  C   UNL     1      -0.262  10.771  22.081  0.00  0.00    +0.000 A 
ATOM      9  C   UNL     1      -0.292  12.545  18.908  0.00  0.00    +0.000 C 
ATOM     10  O   UNL     1      -0.511  13.547  18.252  0.00  0.00    +0.000 OA
ENDROOT
BRANCH   1  15
ATOM     11  C   UNL     1      -3.807  11.305  17.972  0.00  0.00    +0.000 A 
ATOM     12  C   UNL     1      -3.843  10.719  16.701  0.00  0.00    +0.000 A 
ATOM     13  C   UNL     1      -2.803   9.898  16.276  0.00  0.00    +0.000 A 
ATOM     14  C   UNL     1      -1.663   9.774  17.057  0.00  0.00    +0.000 A 
ATOM     15  C   UNL     1      -1.518  10.577  18.200  0.00  0.00    +0.000 A 
ATOM     16  C   UNL     1      -2.651  11.184  18.749  0.00  0.00    +0.000 A 
BRANCH  11  17
ATOM     17  C   UNL     1      -4.974  12.111  18.477  0.00  0.00    +0.000 C 
BRANCH  17  19
ATOM     18  N   UNL     1      -6.934  12.365  17.026  0.00  0.00    +0.000 N 
ATOM     19  C   UNL     1      -6.311  11.602  17.977  0.00  0.00    +0.000 C 
ATOM     20  O   UNL     1      -6.866  10.601  18.420  0.00  0.00    +0.000 OA
ATOM     21  H   UNL     1      -7.779  11.978  16.636  0.00  0.00    +0.000 HD
ATOM     22  H   UNL     1      -6.395  12.973  16.419  0.00  0.00    +0.000 HD
ENDBRANCH  17  19
ENDBRANCH  11  17
ENDBRANCH   1  15
BRANCH   8  23
ATOM     23  C   UNL     1      -0.027   9.362  22.561  0.00  0.00    +0.000 C 
ATOM     24  F   UNL     1       1.224   8.892  22.305  0.00  0.00    +0.000 F 
ATOM     25  F   UNL     1      -0.198   9.238  23.905  0.00  0.00    +0.000 F 
ATOM     26  F   UNL     1      -0.883   8.468  21.989  0.00  0.00    +0.000 F 
ENDBRANCH   8  23
BRANCH   6  27
ATOM     27  C   UNL     1      -1.968  13.945  23.459  0.00  0.00    +0.000 C 
BRANCH  27  28
ATOM     28  N   UNL     1      -1.051  14.721  24.291  0.00  0.00    +0.000 NA
ATOM     29  C   UNL     1      -0.496  15.877  23.590  0.00  0.00    +0.000 C 
ATOM     30  C   UNL     1      -0.604  17.042  24.553  0.00  0.00    +0.000 C 
ATOM     31  N   UNL     1      -1.569  16.644  25.572  0.00  0.00    +0.000 NA
ATOM     32  C   UNL     1      -1.693  15.199  25.507  0.00  0.00    +0.000 C 
ATOM     33  H   UNL     1      -2.472  17.059  25.361  0.00  0.00    +0.000 HD
ENDBRANCH  27  28
ENDBRANCH   6  27
TORSDOF 6
ENDMDL
MODEL 7
REMARK VINA RESULT:      -7.2      3.801      5.082
REMARK  Name = 
REMARK  6 active torsions:
REMARK  status: ('A' for Active; 'I' for Inactive)
REMARK    1  A    between atoms: C_2  and  C_4
REMARK    2  A    between atoms: C_4  and  C_5
REMARK    3  A    between atoms: C_9  and  N_10
REMARK    4  A    between atoms: C_15  and  C_16
REMARK    5  A    between atoms: C_16  and  N_17
REMARK    6  A    between atoms: C_23  and  C_24
REMARK                            x       y       z     vdW  Elec       q    Type
REMARK                         _______ _______ _______ _____ _____    ______ ____
ROOT
ATOM      1  N   UNL     1       0.757   8.268  21.230  0.00  0.00    +0.000 N 
ATOM      2  C   UNL     1      -0.473   8.604  20.463  0.00  0.00    +0.000 C 
ATOM      3  C   UNL     1      -0.258  10.052  20.135  0.00  0.00    +0.000 A 
ATOM      4  C   UNL     1       0.591  10.574  21.112  0.00  0.00    +0.000 A 
ATOM      5  C   UNL     1       1.150  11.834  21.030  0.00  0.00    +0.000 A 
ATOM      6  C   UNL     1       0.826  12.617  19.916  0.00  0.00    +0.000 A 
ATOM      7  C   UNL     1      -0.049  12.101  18.929  0.00  0.00    +0.000 A 
ATOM      8  C   UNL     1      -0.600  10.804  19.016  0.00  0.00    +0.000 A 
ATOM      9  C   UNL     1       1.098   9.451  21.932  0.00  0.00    +0.000 C 
ATOM     10  O   UNL     1       1.841   9.585  22.886  0.00  0.00    +0.000 OA
ENDROOT
BRANCH   1  15
ATOM     11  C   UNL     1       2.352   5.662  19.295  0.00  0.00    +0.000 A 
ATOM     12  C   UNL     1       2.307   6.291  18.045  0.00  0.00    +0.000 A 
ATOM     13  C   UNL     1       2.212   7.677  17.959  0.00  0.00    +0.000 A 
ATOM     14  C   UNL     1       2.018   8.424  19.112  0.00  0.00    +0.000 A 
ATOM     15  C   UNL     1       1.791   7.766  20.332  0.00  0.00    +0.000 A 
ATOM     16  C   UNL     1       2.145   6.419  20.451  0.00  0.00    +0.000 A 
BRANCH  11  17
ATOM     17  C   UNL     1       2.556   4.173  19.395  0.00  0.00    +0.000 C 
BRANCH  17  19
ATOM     18  N   UNL     1       0.492   3.225  20.320  0.00  0.00    +0.000 N 
ATOM     19  C   UNL     1       1.277   3.382  19.208  0.00  0.00    +0.000 C 
ATOM     20  O   UNL     1       0.959   2.844  18.153  0.00  0.00    +0.000 OA
ATOM     21  H   UNL     1      -0.396   2.773  20.170  0.00  0.00    +0.000 HD
ATOM     22  H   UNL     1       0.535   3.896  21.078  0.00  0.00    +0.000 HD
ENDBRANCH  17  19
ENDBRANCH  11  17
ENDBRANCH   1  15
BRANCH   8  23
ATOM     23  C   UNL     1      -1.428  10.278  17.871  0.00  0.00    +0.000 C 
ATOM     24  F   UNL     1      -1.839  11.237  16.999  0.00  0.00    +0.000 F 
ATOM     25  F   UNL     1      -0.752   9.365  17.121  0.00  0.00    +0.000 F 
ATOM     26  F   UNL     1      -2.562   9.651  18.294  0.00  0.00    +0.000 F 
ENDBRANCH   8  23
BRANCH   6  27
ATOM     27  C   UNL     1       1.445  13.991  19.753  0.00  0.00    +0.000 C 
BRANCH  27  28
ATOM     28  N   UNL     1       2.847  13.924  19.345  0.00  0.00    +0.000 NA
ATOM     29  C   UNL     1       3.095  14.596  18.072  0.00  0.00    +0.000 C 
ATOM     30  C   UNL     1       4.339  15.435  18.277  0.00  0.00    +0.000 C 
ATOM     31  N   UNL     1       4.519  15.559  19.719  0.00  0.00    +0.000 NA
ATOM     32  C   UNL     1       3.730  14.511  20.343  0.00  0.00    +0.000 C 
ATOM     33  H   UNL     1       4.164  16.461  20.027  0.00  0.00    +0.000 HD
ENDBRANCH  27  28
ENDBRANCH   6  27
TORSDOF 6
ENDMDL
MODEL 8
REMARK VINA RESULT:      -7.2      3.858      5.110
REMARK  Name = 
REMARK  6 active torsions:
REMARK  status: ('A' for Active; 'I' for Inactive)
REMARK    1  A    between atoms: C_2  and  C_4
REMARK    2  A    between atoms: C_4  and  C_5
REMARK    3  A    between atoms: C_9  and  N_10
REMARK    4  A    between atoms: C_15  and  C_16
REMARK    5  A    between atoms: C_16  and  N_17
REMARK    6  A    between atoms: C_23  and  C_24
REMARK                            x       y       z     vdW  Elec       q    Type
REMARK                         _______ _______ _______ _____ _____    ______ ____
ROOT
ATOM      1  N   UNL     1       0.577   8.317  21.303  0.00  0.00    +0.000 N 
ATOM      2  C   UNL     1      -0.616   8.648  20.477  0.00  0.00    +0.000 C 
ATOM      3  C   UNL     1      -0.400  10.100  20.174  0.00  0.00    +0.000 A 
ATOM      4  C   UNL     1       0.394  10.622  21.197  0.00  0.00    +0.000 A 
ATOM      5  C   UNL     1       0.943  11.889  21.154  0.00  0.00    +0.000 A 
ATOM      6  C   UNL     1       0.667  12.678  20.032  0.00  0.00    +0.000 A 
ATOM      7  C   UNL     1      -0.150  12.162  18.997  0.00  0.00    +0.000 A 
ATOM      8  C   UNL     1      -0.692  10.860  19.045  0.00  0.00    +0.000 A 
ATOM      9  C   UNL     1       0.870   9.497  22.032  0.00  0.00    +0.000 C 
ATOM     10  O   UNL     1       1.562   9.629  23.023  0.00  0.00    +0.000 OA
ENDROOT
BRANCH   1  15
ATOM     11  C   UNL     1       2.413   5.707  19.600  0.00  0.00    +0.000 A 
ATOM     12  C   UNL     1       2.329   6.224  18.302  0.00  0.00    +0.000 A 
ATOM     13  C   UNL     1       2.115   7.583  18.100  0.00  0.00    +0.000 A 
ATOM     14  C   UNL     1       1.844   8.405  19.185  0.00  0.00    +0.000 A 
ATOM     15  C   UNL     1       1.661   7.834  20.455  0.00  0.00    +0.000 A 
ATOM     16  C   UNL     1       2.129   6.538  20.688  0.00  0.00    +0.000 A 
BRANCH  11  17
ATOM     17  C   UNL     1       2.744   4.256  19.826  0.00  0.00    +0.000 C 
BRANCH  17  19
ATOM     18  N   UNL     1       0.574   3.289  20.436  0.00  0.00    +0.000 N 
ATOM     19  C   UNL     1       1.845   3.591  20.849  0.00  0.00    +0.000 C 
ATOM     20  O   UNL     1       2.179   3.376  22.010  0.00  0.00    +0.000 OA
ATOM     21  H   UNL     1       0.010   2.771  21.091  0.00  0.00    +0.000 HD
ATOM     22  H   UNL     1       0.374   3.141  19.454  0.00  0.00    +0.000 HD
ENDBRANCH  17  19
ENDBRANCH  11  17
ENDBRANCH   1  15
BRANCH   8  23
ATOM     23  C   UNL     1      -1.455  10.335  17.855  0.00  0.00    +0.000 C 
ATOM     24  F   UNL     1      -2.612   9.698  18.176  0.00  0.00    +0.000 F 
ATOM     25  F   UNL     1      -1.809  11.325  16.990  0.00  0.00    +0.000 F 
ATOM     26  F   UNL     1      -0.729   9.441  17.125  0.00  0.00    +0.000 F 
ENDBRANCH   8  23
BRANCH   6  27
ATOM     27  C   UNL     1       1.280  14.059  19.912  0.00  0.00    +0.000 C 
BRANCH  27  28
ATOM     28  N   UNL     1       2.733  14.013  19.765  0.00  0.00    +0.000 NA
ATOM     29  C   UNL     1       3.151  13.776  18.386  0.00  0.00    +0.000 C 
ATOM     30  C   UNL     1       4.260  14.770  18.107  0.00  0.00    +0.000 C 
ATOM     31  N   UNL     1       4.160  15.796  19.139  0.00  0.00    +0.000 NA
ATOM     32  C   UNL     1       3.364  15.244  20.220  0.00  0.00    +0.000 C 
ATOM     33  H   UNL     1       3.678  16.608  18.761  0.00  0.00    +0.000 HD
ENDBRANCH  27  28
ENDBRANCH   6  27
TORSDOF 6
ENDMDL
MODEL 9
REMARK VINA RESULT:      -7.1      5.353      8.562
REMARK  Name = 
REMARK  6 active torsions:
REMARK  status: ('A' for Active; 'I' for Inactive)
REMARK    1  A    between atoms: C_2  and  C_4
REMARK    2  A    between atoms: C_4  and  C_5
REMARK    3  A    between atoms: C_9  and  N_10
REMARK    4  A    between atoms: C_15  and  C_16
REMARK    5  A    between atoms: C_16  and  N_17
REMARK    6  A    between atoms: C_23  and  C_24
REMARK                            x       y       z     vdW  Elec       q    Type
REMARK                         _______ _______ _______ _____ _____    ______ ____
ROOT
ATOM      1  N   UNL     1       0.794  13.737  20.175  0.00  0.00    +0.000 N 
ATOM      2  C   UNL     1       1.252  12.321  20.149  0.00  0.00    +0.000 C 
ATOM      3  C   UNL     1       0.080  11.619  19.531  0.00  0.00    +0.000 A 
ATOM      4  C   UNL     1      -1.052  12.392  19.798  0.00  0.00    +0.000 A 
ATOM      5  C   UNL     1      -2.285  12.145  19.227  0.00  0.00    +0.000 A 
ATOM      6  C   UNL     1      -2.390  11.056  18.355  0.00  0.00    +0.000 A 
ATOM      7  C   UNL     1      -1.251  10.256  18.092  0.00  0.00    +0.000 A 
ATOM      8  C   UNL     1       0.008  10.529  18.669  0.00  0.00    +0.000 A 
ATOM      9  C   UNL     1      -0.606  13.676  20.382  0.00  0.00    +0.000 C 
ATOM     10  O   UNL     1      -1.362  14.556  20.749  0.00  0.00    +0.000 OA
ENDROOT
BRANCH   1  15
ATOM     11  C   UNL     1       1.551  16.703  18.248  0.00  0.00    +0.000 A 
ATOM     12  C   UNL     1       2.858  16.367  17.877  0.00  0.00    +0.000 A 
ATOM     13  C   UNL     1       3.261  15.036  17.852  0.00  0.00    +0.000 A 
ATOM     14  C   UNL     1       2.409  14.051  18.332  0.00  0.00    +0.000 A 
ATOM     15  C   UNL     1       1.206  14.423  18.955  0.00  0.00    +0.000 A 
ATOM     16  C   UNL     1       0.701  15.708  18.741  0.00  0.00    +0.000 A 
BRANCH  11  17
ATOM     17  C   UNL     1       1.079  18.132  18.181  0.00  0.00    +0.000 C 
BRANCH  17  19
ATOM     18  N   UNL     1       0.371  18.521  15.866  0.00  0.00    +0.000 N 
ATOM     19  C   UNL     1      -0.025  18.348  17.165  0.00  0.00    +0.000 C 
ATOM     20  O   UNL     1      -1.213  18.431  17.460  0.00  0.00    +0.000 OA
ATOM     21  H   UNL     1      -0.369  18.578  15.184  0.00  0.00    +0.000 HD
ATOM     22  H   UNL     1       1.254  18.142  15.542  0.00  0.00    +0.000 HD
ENDBRANCH  17  19
ENDBRANCH  11  17
ENDBRANCH   1  15
BRANCH   8  23
ATOM     23  C   UNL     1       1.202   9.708  18.253  0.00  0.00    +0.000 C 
ATOM     24  F   UNL     1       2.207  10.436  17.695  0.00  0.00    +0.000 F 
ATOM     25  F   UNL     1       1.766   9.046  19.300  0.00  0.00    +0.000 F 
ATOM     26  F   UNL     1       0.882   8.753  17.333  0.00  0.00    +0.000 F 
ENDBRANCH   8  23
BRANCH   6  27
ATOM     27  C   UNL     1      -3.709  10.765  17.666  0.00  0.00    +0.000 C 
BRANCH  27  28
ATOM     28  N   UNL     1      -4.825  11.487  18.274  0.00  0.00    +0.000 NA
ATOM     29  C   UNL     1      -5.467  12.414  17.345  0.00  0.00    +0.000 C 
ATOM     30  C   UNL     1      -6.958  12.199  17.503  0.00  0.00    +0.000 C 
ATOM     31  N   UNL     1      -7.120  10.912  18.170  0.00  0.00    +0.000 NA
ATOM     32  C   UNL     1      -5.845  10.581  18.781  0.00  0.00    +0.000 C 
ATOM     33  H   UNL     1      -7.345  10.201  17.479  0.00  0.00    +0.000 HD
ENDBRANCH  27  28
ENDBRANCH   6  27
TORSDOF 6
ENDMDL
