MODEL 1
REMARK VINA RESULT:      -8.4      0.000      0.000
REMARK  Name = 
REMARK  4 active torsions:
REMARK  status: ('A' for Active; 'I' for Inactive)
REMARK    1  A    between atoms: C_2  and  C_18
REMARK    2  A    between atoms: N_3  and  C_4
REMARK    3  A    between atoms: C_7  and  O_8
REMARK    4  A    between atoms: O_8  and  C_9
REMARK                            x       y       z     vdW  Elec       q    Type
REMARK                         _______ _______ _______ _____ _____    ______ ____
ROOT
ATOM      1  O   UNL     1       2.165   7.720  19.886  0.00  0.00    +0.000 OA
ATOM      2  C   UNL     1       2.418   7.773  18.689  0.00  0.00    +0.000 C 
ATOM      3  N   UNL     1       1.961   8.714  17.788  0.00  0.00    +0.000 N 
ATOM      4  H   UNL     1       2.035   8.458  16.808  0.00  0.00    +0.000 HD
ENDROOT
BRANCH   2   5
ATOM      5  C   UNL     1       3.231   6.646  18.068  0.00  0.00    +0.000 A 
ATOM      6  N   UNL     1       4.306   6.994  17.413  0.00  0.00    +0.000 NA
ATOM      7  N   UNL     1       4.979   6.011  16.743  0.00  0.00    +0.000 N 
ATOM      8  C   UNL     1       4.573   4.702  16.605  0.00  0.00    +0.000 A 
ATOM      9  O   UNL     1       5.158   3.907  15.879  0.00  0.00    +0.000 OA
ATOM     10  C   UNL     1       3.404   4.296  17.404  0.00  0.00    +0.000 A 
ATOM     11  C   UNL     1       2.970   2.964  17.400  0.00  0.00    +0.000 A 
ATOM     12  C   UNL     1       1.881   2.588  18.187  0.00  0.00    +0.000 A 
ATOM     13  C   UNL     1       1.240   3.531  18.985  0.00  0.00    +0.000 A 
ATOM     14  C   UNL     1       1.677   4.859  18.986  0.00  0.00    +0.000 A 
ATOM     15  C   UNL     1       2.750   5.251  18.175  0.00  0.00    +0.000 A 
ATOM     16  H   UNL     1       5.773   6.302  16.180  0.00  0.00    +0.000 HD
ENDBRANCH   2   5
BRANCH   3  17
ATOM     17  C   UNL     1       1.133   9.799  18.152  0.00  0.00    +0.000 A 
ATOM     18  C   UNL     1       1.637  11.030  18.579  0.00  0.00    +0.000 A 
ATOM     19  C   UNL     1       0.774  12.034  19.007  0.00  0.00    +0.000 A 
ATOM     20  C   UNL     1      -0.583  11.783  18.966  0.00  0.00    +0.000 A 
ATOM     21  N   UNL     1      -1.115  10.611  18.541  0.00  0.00    +0.000 NA
ATOM     22  C   UNL     1      -0.250   9.657  18.125  0.00  0.00    +0.000 A 
BRANCH  20  23
ATOM     23  O   UNL     1      -1.420  12.812  19.385  0.00  0.00    +0.000 OA
BRANCH  23  24
ATOM     24  C   UNL     1      -2.038  12.651  20.603  0.00  0.00    +0.000 A 
ATOM     25  C   UNL     1      -3.412  12.890  20.661  0.00  0.00    +0.000 A 
ATOM     26  C   UNL     1      -4.082  12.778  21.882  0.00  0.00    +0.000 A 
ATOM     27  C   UNL     1      -3.377  12.420  23.031  0.00  0.00    +0.000 A 
ATOM     28 CL   UNL     1      -4.189  12.334  24.546  0.00  0.00    +0.000 Cl
ATOM     29  C   UNL     1      -2.015  12.134  22.967  0.00  0.00    +0.000 A 
ATOM     30  C   UNL     1      -1.352  12.224  21.746  0.00  0.00    +0.000 A 
ENDBRANCH  23  24
ENDBRANCH  20  23
ENDBRANCH   3  17
TORSDOF 4
ENDMDL
MODEL 2
REMARK VINA RESULT:      -8.3      0.600      1.311
REMARK  Name = 
REMARK  4 active torsions:
REMARK  status: ('A' for Active; 'I' for Inactive)
REMARK    1  A    between atoms: C_2  and  C_18
REMARK    2  A    between atoms: N_3  and  C_4
REMARK    3  A    between atoms: C_7  and  O_8
REMARK    4  A    between atoms: O_8  and  C_9
REMARK                            x       y       z     vdW  Elec       q    Type
REMARK                         _______ _______ _______ _____ _____    ______ ____
ROOT
ATOM      1  O   UNL     1       2.038   7.425  19.846  0.00  0.00    +0.000 OA
ATOM      2  C   UNL     1       2.372   7.558  18.676  0.00  0.00    +0.000 C 
ATOM      3  N   UNL     1       1.986   8.566  17.815  0.00  0.00    +0.000 N 
ATOM      4  H   UNL     1       2.125   8.378  16.826  0.00  0.00    +0.000 HD
ENDROOT
BRANCH   2   5
ATOM      5  C   UNL     1       3.215   6.466  18.034  0.00  0.00    +0.000 A 
ATOM      6  N   UNL     1       4.281   6.856  17.386  0.00  0.00    +0.000 NA
ATOM      7  N   UNL     1       4.980   5.904  16.697  0.00  0.00    +0.000 N 
ATOM      8  C   UNL     1       4.609   4.588  16.533  0.00  0.00    +0.000 A 
ATOM      9  O   UNL     1       5.215   3.824  15.792  0.00  0.00    +0.000 OA
ATOM     10  C   UNL     1       3.451   4.135  17.322  0.00  0.00    +0.000 A 
ATOM     11  C   UNL     1       3.054   2.793  17.292  0.00  0.00    +0.000 A 
ATOM     12  C   UNL     1       1.975   2.372  18.071  0.00  0.00    +0.000 A 
ATOM     13  C   UNL     1       1.309   3.282  18.887  0.00  0.00    +0.000 A 
ATOM     14  C   UNL     1       1.709   4.620  18.915  0.00  0.00    +0.000 A 
ATOM     15  C   UNL     1       2.771   5.057  18.112  0.00  0.00    +0.000 A 
ATOM     16  H   UNL     1       5.766   6.228  16.141  0.00  0.00    +0.000 HD
ENDBRANCH   2   5
BRANCH   3  17
ATOM     17  C   UNL     1       1.145   9.635  18.198  0.00  0.00    +0.000 A 
ATOM     18  C   UNL     1      -0.250   9.550  18.173  0.00  0.00    +0.000 A 
ATOM     19  C   UNL     1      -1.027  10.663  18.479  0.00  0.00    +0.000 A 
ATOM     20  C   UNL     1      -0.379  11.829  18.833  0.00  0.00    +0.000 A 
ATOM     21  N   UNL     1       0.970  11.948  18.890  0.00  0.00    +0.000 NA
ATOM     22  C   UNL     1       1.698  10.847  18.593  0.00  0.00    +0.000 A 
BRANCH  20  23
ATOM     23  O   UNL     1      -1.184  12.918  19.149  0.00  0.00    +0.000 OA
BRANCH  23  24
ATOM     24  C   UNL     1      -1.924  12.828  20.305  0.00  0.00    +0.000 A 
ATOM     25  C   UNL     1      -1.224  12.690  21.505  0.00  0.00    +0.000 A 
ATOM     26  C   UNL     1      -1.928  12.557  22.704  0.00  0.00    +0.000 A 
ATOM     27  C   UNL     1      -3.323  12.571  22.696  0.00  0.00    +0.000 A 
ATOM     28 CL   UNL     1      -4.193  12.351  24.164  0.00  0.00    +0.000 Cl
ATOM     29  C   UNL     1      -4.024  12.755  21.506  0.00  0.00    +0.000 A 
ATOM     30  C   UNL     1      -3.321  12.911  20.313  0.00  0.00    +0.000 A 
ENDBRANCH  23  24
ENDBRANCH  20  23
ENDBRANCH   3  17
TORSDOF 4
ENDMDL
MODEL 3
REMARK VINA RESULT:      -8.3      7.024     10.572
REMARK  Name = 
REMARK  4 active torsions:
REMARK  status: ('A' for Active; 'I' for Inactive)
REMARK    1  A    between atoms: C_2  and  C_18
REMARK    2  A    between atoms: N_3  and  C_4
REMARK    3  A    between atoms: C_7  and  O_8
REMARK    4  A    between atoms: O_8  and  C_9
REMARK                            x       y       z     vdW  Elec       q    Type
REMARK                         _______ _______ _______ _____ _____    ______ ____
ROOT
ATOM      1  O   UNL     1       8.027   9.957  17.597  0.00  0.00    +0.000 OA
ATOM      2  C   UNL     1       8.613   9.571  18.601  0.00  0.00    +0.000 C 
ATOM      3  N   UNL     1       8.649   8.281  19.093  0.00  0.00    +0.000 N 
ATOM      4  H   UNL     1       8.938   8.188  20.062  0.00  0.00    +0.000 HD
ENDROOT
BRANCH   2   5
ATOM      5  C   UNL     1       9.297  10.604  19.484  0.00  0.00    +0.000 A 
ATOM      6  N   UNL     1       8.982  10.590  20.751  0.00  0.00    +0.000 NA
ATOM      7  N   UNL     1       9.488  11.588  21.536  0.00  0.00    +0.000 N 
ATOM      8  C   UNL     1      10.216  12.672  21.097  0.00  0.00    +0.000 A 
ATOM      9  O   UNL     1      10.524  13.597  21.837  0.00  0.00    +0.000 OA
ATOM     10  C   UNL     1      10.632  12.647  19.684  0.00  0.00    +0.000 A 
ATOM     11  C   UNL     1      11.450  13.659  19.168  0.00  0.00    +0.000 A 
ATOM     12  C   UNL     1      11.864  13.605  17.837  0.00  0.00    +0.000 A 
ATOM     13  C   UNL     1      11.476  12.538  17.030  0.00  0.00    +0.000 A 
ATOM     14  C   UNL     1      10.659  11.530  17.550  0.00  0.00    +0.000 A 
ATOM     15  C   UNL     1      10.215  11.594  18.877  0.00  0.00    +0.000 A 
ATOM     16  H   UNL     1       9.182  11.608  22.504  0.00  0.00    +0.000 HD
ENDBRANCH   2   5
BRANCH   3  17
ATOM     17  C   UNL     1       8.013   7.190  18.458  0.00  0.00    +0.000 A 
ATOM     18  C   UNL     1       7.516   7.255  17.155  0.00  0.00    +0.000 A 
ATOM     19  C   UNL     1       6.823   6.177  16.612  0.00  0.00    +0.000 A 
ATOM     20  C   UNL     1       6.674   5.045  17.389  0.00  0.00    +0.000 A 
ATOM     21  N   UNL     1       7.158   4.934  18.650  0.00  0.00    +0.000 NA
ATOM     22  C   UNL     1       7.832   5.997  19.147  0.00  0.00    +0.000 A 
BRANCH  20  23
ATOM     23  O   UNL     1       5.991   3.979  16.813  0.00  0.00    +0.000 OA
BRANCH  23  24
ATOM     24  C   UNL     1       4.723   3.728  17.283  0.00  0.00    +0.000 A 
ATOM     25  C   UNL     1       4.436   2.423  17.688  0.00  0.00    +0.000 A 
ATOM     26  C   UNL     1       3.153   2.106  18.139  0.00  0.00    +0.000 A 
ATOM     27  C   UNL     1       2.169   3.095  18.189  0.00  0.00    +0.000 A 
ATOM     28 CL   UNL     1       0.573   2.695  18.691  0.00  0.00    +0.000 Cl
ATOM     29  C   UNL     1       2.466   4.408  17.831  0.00  0.00    +0.000 A 
ATOM     30  C   UNL     1       3.752   4.729  17.403  0.00  0.00    +0.000 A 
ENDBRANCH  23  24
ENDBRANCH  20  23
ENDBRANCH   3  17
TORSDOF 4
ENDMDL
MODEL 4
REMARK VINA RESULT:      -8.2      2.191      2.637
REMARK  Name = 
REMARK  4 active torsions:
REMARK  status: ('A' for Active; 'I' for Inactive)
REMARK    1  A    between atoms: C_2  and  C_18
REMARK    2  A    between atoms: N_3  and  C_4
REMARK    3  A    between atoms: C_7  and  O_8
REMARK    4  A    between atoms: O_8  and  C_9
REMARK                            x       y       z     vdW  Elec       q    Type
REMARK                         _______ _______ _______ _____ _____    ______ ____
ROOT
ATOM      1  O   UNL     1       2.001   8.338  18.431  0.00  0.00    +0.000 OA
ATOM      2  C   UNL     1       2.304   7.340  19.072  0.00  0.00    +0.000 C 
ATOM      3  N   UNL     1       2.017   7.090  20.399  0.00  0.00    +0.000 N 
ATOM      4  H   UNL     1       2.571   6.361  20.840  0.00  0.00    +0.000 HD
ENDROOT
BRANCH   2   5
ATOM      5  C   UNL     1       3.179   6.288  18.405  0.00  0.00    +0.000 A 
ATOM      6  N   UNL     1       4.278   6.714  17.842  0.00  0.00    +0.000 NA
ATOM      7  N   UNL     1       5.012   5.806  17.131  0.00  0.00    +0.000 N 
ATOM      8  C   UNL     1       4.649   4.505  16.862  0.00  0.00    +0.000 A 
ATOM      9  O   UNL     1       5.293   3.789  16.105  0.00  0.00    +0.000 OA
ATOM     10  C   UNL     1       3.450   4.007  17.557  0.00  0.00    +0.000 A 
ATOM     11  C   UNL     1       3.053   2.672  17.417  0.00  0.00    +0.000 A 
ATOM     12  C   UNL     1       1.934   2.205  18.109  0.00  0.00    +0.000 A 
ATOM     13  C   UNL     1       1.226   3.063  18.946  0.00  0.00    +0.000 A 
ATOM     14  C   UNL     1       1.626   4.395  19.083  0.00  0.00    +0.000 A 
ATOM     15  C   UNL     1       2.730   4.878  18.368  0.00  0.00    +0.000 A 
ATOM     16  H   UNL     1       5.827   6.162  16.639  0.00  0.00    +0.000 HD
ENDBRANCH   2   5
BRANCH   3  17
ATOM     17  C   UNL     1       1.279   7.977  21.214  0.00  0.00    +0.000 A 
ATOM     18  C   UNL     1      -0.115   7.949  21.298  0.00  0.00    +0.000 A 
ATOM     19  C   UNL     1      -0.794   8.903  22.050  0.00  0.00    +0.000 A 
ATOM     20  C   UNL     1      -0.046   9.847  22.727  0.00  0.00    +0.000 A 
ATOM     21  N   UNL     1       1.308   9.897  22.689  0.00  0.00    +0.000 NA
ATOM     22  C   UNL     1       1.938   8.952  21.954  0.00  0.00    +0.000 A 
BRANCH  20  23
ATOM     23  O   UNL     1      -0.753  10.776  23.483  0.00  0.00    +0.000 OA
BRANCH  23  24
ATOM     24  C   UNL     1      -1.591  11.625  22.797  0.00  0.00    +0.000 A 
ATOM     25  C   UNL     1      -2.811  11.942  23.396  0.00  0.00    +0.000 A 
ATOM     26  C   UNL     1      -3.715  12.770  22.726  0.00  0.00    +0.000 A 
ATOM     27  C   UNL     1      -3.390  13.280  21.469  0.00  0.00    +0.000 A 
ATOM     28 CL   UNL     1      -4.523  14.255  20.617  0.00  0.00    +0.000 Cl
ATOM     29  C   UNL     1      -2.153  13.003  20.890  0.00  0.00    +0.000 A 
ATOM     30  C   UNL     1      -1.242  12.197  21.569  0.00  0.00    +0.000 A 
ENDBRANCH  23  24
ENDBRANCH  20  23
ENDBRANCH   3  17
TORSDOF 4
ENDMDL
MODEL 5
REMARK VINA RESULT:      -8.1      4.044      9.651
REMARK  Name = 
REMARK  4 active torsions:
REMARK  status: ('A' for Active; 'I' for Inactive)
REMARK    1  A    between atoms: C_2  and  C_18
REMARK    2  A    between atoms: N_3  and  C_4
REMARK    3  A    between atoms: C_7  and  O_8
REMARK    4  A    between atoms: O_8  and  C_9
REMARK                            x       y       z     vdW  Elec       q    Type
REMARK                         _______ _______ _______ _____ _____    ______ ____
ROOT
ATOM      1  O   UNL     1       2.114  10.447  17.852  0.00  0.00    +0.000 OA
ATOM      2  C   UNL     1       1.314  10.068  18.697  0.00  0.00    +0.000 C 
ATOM      3  N   UNL     1       1.276   8.828  19.303  0.00  0.00    +0.000 N 
ATOM      4  H   UNL     1       0.401   8.589  19.761  0.00  0.00    +0.000 HD
ENDROOT
BRANCH   2   5
ATOM      5  C   UNL     1       0.163  10.991  19.072  0.00  0.00    +0.000 A 
ATOM      6  N   UNL     1       0.389  11.847  20.032  0.00  0.00    +0.000 NA
ATOM      7  N   UNL     1      -0.668  12.596  20.467  0.00  0.00    +0.000 N 
ATOM      8  C   UNL     1      -1.978  12.460  20.062  0.00  0.00    +0.000 A 
ATOM      9  O   UNL     1      -2.895  13.075  20.592  0.00  0.00    +0.000 OA
ATOM     10  C   UNL     1      -2.217  11.549  18.930  0.00  0.00    +0.000 A 
ATOM     11  C   UNL     1      -3.501  11.413  18.389  0.00  0.00    +0.000 A 
ATOM     12  C   UNL     1      -3.707  10.571  17.295  0.00  0.00    +0.000 A 
ATOM     13  C   UNL     1      -2.634   9.882  16.736  0.00  0.00    +0.000 A 
ATOM     14  C   UNL     1      -1.354  10.021  17.279  0.00  0.00    +0.000 A 
ATOM     15  C   UNL     1      -1.145  10.840  18.397  0.00  0.00    +0.000 A 
ATOM     16  H   UNL     1      -0.499  13.208  21.260  0.00  0.00    +0.000 HD
ENDBRANCH   2   5
BRANCH   3  17
ATOM     17  C   UNL     1       2.212   7.804  19.036  0.00  0.00    +0.000 A 
ATOM     18  C   UNL     1       3.017   7.790  17.894  0.00  0.00    +0.000 A 
ATOM     19  C   UNL     1       3.860   6.712  17.641  0.00  0.00    +0.000 A 
ATOM     20  C   UNL     1       3.894   5.686  18.564  0.00  0.00    +0.000 A 
ATOM     21  N   UNL     1       3.145   5.670  19.694  0.00  0.00    +0.000 NA
ATOM     22  C   UNL     1       2.341   6.735  19.914  0.00  0.00    +0.000 A 
BRANCH  20  23
ATOM     23  O   UNL     1       4.758   4.631  18.290  0.00  0.00    +0.000 OA
BRANCH  23  24
ATOM     24  C   UNL     1       5.403   4.656  17.076  0.00  0.00    +0.000 A 
ATOM     25  C   UNL     1       6.717   5.126  17.058  0.00  0.00    +0.000 A 
ATOM     26  C   UNL     1       7.405   5.207  15.845  0.00  0.00    +0.000 A 
ATOM     27  C   UNL     1       6.779   4.812  14.662  0.00  0.00    +0.000 A 
ATOM     28 CL   UNL     1       7.604   4.962  13.160  0.00  0.00    +0.000 Cl
ATOM     29  C   UNL     1       5.484   4.298  14.684  0.00  0.00    +0.000 A 
ATOM     30  C   UNL     1       4.806   4.195  15.897  0.00  0.00    +0.000 A 
ENDBRANCH  23  24
ENDBRANCH  20  23
ENDBRANCH   3  17
TORSDOF 4
ENDMDL
MODEL 6
REMARK VINA RESULT:      -8.1      0.578      1.080
REMARK  Name = 
REMARK  4 active torsions:
REMARK  status: ('A' for Active; 'I' for Inactive)
REMARK    1  A    between atoms: C_2  and  C_18
REMARK    2  A    between atoms: N_3  and  C_4
REMARK    3  A    between atoms: C_7  and  O_8
REMARK    4  A    between atoms: O_8  and  C_9
REMARK                            x       y       z     vdW  Elec       q    Type
REMARK                         _______ _______ _______ _____ _____    ______ ____
ROOT
ATOM      1  O   UNL     1       1.878   7.913  20.261  0.00  0.00    +0.000 OA
ATOM      2  C   UNL     1       2.101   7.901  19.057  0.00  0.00    +0.000 C 
ATOM      3  N   UNL     1       1.651   8.813  18.123  0.00  0.00    +0.000 N 
ATOM      4  H   UNL     1       1.691   8.508  17.155  0.00  0.00    +0.000 HD
ENDROOT
BRANCH   2   5
ATOM      5  C   UNL     1       2.859   6.718  18.472  0.00  0.00    +0.000 A 
ATOM      6  N   UNL     1       3.853   7.000  17.672  0.00  0.00    +0.000 NA
ATOM      7  N   UNL     1       4.464   5.954  17.038  0.00  0.00    +0.000 N 
ATOM      8  C   UNL     1       4.066   4.637  17.081  0.00  0.00    +0.000 A 
ATOM      9  O   UNL     1       4.581   3.774  16.382  0.00  0.00    +0.000 OA
ATOM     10  C   UNL     1       2.995   4.312  18.038  0.00  0.00    +0.000 A 
ATOM     11  C   UNL     1       2.583   2.986  18.219  0.00  0.00    +0.000 A 
ATOM     12  C   UNL     1       1.590   2.690  19.154  0.00  0.00    +0.000 A 
ATOM     13  C   UNL     1       1.024   3.709  19.915  0.00  0.00    +0.000 A 
ATOM     14  C   UNL     1       1.439   5.031  19.732  0.00  0.00    +0.000 A 
ATOM     15  C   UNL     1       2.413   5.340  18.773  0.00  0.00    +0.000 A 
ATOM     16  H   UNL     1       5.190   6.188  16.366  0.00  0.00    +0.000 HD
ENDBRANCH   2   5
BRANCH   3  17
ATOM     17  C   UNL     1       0.869   9.942  18.454  0.00  0.00    +0.000 A 
ATOM     18  C   UNL     1       1.422  11.196  18.724  0.00  0.00    +0.000 A 
ATOM     19  C   UNL     1       0.609  12.251  19.129  0.00  0.00    +0.000 A 
ATOM     20  C   UNL     1      -0.749  12.023  19.224  0.00  0.00    +0.000 A 
ATOM     21  N   UNL     1      -1.328  10.828  18.952  0.00  0.00    +0.000 NA
ATOM     22  C   UNL     1      -0.512   9.824  18.555  0.00  0.00    +0.000 A 
BRANCH  20  23
ATOM     23  O   UNL     1      -1.536  13.101  19.616  0.00  0.00    +0.000 OA
BRANCH  23  24
ATOM     24  C   UNL     1      -2.239  12.961  20.789  0.00  0.00    +0.000 A 
ATOM     25  C   UNL     1      -1.501  12.809  21.964  0.00  0.00    +0.000 A 
ATOM     26  C   UNL     1      -2.166  12.626  23.179  0.00  0.00    +0.000 A 
ATOM     27  C   UNL     1      -3.561  12.604  23.212  0.00  0.00    +0.000 A 
ATOM     28 CL   UNL     1      -4.381  12.324  24.697  0.00  0.00    +0.000 Cl
ATOM     29  C   UNL     1      -4.300  12.802  22.048  0.00  0.00    +0.000 A 
ATOM     30  C   UNL     1      -3.637  13.008  20.840  0.00  0.00    +0.000 A 
ENDBRANCH  23  24
ENDBRANCH  20  23
ENDBRANCH   3  17
TORSDOF 4
ENDMDL
MODEL 7
REMARK VINA RESULT:      -8.1      2.052      2.537
REMARK  Name = 
REMARK  4 active torsions:
REMARK  status: ('A' for Active; 'I' for Inactive)
REMARK    1  A    between atoms: C_2  and  C_18
REMARK    2  A    between atoms: N_3  and  C_4
REMARK    3  A    between atoms: C_7  and  O_8
REMARK    4  A    between atoms: O_8  and  C_9
REMARK                            x       y       z     vdW  Elec       q    Type
REMARK                         _______ _______ _______ _____ _____    ______ ____
ROOT
ATOM      1  O   UNL     1       1.411   8.578  18.479  0.00  0.00    +0.000 OA
ATOM      2  C   UNL     1       1.862   7.764  19.274  0.00  0.00    +0.000 C 
ATOM      3  N   UNL     1       1.762   7.809  20.651  0.00  0.00    +0.000 N 
ATOM      4  H   UNL     1       2.416   7.221  21.159  0.00  0.00    +0.000 HD
ENDROOT
BRANCH   2   5
ATOM      5  C   UNL     1       2.718   6.625  18.740  0.00  0.00    +0.000 A 
ATOM      6  N   UNL     1       3.728   6.960  17.982  0.00  0.00    +0.000 NA
ATOM      7  N   UNL     1       4.432   5.948  17.390  0.00  0.00    +0.000 N 
ATOM      8  C   UNL     1       4.113   4.609  17.432  0.00  0.00    +0.000 A 
ATOM      9  O   UNL     1       4.713   3.772  16.768  0.00  0.00    +0.000 OA
ATOM     10  C   UNL     1       3.022   4.228  18.344  0.00  0.00    +0.000 A 
ATOM     11  C   UNL     1       2.685   2.880  18.523  0.00  0.00    +0.000 A 
ATOM     12  C   UNL     1       1.671   2.532  19.416  0.00  0.00    +0.000 A 
ATOM     13  C   UNL     1       1.008   3.522  20.137  0.00  0.00    +0.000 A 
ATOM     14  C   UNL     1       1.348   4.865  19.956  0.00  0.00    +0.000 A 
ATOM     15  C   UNL     1       2.344   5.225  19.039  0.00  0.00    +0.000 A 
ATOM     16  H   UNL     1       5.171   6.219  16.748  0.00  0.00    +0.000 HD
ENDBRANCH   2   5
BRANCH   3  17
ATOM     17  C   UNL     1       1.071   8.827  21.346  0.00  0.00    +0.000 A 
ATOM     18  C   UNL     1      -0.022   8.571  22.177  0.00  0.00    +0.000 A 
ATOM     19  C   UNL     1      -0.717   9.622  22.768  0.00  0.00    +0.000 A 
ATOM     20  C   UNL     1      -0.273  10.907  22.530  0.00  0.00    +0.000 A 
ATOM     21  N   UNL     1       0.795  11.198  21.748  0.00  0.00    +0.000 NA
ATOM     22  C   UNL     1       1.453  10.154  21.193  0.00  0.00    +0.000 A 
BRANCH  20  23
ATOM     23  O   UNL     1      -0.979  11.935  23.149  0.00  0.00    +0.000 OA
BRANCH  23  24
ATOM     24  C   UNL     1      -2.184  12.284  22.586  0.00  0.00    +0.000 A 
ATOM     25  C   UNL     1      -3.268  12.455  23.450  0.00  0.00    +0.000 A 
ATOM     26  C   UNL     1      -4.524  12.774  22.927  0.00  0.00    +0.000 A 
ATOM     27  C   UNL     1      -4.685  12.928  21.549  0.00  0.00    +0.000 A 
ATOM     28 CL   UNL     1      -6.241  13.266  20.899  0.00  0.00    +0.000 Cl
ATOM     29  C   UNL     1      -3.595  12.804  20.691  0.00  0.00    +0.000 A 
ATOM     30  C   UNL     1      -2.338  12.509  21.214  0.00  0.00    +0.000 A 
ENDBRANCH  23  24
ENDBRANCH  20  23
ENDBRANCH   3  17
TORSDOF 4
ENDMDL
MODEL 8
REMARK VINA RESULT:      -8.0      2.288      2.764
REMARK  Name = 
REMARK  4 active torsions:
REMARK  status: ('A' for Active; 'I' for Inactive)
REMARK    1  A    between atoms: C_2  and  C_18
REMARK    2  A    between atoms: N_3  and  C_4
REMARK    3  A    between atoms: C_7  and  O_8
REMARK    4  A    between atoms: O_8  and  C_9
REMARK                            x       y       z     vdW  Elec       q    Type
REMARK                         _______ _______ _______ _____ _____    ______ ____
ROOT
ATOM      1  O   UNL     1       2.146   8.458  18.472  0.00  0.00    +0.000 OA
ATOM      2  C   UNL     1       2.369   7.403  19.050  0.00  0.00    +0.000 C 
ATOM      3  N   UNL     1       2.021   7.081  20.347  0.00  0.00    +0.000 N 
ATOM      4  H   UNL     1       2.515   6.292  20.753  0.00  0.00    +0.000 HD
ENDROOT
BRANCH   2   5
ATOM      5  C   UNL     1       3.204   6.348  18.340  0.00  0.00    +0.000 A 
ATOM      6  N   UNL     1       4.278   6.769  17.727  0.00  0.00    +0.000 NA
ATOM      7  N   UNL     1       4.971   5.859  16.979  0.00  0.00    +0.000 N 
ATOM      8  C   UNL     1       4.588   4.561  16.723  0.00  0.00    +0.000 A 
ATOM      9  O   UNL     1       5.191   3.843  15.935  0.00  0.00    +0.000 OA
ATOM     10  C   UNL     1       3.420   4.068  17.473  0.00  0.00    +0.000 A 
ATOM     11  C   UNL     1       3.008   2.735  17.348  0.00  0.00    +0.000 A 
ATOM     12  C   UNL     1       1.920   2.274  18.090  0.00  0.00    +0.000 A 
ATOM     13  C   UNL     1       1.258   3.133  18.963  0.00  0.00    +0.000 A 
ATOM     14  C   UNL     1       1.673   4.462  19.084  0.00  0.00    +0.000 A 
ATOM     15  C   UNL     1       2.745   4.941  18.320  0.00  0.00    +0.000 A 
ATOM     16  H   UNL     1       5.765   6.211  16.451  0.00  0.00    +0.000 HD
ENDBRANCH   2   5
BRANCH   3  17
ATOM     17  C   UNL     1       1.306   7.954  21.199  0.00  0.00    +0.000 A 
ATOM     18  C   UNL     1      -0.089   8.025  21.216  0.00  0.00    +0.000 A 
ATOM     19  C   UNL     1      -0.735   8.965  22.013  0.00  0.00    +0.000 A 
ATOM     20  C   UNL     1       0.042   9.792  22.799  0.00  0.00    +0.000 A 
ATOM     21  N   UNL     1       1.396   9.743  22.827  0.00  0.00    +0.000 NA
ATOM     22  C   UNL     1       1.994   8.815  22.046  0.00  0.00    +0.000 A 
BRANCH  20  23
ATOM     23  O   UNL     1      -0.635  10.710  23.596  0.00  0.00    +0.000 OA
BRANCH  23  24
ATOM     24  C   UNL     1      -1.300  11.724  22.947  0.00  0.00    +0.000 A 
ATOM     25  C   UNL     1      -0.565  12.501  22.051  0.00  0.00    +0.000 A 
ATOM     26  C   UNL     1      -1.183  13.567  21.393  0.00  0.00    +0.000 A 
ATOM     27  C   UNL     1      -2.531  13.843  21.629  0.00  0.00    +0.000 A 
ATOM     28 CL   UNL     1      -3.280  15.188  20.863  0.00  0.00    +0.000 Cl
ATOM     29  C   UNL     1      -3.278  13.040  22.487  0.00  0.00    +0.000 A 
ATOM     30  C   UNL     1      -2.667  11.962  23.126  0.00  0.00    +0.000 A 
ENDBRANCH  23  24
ENDBRANCH  20  23
ENDBRANCH   3  17
TORSDOF 4
ENDMDL
MODEL 9
REMARK VINA RESULT:      -7.9      1.224      1.575
REMARK  Name = 
REMARK  4 active torsions:
REMARK  status: ('A' for Active; 'I' for Inactive)
REMARK    1  A    between atoms: C_2  and  C_18
REMARK    2  A    between atoms: N_3  and  C_4
REMARK    3  A    between atoms: C_7  and  O_8
REMARK    4  A    between atoms: O_8  and  C_9
REMARK                            x       y       z     vdW  Elec       q    Type
REMARK                         _______ _______ _______ _____ _____    ______ ____
ROOT
ATOM      1  O   UNL     1       2.118   7.616  19.837  0.00  0.00    +0.000 OA
ATOM      2  C   UNL     1       2.389   7.691  18.646  0.00  0.00    +0.000 C 
ATOM      3  N   UNL     1       1.909   8.623  17.746  0.00  0.00    +0.000 N 
ATOM      4  H   UNL     1       2.010   8.380  16.765  0.00  0.00    +0.000 HD
ENDROOT
BRANCH   2   5
ATOM      5  C   UNL     1       3.256   6.604  18.028  0.00  0.00    +0.000 A 
ATOM      6  N   UNL     1       4.336   6.999  17.409  0.00  0.00    +0.000 NA
ATOM      7  N   UNL     1       5.059   6.052  16.741  0.00  0.00    +0.000 N 
ATOM      8  C   UNL     1       4.702   4.733  16.570  0.00  0.00    +0.000 A 
ATOM      9  O   UNL     1       5.333   3.972  15.846  0.00  0.00    +0.000 OA
ATOM     10  C   UNL     1       3.526   4.274  17.328  0.00  0.00    +0.000 A 
ATOM     11  C   UNL     1       3.138   2.929  17.289  0.00  0.00    +0.000 A 
ATOM     12  C   UNL     1       2.042   2.501  18.039  0.00  0.00    +0.000 A 
ATOM     13  C   UNL     1       1.348   3.408  18.835  0.00  0.00    +0.000 A 
ATOM     14  C   UNL     1       1.738   4.749  18.872  0.00  0.00    +0.000 A 
ATOM     15  C   UNL     1       2.819   5.192  18.097  0.00  0.00    +0.000 A 
ATOM     16  H   UNL     1       5.859   6.380  16.206  0.00  0.00    +0.000 HD
ENDBRANCH   2   5
BRANCH   3  17
ATOM     17  C   UNL     1       1.032   9.670  18.107  0.00  0.00    +0.000 A 
ATOM     18  C   UNL     1      -0.351   9.599  17.925  0.00  0.00    +0.000 A 
ATOM     19  C   UNL     1      -1.156  10.696  18.219  0.00  0.00    +0.000 A 
ATOM     20  C   UNL     1      -0.549  11.830  18.719  0.00  0.00    +0.000 A 
ATOM     21  N   UNL     1       0.786  11.933  18.929  0.00  0.00    +0.000 NA
ATOM     22  C   UNL     1       1.541  10.849  18.640  0.00  0.00    +0.000 A 
BRANCH  20  23
ATOM     23  O   UNL     1      -1.383  12.903  19.018  0.00  0.00    +0.000 OA
BRANCH  23  24
ATOM     24  C   UNL     1      -1.424  13.309  20.331  0.00  0.00    +0.000 A 
ATOM     25  C   UNL     1      -1.091  14.637  20.602  0.00  0.00    +0.000 A 
ATOM     26  C   UNL     1      -1.081  15.092  21.923  0.00  0.00    +0.000 A 
ATOM     27  C   UNL     1      -1.411  14.219  22.960  0.00  0.00    +0.000 A 
ATOM     28 CL   UNL     1      -1.346  14.760  24.592  0.00  0.00    +0.000 Cl
ATOM     29  C   UNL     1      -1.790  12.906  22.689  0.00  0.00    +0.000 A 
ATOM     30  C   UNL     1      -1.823  12.460  21.369  0.00  0.00    +0.000 A 
ENDBRANCH  23  24
ENDBRANCH  20  23
ENDBRANCH   3  17
TORSDOF 4
ENDMDL
