MODEL 1
REMARK VINA RESULT:      -8.6      0.000      0.000
REMARK  Name = 
REMARK  3 active torsions:
REMARK  status: ('A' for Active; 'I' for Inactive)
REMARK    1  A    between atoms: C_4  and  C_5
REMARK    2  A    between atoms: C_5  and  N_6
REMARK    3  A    between atoms: C_10  and  C_11
REMARK                            x       y       z     vdW  Elec       q    Type
REMARK                         _______ _______ _______ _____ _____    ______ ____
ROOT
ATOM      1  N   UNL     1       3.726   3.895  19.329  0.00  0.00    +0.000 NA
ATOM      2  C   UNL     1       3.170   3.075  20.410  0.00  0.00    +0.000 C 
ATOM      3  C   UNL     1       1.670   3.287  20.624  0.00  0.00    +0.000 C 
ATOM      4  C   UNL     1       1.358   4.761  20.842  0.00  0.00    +0.000 C 
ATOM      5  C   UNL     1       1.837   5.568  19.633  0.00  0.00    +0.000 C 
ATOM      6  C   UNL     1       3.339   5.317  19.395  0.00  0.00    +0.000 C 
ENDROOT
BRANCH   5   7
ATOM      7  C   UNL     1       1.597   7.026  19.848  0.00  0.00    +0.000 A 
ATOM      8  N   UNL     1       1.266   7.643  20.968  0.00  0.00    +0.000 NA
ATOM      9  C   UNL     1       1.189   8.961  20.602  0.00  0.00    +0.000 A 
ATOM     10  C   UNL     1       0.880  10.108  21.346  0.00  0.00    +0.000 A 
ATOM     11  C   UNL     1       0.879  11.345  20.684  0.00  0.00    +0.000 A 
ATOM     12  C   UNL     1       1.179  11.437  19.319  0.00  0.00    +0.000 A 
ATOM     13  C   UNL     1       1.493  10.298  18.562  0.00  0.00    +0.000 A 
ATOM     14  C   UNL     1       1.482   9.093  19.254  0.00  0.00    +0.000 A 
ATOM     15  O   UNL     1       1.747   7.848  18.760  0.00  0.00    +0.000 OA
ENDBRANCH   5   7
BRANCH   1  16
ATOM     16  C   UNL     1       5.189   3.739  19.186  0.00  0.00    +0.000 C 
BRANCH  16  20
ATOM     17  O   UNL     1       7.884   6.986  16.680  0.00  0.00    +0.000 OA
ATOM     18  C   UNL     1       7.190   5.975  16.705  0.00  0.00    +0.000 A 
ATOM     19  C   UNL     1       6.555   5.445  17.944  0.00  0.00    +0.000 A 
ATOM     20  C   UNL     1       5.829   4.307  17.914  0.00  0.00    +0.000 A 
ATOM     21  N   UNL     1       5.610   3.632  16.713  0.00  0.00    +0.000 N 
ATOM     22  C   UNL     1       6.155   4.058  15.551  0.00  0.00    +0.000 A 
ATOM     23  C   UNL     1       6.129   3.602  14.259  0.00  0.00    +0.000 A 
ATOM     24  C   UNL     1       6.920   4.528  13.548  0.00  0.00    +0.000 A 
ATOM     25  N   UNL     1       7.413   5.500  14.322  0.00  0.00    +0.000 NA
ATOM     26  N   UNL     1       6.933   5.204  15.560  0.00  0.00    +0.000 N 
ATOM     27  H   UNL     1       5.039   2.790  16.762  0.00  0.00    +0.000 HD
ENDBRANCH  16  20
ENDBRANCH   1  16
TORSDOF 3
ENDMDL
MODEL 2
REMARK VINA RESULT:      -8.5      0.666      1.168
REMARK  Name = 
REMARK  3 active torsions:
REMARK  status: ('A' for Active; 'I' for Inactive)
REMARK    1  A    between atoms: C_4  and  C_5
REMARK    2  A    between atoms: C_5  and  N_6
REMARK    3  A    between atoms: C_10  and  C_11
REMARK                            x       y       z     vdW  Elec       q    Type
REMARK                         _______ _______ _______ _____ _____    ______ ____
ROOT
ATOM      1  N   UNL     1       3.684   3.999  19.374  0.00  0.00    +0.000 NA
ATOM      2  C   UNL     1       3.131   3.349  20.567  0.00  0.00    +0.000 C 
ATOM      3  C   UNL     1       1.648   3.648  20.791  0.00  0.00    +0.000 C 
ATOM      4  C   UNL     1       1.399   5.150  20.824  0.00  0.00    +0.000 C 
ATOM      5  C   UNL     1       1.870   5.774  19.509  0.00  0.00    +0.000 C 
ATOM      6  C   UNL     1       3.352   5.433  19.265  0.00  0.00    +0.000 C 
ENDROOT
BRANCH   5   7
ATOM      7  C   UNL     1       1.691   7.257  19.540  0.00  0.00    +0.000 A 
ATOM      8  N   UNL     1       1.878   8.124  18.562  0.00  0.00    +0.000 NA
ATOM      9  C   UNL     1       1.558   9.329  19.130  0.00  0.00    +0.000 A 
ATOM     10  C   UNL     1       1.557  10.626  18.601  0.00  0.00    +0.000 A 
ATOM     11  C   UNL     1       1.173  11.683  19.441  0.00  0.00    +0.000 A 
ATOM     12  C   UNL     1       0.800  11.452  20.771  0.00  0.00    +0.000 A 
ATOM     13  C   UNL     1       0.794  10.158  21.314  0.00  0.00    +0.000 A 
ATOM     14  C   UNL     1       1.181   9.141  20.450  0.00  0.00    +0.000 A 
ATOM     15  O   UNL     1       1.263   7.805  20.723  0.00  0.00    +0.000 OA
ENDBRANCH   5   7
BRANCH   1  16
ATOM     16  C   UNL     1       5.135   3.766  19.213  0.00  0.00    +0.000 C 
BRANCH  16  20
ATOM     17  O   UNL     1       7.882   6.990  16.734  0.00  0.00    +0.000 OA
ATOM     18  C   UNL     1       7.182   5.983  16.753  0.00  0.00    +0.000 A 
ATOM     19  C   UNL     1       6.527   5.460  17.985  0.00  0.00    +0.000 A 
ATOM     20  C   UNL     1       5.794   4.327  17.949  0.00  0.00    +0.000 A 
ATOM     21  N   UNL     1       5.587   3.651  16.747  0.00  0.00    +0.000 N 
ATOM     22  C   UNL     1       6.149   4.070  15.590  0.00  0.00    +0.000 A 
ATOM     23  C   UNL     1       6.137   3.611  14.300  0.00  0.00    +0.000 A 
ATOM     24  C   UNL     1       6.943   4.530  13.597  0.00  0.00    +0.000 A 
ATOM     25  N   UNL     1       7.432   5.501  14.374  0.00  0.00    +0.000 NA
ATOM     26  N   UNL     1       6.934   5.211  15.607  0.00  0.00    +0.000 N 
ATOM     27  H   UNL     1       5.010   2.812  16.790  0.00  0.00    +0.000 HD
ENDBRANCH  16  20
ENDBRANCH   1  16
TORSDOF 3
ENDMDL
MODEL 3
REMARK VINA RESULT:      -8.4      0.927      1.448
REMARK  Name = 
REMARK  3 active torsions:
REMARK  status: ('A' for Active; 'I' for Inactive)
REMARK    1  A    between atoms: C_4  and  C_5
REMARK    2  A    between atoms: C_5  and  N_6
REMARK    3  A    between atoms: C_10  and  C_11
REMARK                            x       y       z     vdW  Elec       q    Type
REMARK                         _______ _______ _______ _____ _____    ______ ____
ROOT
ATOM      1  N   UNL     1       3.721   4.207  19.378  0.00  0.00    +0.000 NA
ATOM      2  C   UNL     1       3.161   3.178  20.260  0.00  0.00    +0.000 C 
ATOM      3  C   UNL     1       1.639   3.255  20.395  0.00  0.00    +0.000 C 
ATOM      4  C   UNL     1       1.206   4.646  20.837  0.00  0.00    +0.000 C 
ATOM      5  C   UNL     1       1.698   5.680  19.822  0.00  0.00    +0.000 C 
ATOM      6  C   UNL     1       3.226   5.569  19.656  0.00  0.00    +0.000 C 
ENDROOT
BRANCH   5   7
ATOM      7  C   UNL     1       1.337   7.060  20.266  0.00  0.00    +0.000 A 
ATOM      8  N   UNL     1       1.622   8.208  19.678  0.00  0.00    +0.000 NA
ATOM      9  C   UNL     1       1.043   9.143  20.495  0.00  0.00    +0.000 A 
ATOM     10  C   UNL     1       0.996  10.541  20.408  0.00  0.00    +0.000 A 
ATOM     11  C   UNL     1       0.316  11.244  21.414  0.00  0.00    +0.000 A 
ATOM     12  C   UNL     1      -0.302  10.572  22.476  0.00  0.00    +0.000 A 
ATOM     13  C   UNL     1      -0.266   9.173  22.575  0.00  0.00    +0.000 A 
ATOM     14  C   UNL     1       0.418   8.515  21.560  0.00  0.00    +0.000 A 
ATOM     15  O   UNL     1       0.602   7.169  21.420  0.00  0.00    +0.000 OA
ENDBRANCH   5   7
BRANCH   1  16
ATOM     16  C   UNL     1       5.198   4.170  19.318  0.00  0.00    +0.000 C 
BRANCH  16  20
ATOM     17  O   UNL     1       7.911   7.201  16.574  0.00  0.00    +0.000 OA
ATOM     18  C   UNL     1       7.223   6.192  16.678  0.00  0.00    +0.000 A 
ATOM     19  C   UNL     1       6.572   5.769  17.950  0.00  0.00    +0.000 A 
ATOM     20  C   UNL     1       5.853   4.628  18.011  0.00  0.00    +0.000 A 
ATOM     21  N   UNL     1       5.657   3.848  16.872  0.00  0.00    +0.000 N 
ATOM     22  C   UNL     1       6.218   4.172  15.684  0.00  0.00    +0.000 A 
ATOM     23  C   UNL     1       6.214   3.603  14.438  0.00  0.00    +0.000 A 
ATOM     24  C   UNL     1       7.010   4.468  13.660  0.00  0.00    +0.000 A 
ATOM     25  N   UNL     1       7.485   5.508  14.351  0.00  0.00    +0.000 NA
ATOM     26  N   UNL     1       6.988   5.320  15.603  0.00  0.00    +0.000 N 
ATOM     27  H   UNL     1       5.090   3.009  16.987  0.00  0.00    +0.000 HD
ENDBRANCH  16  20
ENDBRANCH   1  16
TORSDOF 3
ENDMDL
MODEL 4
REMARK VINA RESULT:      -8.2      1.563      2.179
REMARK  Name = 
REMARK  3 active torsions:
REMARK  status: ('A' for Active; 'I' for Inactive)
REMARK    1  A    between atoms: C_4  and  C_5
REMARK    2  A    between atoms: C_5  and  N_6
REMARK    3  A    between atoms: C_10  and  C_11
REMARK                            x       y       z     vdW  Elec       q    Type
REMARK                         _______ _______ _______ _____ _____    ______ ____
ROOT
ATOM      1  N   UNL     1       3.163   3.151  19.049  0.00  0.00    +0.000 NA
ATOM      2  C   UNL     1       3.515   2.559  20.344  0.00  0.00    +0.000 C 
ATOM      3  C   UNL     1       2.477   2.824  21.436  0.00  0.00    +0.000 C 
ATOM      4  C   UNL     1       2.207   4.316  21.574  0.00  0.00    +0.000 C 
ATOM      5  C   UNL     1       1.716   4.871  20.236  0.00  0.00    +0.000 C 
ATOM      6  C   UNL     1       2.744   4.564  19.130  0.00  0.00    +0.000 C 
ENDROOT
BRANCH   5   7
ATOM      7  C   UNL     1       1.501   6.347  20.329  0.00  0.00    +0.000 A 
ATOM      8  N   UNL     1       1.096   7.049  21.371  0.00  0.00    +0.000 NA
ATOM      9  C   UNL     1       1.088   8.339  20.910  0.00  0.00    +0.000 A 
ATOM     10  C   UNL     1       0.752   9.543  21.544  0.00  0.00    +0.000 A 
ATOM     11  C   UNL     1       0.843  10.730  20.801  0.00  0.00    +0.000 A 
ATOM     12  C   UNL     1       1.260  10.717  19.464  0.00  0.00    +0.000 A 
ATOM     13  C   UNL     1       1.603   9.520  18.817  0.00  0.00    +0.000 A 
ATOM     14  C   UNL     1       1.498   8.368  19.587  0.00  0.00    +0.000 A 
ATOM     15  O   UNL     1       1.768   7.085  19.204  0.00  0.00    +0.000 OA
ENDBRANCH   5   7
BRANCH   1  16
ATOM     16  C   UNL     1       4.210   2.954  18.025  0.00  0.00    +0.000 C 
BRANCH  16  20
ATOM     17  O   UNL     1       5.504   6.665  15.086  0.00  0.00    +0.000 OA
ATOM     18  C   UNL     1       5.659   6.025  16.121  0.00  0.00    +0.000 A 
ATOM     19  C   UNL     1       4.853   4.823  16.471  0.00  0.00    +0.000 A 
ATOM     20  C   UNL     1       5.048   4.179  17.642  0.00  0.00    +0.000 A 
ATOM     21  N   UNL     1       6.046   4.591  18.524  0.00  0.00    +0.000 N 
ATOM     22  C   UNL     1       6.816   5.674  18.269  0.00  0.00    +0.000 A 
ATOM     23  C   UNL     1       7.830   6.305  18.939  0.00  0.00    +0.000 A 
ATOM     24  C   UNL     1       8.184   7.381  18.099  0.00  0.00    +0.000 A 
ATOM     25  N   UNL     1       7.456   7.434  16.980  0.00  0.00    +0.000 NA
ATOM     26  N   UNL     1       6.613   6.373  17.091  0.00  0.00    +0.000 N 
ATOM     27  H   UNL     1       6.148   4.049  19.381  0.00  0.00    +0.000 HD
ENDBRANCH  16  20
ENDBRANCH   1  16
TORSDOF 3
ENDMDL
MODEL 5
REMARK VINA RESULT:      -8.1      1.715      2.499
REMARK  Name = 
REMARK  3 active torsions:
REMARK  status: ('A' for Active; 'I' for Inactive)
REMARK    1  A    between atoms: C_4  and  C_5
REMARK    2  A    between atoms: C_5  and  N_6
REMARK    3  A    between atoms: C_10  and  C_11
REMARK                            x       y       z     vdW  Elec       q    Type
REMARK                         _______ _______ _______ _____ _____    ______ ____
ROOT
ATOM      1  N   UNL     1       3.189   3.135  19.105  0.00  0.00    +0.000 NA
ATOM      2  C   UNL     1       3.489   2.547  20.415  0.00  0.00    +0.000 C 
ATOM      3  C   UNL     1       2.414   2.824  21.466  0.00  0.00    +0.000 C 
ATOM      4  C   UNL     1       2.150   4.318  21.588  0.00  0.00    +0.000 C 
ATOM      5  C   UNL     1       1.713   4.871  20.230  0.00  0.00    +0.000 C 
ATOM      6  C   UNL     1       2.778   4.551  19.164  0.00  0.00    +0.000 C 
ENDROOT
BRANCH   5   7
ATOM      7  C   UNL     1       1.505   6.349  20.309  0.00  0.00    +0.000 A 
ATOM      8  N   UNL     1       1.789   7.264  19.401  0.00  0.00    +0.000 NA
ATOM      9  C   UNL     1       1.384   8.436  19.983  0.00  0.00    +0.000 A 
ATOM     10  C   UNL     1       1.420   9.757  19.519  0.00  0.00    +0.000 A 
ATOM     11  C   UNL     1       0.923  10.767  20.356  0.00  0.00    +0.000 A 
ATOM     12  C   UNL     1       0.403  10.468  21.622  0.00  0.00    +0.000 A 
ATOM     13  C   UNL     1       0.357   9.150  22.099  0.00  0.00    +0.000 A 
ATOM     14  C   UNL     1       0.860   8.180  21.240  0.00  0.00    +0.000 A 
ATOM     15  O   UNL     1       0.933   6.834  21.459  0.00  0.00    +0.000 OA
ENDBRANCH   5   7
BRANCH   1  16
ATOM     16  C   UNL     1       4.272   2.927  18.121  0.00  0.00    +0.000 C 
BRANCH  16  20
ATOM     17  O   UNL     1       5.431   6.619  15.103  0.00  0.00    +0.000 OA
ATOM     18  C   UNL     1       5.622   5.996  16.142  0.00  0.00    +0.000 A 
ATOM     19  C   UNL     1       4.845   4.785  16.527  0.00  0.00    +0.000 A 
ATOM     20  C   UNL     1       5.079   4.160  17.702  0.00  0.00    +0.000 A 
ATOM     21  N   UNL     1       6.090   4.602  18.555  0.00  0.00    +0.000 N 
ATOM     22  C   UNL     1       6.835   5.694  18.267  0.00  0.00    +0.000 A 
ATOM     23  C   UNL     1       7.853   6.352  18.904  0.00  0.00    +0.000 A 
ATOM     24  C   UNL     1       8.168   7.422  18.042  0.00  0.00    +0.000 A 
ATOM     25  N   UNL     1       7.414   7.448  16.939  0.00  0.00    +0.000 NA
ATOM     26  N   UNL     1       6.592   6.373  17.084  0.00  0.00    +0.000 N 
ATOM     27  H   UNL     1       6.222   4.074  19.415  0.00  0.00    +0.000 HD
ENDBRANCH  16  20
ENDBRANCH   1  16
TORSDOF 3
ENDMDL
MODEL 6
REMARK VINA RESULT:      -8.1      1.873      8.353
REMARK  Name = 
REMARK  3 active torsions:
REMARK  status: ('A' for Active; 'I' for Inactive)
REMARK    1  A    between atoms: C_4  and  C_5
REMARK    2  A    between atoms: C_5  and  N_6
REMARK    3  A    between atoms: C_10  and  C_11
REMARK                            x       y       z     vdW  Elec       q    Type
REMARK                         _______ _______ _______ _____ _____    ______ ____
ROOT
ATOM      1  N   UNL     1       4.206   6.124  18.666  0.00  0.00    +0.000 NA
ATOM      2  C   UNL     1       4.909   5.299  19.654  0.00  0.00    +0.000 C 
ATOM      3  C   UNL     1       6.419   5.226  19.420  0.00  0.00    +0.000 C 
ATOM      4  C   UNL     1       6.725   4.760  18.003  0.00  0.00    +0.000 C 
ATOM      5  C   UNL     1       6.083   5.721  17.001  0.00  0.00    +0.000 C 
ATOM      6  C   UNL     1       4.569   5.825  17.267  0.00  0.00    +0.000 C 
ENDROOT
BRANCH   5   7
ATOM      7  C   UNL     1       6.319   5.251  15.602  0.00  0.00    +0.000 A 
ATOM      8  N   UNL     1       7.319   5.556  14.795  0.00  0.00    +0.000 NA
ATOM      9  C   UNL     1       7.045   4.845  13.657  0.00  0.00    +0.000 A 
ATOM     10  C   UNL     1       7.735   4.750  12.441  0.00  0.00    +0.000 A 
ATOM     11  C   UNL     1       7.201   3.925  11.439  0.00  0.00    +0.000 A 
ATOM     12  C   UNL     1       6.012   3.214  11.645  0.00  0.00    +0.000 A 
ATOM     13  C   UNL     1       5.312   3.297  12.858  0.00  0.00    +0.000 A 
ATOM     14  C   UNL     1       5.874   4.124  13.822  0.00  0.00    +0.000 A 
ATOM     15  O   UNL     1       5.398   4.380  15.076  0.00  0.00    +0.000 OA
ENDBRANCH   5   7
BRANCH   1  16
ATOM     16  C   UNL     1       2.740   6.122  18.856  0.00  0.00    +0.000 C 
BRANCH  16  20
ATOM     17  O   UNL     1       1.065  10.687  18.191  0.00  0.00    +0.000 OA
ATOM     18  C   UNL     1       1.275   9.728  18.928  0.00  0.00    +0.000 A 
ATOM     19  C   UNL     1       1.922   8.467  18.470  0.00  0.00    +0.000 A 
ATOM     20  C   UNL     1       2.096   7.433  19.320  0.00  0.00    +0.000 A 
ATOM     21  N   UNL     1       1.725   7.542  20.660  0.00  0.00    +0.000 N 
ATOM     22  C   UNL     1       1.133   8.658  21.144  0.00  0.00    +0.000 A 
ATOM     23  C   UNL     1       0.659   9.032  22.373  0.00  0.00    +0.000 A 
ATOM     24  C   UNL     1       0.162  10.336  22.171  0.00  0.00    +0.000 A 
ATOM     25  N   UNL     1       0.308  10.764  20.914  0.00  0.00    +0.000 NA
ATOM     26  N   UNL     1       0.912   9.721  20.284  0.00  0.00    +0.000 N 
ATOM     27  H   UNL     1       1.901   6.729  21.248  0.00  0.00    +0.000 HD
ENDBRANCH  16  20
ENDBRANCH   1  16
TORSDOF 3
ENDMDL
MODEL 7
REMARK VINA RESULT:      -8.0      1.809      8.230
REMARK  Name = 
REMARK  3 active torsions:
REMARK  status: ('A' for Active; 'I' for Inactive)
REMARK    1  A    between atoms: C_4  and  C_5
REMARK    2  A    between atoms: C_5  and  N_6
REMARK    3  A    between atoms: C_10  and  C_11
REMARK                            x       y       z     vdW  Elec       q    Type
REMARK                         _______ _______ _______ _____ _____    ______ ____
ROOT
ATOM      1  N   UNL     1       4.975   5.893  18.903  0.00  0.00    +0.000 NA
ATOM      2  C   UNL     1       5.996   5.273  19.754  0.00  0.00    +0.000 C 
ATOM      3  C   UNL     1       7.411   5.379  19.183  0.00  0.00    +0.000 C 
ATOM      4  C   UNL     1       7.466   4.818  17.769  0.00  0.00    +0.000 C 
ATOM      5  C   UNL     1       6.481   5.579  16.879  0.00  0.00    +0.000 C 
ATOM      6  C   UNL     1       5.064   5.506  17.481  0.00  0.00    +0.000 C 
ENDROOT
BRANCH   5   7
ATOM      7  C   UNL     1       6.473   5.006  15.499  0.00  0.00    +0.000 A 
ATOM      8  N   UNL     1       5.677   4.076  15.005  0.00  0.00    +0.000 NA
ATOM      9  C   UNL     1       6.095   3.948  13.707  0.00  0.00    +0.000 A 
ATOM     10  C   UNL     1       5.643   3.120  12.670  0.00  0.00    +0.000 A 
ATOM     11  C   UNL     1       6.280   3.214  11.423  0.00  0.00    +0.000 A 
ATOM     12  C   UNL     1       7.337   4.110  11.215  0.00  0.00    +0.000 A 
ATOM     13  C   UNL     1       7.799   4.946  12.243  0.00  0.00    +0.000 A 
ATOM     14  C   UNL     1       7.142   4.821  13.461  0.00  0.00    +0.000 A 
ATOM     15  O   UNL     1       7.392   5.510  14.614  0.00  0.00    +0.000 OA
ENDBRANCH   5   7
BRANCH   1  16
ATOM     16  C   UNL     1       3.605   5.714  19.427  0.00  0.00    +0.000 C 
BRANCH  16  20
ATOM     17  O   UNL     1       1.530   9.731  17.517  0.00  0.00    +0.000 OA
ATOM     18  C   UNL     1       1.700   8.971  18.465  0.00  0.00    +0.000 A 
ATOM     19  C   UNL     1       2.590   7.777  18.410  0.00  0.00    +0.000 A 
ATOM     20  C   UNL     1       2.711   6.958  19.477  0.00  0.00    +0.000 A 
ATOM     21  N   UNL     1       2.049   7.241  20.672  0.00  0.00    +0.000 N 
ATOM     22  C   UNL     1       1.226   8.308  20.791  0.00  0.00    +0.000 A 
ATOM     23  C   UNL     1       0.453   8.810  21.804  0.00  0.00    +0.000 A 
ATOM     24  C   UNL     1      -0.154   9.953  21.244  0.00  0.00    +0.000 A 
ATOM     25  N   UNL     1       0.202  10.166  19.974  0.00  0.00    +0.000 NA
ATOM     26  N   UNL     1       1.059   9.145  19.701  0.00  0.00    +0.000 N 
ATOM     27  H   UNL     1       2.198   6.589  21.440  0.00  0.00    +0.000 HD
ENDBRANCH  16  20
ENDBRANCH   1  16
TORSDOF 3
ENDMDL
MODEL 8
REMARK VINA RESULT:      -7.9      1.977      8.339
REMARK  Name = 
REMARK  3 active torsions:
REMARK  status: ('A' for Active; 'I' for Inactive)
REMARK    1  A    between atoms: C_4  and  C_5
REMARK    2  A    between atoms: C_5  and  N_6
REMARK    3  A    between atoms: C_10  and  C_11
REMARK                            x       y       z     vdW  Elec       q    Type
REMARK                         _______ _______ _______ _____ _____    ______ ____
ROOT
ATOM      1  N   UNL     1       3.705   6.429  18.622  0.00  0.00    +0.000 NA
ATOM      2  C   UNL     1       3.990   5.378  19.604  0.00  0.00    +0.000 C 
ATOM      3  C   UNL     1       5.456   4.942  19.621  0.00  0.00    +0.000 C 
ATOM      4  C   UNL     1       5.913   4.527  18.229  0.00  0.00    +0.000 C 
ATOM      5  C   UNL     1       5.722   5.695  17.260  0.00  0.00    +0.000 C 
ATOM      6  C   UNL     1       4.253   6.159  17.278  0.00  0.00    +0.000 C 
ENDROOT
BRANCH   5   7
ATOM      7  C   UNL     1       6.108   5.292  15.874  0.00  0.00    +0.000 A 
ATOM      8  N   UNL     1       7.147   5.694  15.166  0.00  0.00    +0.000 NA
ATOM      9  C   UNL     1       7.023   5.006  13.988  0.00  0.00    +0.000 A 
ATOM     10  C   UNL     1       7.818   5.002  12.834  0.00  0.00    +0.000 A 
ATOM     11  C   UNL     1       7.430   4.178  11.766  0.00  0.00    +0.000 A 
ATOM     12  C   UNL     1       6.283   3.379  11.848  0.00  0.00    +0.000 A 
ATOM     13  C   UNL     1       5.479   3.370  12.997  0.00  0.00    +0.000 A 
ATOM     14  C   UNL     1       5.896   4.200  14.030  0.00  0.00    +0.000 A 
ATOM     15  O   UNL     1       5.300   4.378  15.246  0.00  0.00    +0.000 OA
ENDBRANCH   5   7
BRANCH   1  16
ATOM     16  C   UNL     1       2.272   6.785  18.560  0.00  0.00    +0.000 C 
BRANCH  16  20
ATOM     17  O   UNL     1       0.989   9.062  22.714  0.00  0.00    +0.000 OA
ATOM     18  C   UNL     1       1.177   9.088  21.502  0.00  0.00    +0.000 A 
ATOM     19  C   UNL     1       1.595   7.897  20.710  0.00  0.00    +0.000 A 
ATOM     20  C   UNL     1       1.819   7.996  19.382  0.00  0.00    +0.000 A 
ATOM     21  N   UNL     1       1.611   9.202  18.712  0.00  0.00    +0.000 N 
ATOM     22  C   UNL     1       1.230  10.322  19.368  0.00  0.00    +0.000 A 
ATOM     23  C   UNL     1       0.974  11.612  18.987  0.00  0.00    +0.000 A 
ATOM     24  C   UNL     1       0.625  12.265  20.187  0.00  0.00    +0.000 A 
ATOM     25  N   UNL     1       0.653  11.458  21.251  0.00  0.00    +0.000 NA
ATOM     26  N   UNL     1       1.026  10.255  20.736  0.00  0.00    +0.000 N 
ATOM     27  H   UNL     1       1.784   9.199  17.708  0.00  0.00    +0.000 HD
ENDBRANCH  16  20
ENDBRANCH   1  16
TORSDOF 3
ENDMDL
MODEL 9
REMARK VINA RESULT:      -7.9      3.747      8.737
REMARK  Name = 
REMARK  3 active torsions:
REMARK  status: ('A' for Active; 'I' for Inactive)
REMARK    1  A    between atoms: C_4  and  C_5
REMARK    2  A    between atoms: C_5  and  N_6
REMARK    3  A    between atoms: C_10  and  C_11
REMARK                            x       y       z     vdW  Elec       q    Type
REMARK                         _______ _______ _______ _____ _____    ______ ____
ROOT
ATOM      1  N   UNL     1       0.784  10.668  20.441  0.00  0.00    +0.000 NA
ATOM      2  C   UNL     1      -0.269  10.510  21.449  0.00  0.00    +0.000 C 
ATOM      3  C   UNL     1       0.032   9.417  22.477  0.00  0.00    +0.000 C 
ATOM      4  C   UNL     1       0.330   8.093  21.787  0.00  0.00    +0.000 C 
ATOM      5  C   UNL     1       1.519   8.268  20.841  0.00  0.00    +0.000 C 
ATOM      6  C   UNL     1       1.230   9.399  19.835  0.00  0.00    +0.000 C 
ENDROOT
BRANCH   5   7
ATOM      7  C   UNL     1       1.794   6.996  20.106  0.00  0.00    +0.000 A 
ATOM      8  N   UNL     1       2.432   6.835  18.961  0.00  0.00    +0.000 NA
ATOM      9  C   UNL     1       2.407   5.480  18.763  0.00  0.00    +0.000 A 
ATOM     10  C   UNL     1       2.919   4.690  17.726  0.00  0.00    +0.000 A 
ATOM     11  C   UNL     1       2.736   3.301  17.799  0.00  0.00    +0.000 A 
ATOM     12  C   UNL     1       2.060   2.716  18.878  0.00  0.00    +0.000 A 
ATOM     13  C   UNL     1       1.544   3.494  19.925  0.00  0.00    +0.000 A 
ATOM     14  C   UNL     1       1.746   4.864  19.814  0.00  0.00    +0.000 A 
ATOM     15  O   UNL     1       1.348   5.836  20.686  0.00  0.00    +0.000 OA
ENDBRANCH   5   7
BRANCH   1  16
ATOM     16  C   UNL     1       0.445  11.671  19.410  0.00  0.00    +0.000 C 
BRANCH  16  20
ATOM     17  O   UNL     1      -4.417  12.332  19.338  0.00  0.00    +0.000 OA
ATOM     18  C   UNL     1      -3.391  11.929  18.800  0.00  0.00    +0.000 A 
ATOM     19  C   UNL     1      -2.046  12.006  19.435  0.00  0.00    +0.000 A 
ATOM     20  C   UNL     1      -0.947  11.577  18.778  0.00  0.00    +0.000 A 
ATOM     21  N   UNL     1      -1.054  11.000  17.512  0.00  0.00    +0.000 N 
ATOM     22  C   UNL     1      -2.244  10.897  16.877  0.00  0.00    +0.000 A 
ATOM     23  C   UNL     1      -2.639  10.408  15.660  0.00  0.00    +0.000 A 
ATOM     24  C   UNL     1      -4.033  10.618  15.638  0.00  0.00    +0.000 A 
ATOM     25  N   UNL     1      -4.495  11.194  16.752  0.00  0.00    +0.000 NA
ATOM     26  N   UNL     1      -3.382  11.362  17.516  0.00  0.00    +0.000 N 
ATOM     27  H   UNL     1      -0.187  10.683  17.082  0.00  0.00    +0.000 HD
ENDBRANCH  16  20
ENDBRANCH   1  16
TORSDOF 3
ENDMDL
