MODEL 1
REMARK VINA RESULT:      -7.8      0.000      0.000
REMARK  Name = 
REMARK  3 active torsions:
REMARK  status: ('A' for Active; 'I' for Inactive)
REMARK    1  A    between atoms: C_4  and  N_5
REMARK    2  A    between atoms: C_9  and  C_10
REMARK    3  A    between atoms: N_14  and  C_15
REMARK                            x       y       z     vdW  Elec       q    Type
REMARK                         _______ _______ _______ _____ _____    ______ ____
ROOT
ATOM      1  N   UNL     1       5.014   4.657  17.829  0.00  0.00    +0.000 N 
ATOM      2  C   UNL     1       4.837   6.081  18.149  0.00  0.00    +0.000 C 
ATOM      3  C   UNL     1       4.323   6.813  16.916  0.00  0.00    +0.000 C 
ATOM      4  C   UNL     1       5.271   6.616  15.736  0.00  0.00    +0.000 C 
ATOM      5  C   UNL     1       5.550   5.123  15.475  0.00  0.00    +0.000 C 
ATOM      6  C   UNL     1       6.005   4.410  16.769  0.00  0.00    +0.000 C 
ENDROOT
BRANCH   1  10
ATOM      7  O   UNL     1       5.508   1.480  21.368  0.00  0.00    +0.000 OA
ATOM      8  C   UNL     1       4.773   2.044  20.563  0.00  0.00    +0.000 A 
ATOM      9  C   UNL     1       5.319   2.997  19.569  0.00  0.00    +0.000 A 
ATOM     10  C   UNL     1       4.541   3.674  18.706  0.00  0.00    +0.000 A 
ATOM     11  C   UNL     1       3.072   3.381  18.717  0.00  0.00    +0.000 A 
ATOM     12  N   UNL     1       2.279   4.002  17.803  0.00  0.00    +0.000 NA
ATOM     13  C   UNL     1       0.956   3.743  17.854  0.00  0.00    +0.000 A 
ATOM     14  C   UNL     1       0.372   2.884  18.771  0.00  0.00    +0.000 A 
ATOM     15  C   UNL     1       1.196   2.234  19.687  0.00  0.00    +0.000 A 
ATOM     16  C   UNL     1       2.564   2.482  19.655  0.00  0.00    +0.000 A 
ATOM     17  N   UNL     1       3.422   1.840  20.552  0.00  0.00    +0.000 N 
ATOM     18  H   UNL     1       3.064   1.193  21.242  0.00  0.00    +0.000 HD
ENDBRANCH   1  10
BRANCH   5  19
ATOM     19  C   UNL     1       6.568   4.985  14.388  0.00  0.00    +0.000 A 
ATOM     20  N   UNL     1       7.723   5.623  14.324  0.00  0.00    +0.000 NA
ATOM     21  N   UNL     1       8.344   5.284  13.145  0.00  0.00    +0.000 NA
ATOM     22  C   UNL     1       7.555   4.452  12.506  0.00  0.00    +0.000 A 
ATOM     23  N   UNL     1       6.434   4.230  13.247  0.00  0.00    +0.000 N 
BRANCH  23  24
ATOM     24  C   UNL     1       5.328   3.369  12.890  0.00  0.00    +0.000 C 
ATOM     25  C   UNL     1       5.435   2.380  11.740  0.00  0.00    +0.000 C 
ATOM     26  C   UNL     1       4.532   3.555  11.610  0.00  0.00    +0.000 C 
ENDBRANCH  23  24
ENDBRANCH   5  19
TORSDOF 3
ENDMDL
MODEL 2
REMARK VINA RESULT:      -7.3     10.910     13.095
REMARK  Name = 
REMARK  3 active torsions:
REMARK  status: ('A' for Active; 'I' for Inactive)
REMARK    1  A    between atoms: C_4  and  N_5
REMARK    2  A    between atoms: C_9  and  C_10
REMARK    3  A    between atoms: N_14  and  C_15
REMARK                            x       y       z     vdW  Elec       q    Type
REMARK                         _______ _______ _______ _____ _____    ______ ____
ROOT
ATOM      1  N   UNL     1      -3.540  13.109  22.791  0.00  0.00    +0.000 N 
ATOM      2  C   UNL     1      -2.893  14.416  22.976  0.00  0.00    +0.000 C 
ATOM      3  C   UNL     1      -1.763  14.565  21.965  0.00  0.00    +0.000 C 
ATOM      4  C   UNL     1      -0.764  13.419  22.099  0.00  0.00    +0.000 C 
ATOM      5  C   UNL     1      -1.460  12.046  22.024  0.00  0.00    +0.000 C 
ATOM      6  C   UNL     1      -2.639  11.967  23.021  0.00  0.00    +0.000 C 
ENDROOT
BRANCH   1  10
ATOM      7  O   UNL     1      -7.901  13.408  24.730  0.00  0.00    +0.000 OA
ATOM      8  C   UNL     1      -7.208  13.194  23.740  0.00  0.00    +0.000 A 
ATOM      9  C   UNL     1      -5.729  13.191  23.829  0.00  0.00    +0.000 A 
ATOM     10  C   UNL     1      -4.937  13.012  22.757  0.00  0.00    +0.000 A 
ATOM     11  C   UNL     1      -5.596  12.734  21.442  0.00  0.00    +0.000 A 
ATOM     12  N   UNL     1      -4.811  12.479  20.361  0.00  0.00    +0.000 NA
ATOM     13  C   UNL     1      -5.430  12.261  19.183  0.00  0.00    +0.000 A 
ATOM     14  C   UNL     1      -6.806  12.275  19.020  0.00  0.00    +0.000 A 
ATOM     15  C   UNL     1      -7.603  12.511  20.137  0.00  0.00    +0.000 A 
ATOM     16  C   UNL     1      -6.989  12.738  21.365  0.00  0.00    +0.000 A 
ATOM     17  N   UNL     1      -7.758  12.969  22.509  0.00  0.00    +0.000 N 
ATOM     18  H   UNL     1      -8.768  12.982  22.464  0.00  0.00    +0.000 HD
ENDBRANCH   1  10
BRANCH   5  19
ATOM     19  C   UNL     1      -0.460  10.962  22.274  0.00  0.00    +0.000 A 
ATOM     20  N   UNL     1      -0.221  10.383  23.438  0.00  0.00    +0.000 NA
ATOM     21  N   UNL     1       0.810   9.488  23.276  0.00  0.00    +0.000 NA
ATOM     22  C   UNL     1       1.188   9.541  22.020  0.00  0.00    +0.000 A 
ATOM     23  N   UNL     1       0.419  10.445  21.352  0.00  0.00    +0.000 N 
BRANCH  23  24
ATOM     24  C   UNL     1       0.519  10.785  19.950  0.00  0.00    +0.000 C 
ATOM     25  C   UNL     1      -0.445  10.207  18.925  0.00  0.00    +0.000 C 
ATOM     26  C   UNL     1       0.983   9.787  18.902  0.00  0.00    +0.000 C 
ENDBRANCH  23  24
ENDBRANCH   5  19
TORSDOF 3
ENDMDL
MODEL 3
REMARK VINA RESULT:      -7.3      5.201      7.622
REMARK  Name = 
REMARK  3 active torsions:
REMARK  status: ('A' for Active; 'I' for Inactive)
REMARK    1  A    between atoms: C_4  and  N_5
REMARK    2  A    between atoms: C_9  and  C_10
REMARK    3  A    between atoms: N_14  and  C_15
REMARK                            x       y       z     vdW  Elec       q    Type
REMARK                         _______ _______ _______ _____ _____    ______ ____
ROOT
ATOM      1  N   UNL     1       2.383   7.673  18.931  0.00  0.00    +0.000 N 
ATOM      2  C   UNL     1       2.389   7.500  20.391  0.00  0.00    +0.000 C 
ATOM      3  C   UNL     1       0.971   7.667  20.922  0.00  0.00    +0.000 C 
ATOM      4  C   UNL     1       0.398   9.023  20.518  0.00  0.00    +0.000 C 
ATOM      5  C   UNL     1       0.501   9.253  18.998  0.00  0.00    +0.000 C 
ATOM      6  C   UNL     1       1.943   9.008  18.496  0.00  0.00    +0.000 C 
ENDROOT
BRANCH   1  10
ATOM      7  O   UNL     1       5.845   6.440  15.871  0.00  0.00    +0.000 OA
ATOM      8  C   UNL     1       4.878   6.104  16.548  0.00  0.00    +0.000 A 
ATOM      9  C   UNL     1       4.101   7.103  17.317  0.00  0.00    +0.000 A 
ATOM     10  C   UNL     1       3.069   6.767  18.112  0.00  0.00    +0.000 A 
ATOM     11  C   UNL     1       2.659   5.327  18.149  0.00  0.00    +0.000 A 
ATOM     12  N   UNL     1       1.574   4.979  18.890  0.00  0.00    +0.000 NA
ATOM     13  C   UNL     1       1.245   3.671  18.930  0.00  0.00    +0.000 A 
ATOM     14  C   UNL     1       1.941   2.679  18.258  0.00  0.00    +0.000 A 
ATOM     15  C   UNL     1       3.035   3.049  17.482  0.00  0.00    +0.000 A 
ATOM     16  C   UNL     1       3.396   4.391  17.422  0.00  0.00    +0.000 A 
ATOM     17  N   UNL     1       4.483   4.799  16.645  0.00  0.00    +0.000 N 
ATOM     18  H   UNL     1       5.029   4.129  16.121  0.00  0.00    +0.000 HD
ENDBRANCH   1  10
BRANCH   5  19
ATOM     19  C   UNL     1       0.035  10.635  18.666  0.00  0.00    +0.000 A 
ATOM     20  N   UNL     1       0.710  11.751  18.878  0.00  0.00    +0.000 NA
ATOM     21  N   UNL     1      -0.078  12.815  18.506  0.00  0.00    +0.000 NA
ATOM     22  C   UNL     1      -1.221  12.332  18.081  0.00  0.00    +0.000 A 
ATOM     23  N   UNL     1      -1.196  10.972  18.156  0.00  0.00    +0.000 N 
BRANCH  23  24
ATOM     24  C   UNL     1      -2.262  10.073  17.774  0.00  0.00    +0.000 C 
ATOM     25  C   UNL     1      -2.617   9.843  16.313  0.00  0.00    +0.000 C 
ATOM     26  C   UNL     1      -3.575  10.568  17.191  0.00  0.00    +0.000 C 
ENDBRANCH  23  24
ENDBRANCH   5  19
TORSDOF 3
ENDMDL
MODEL 4
REMARK VINA RESULT:      -7.3      4.856      7.793
REMARK  Name = 
REMARK  3 active torsions:
REMARK  status: ('A' for Active; 'I' for Inactive)
REMARK    1  A    between atoms: C_4  and  N_5
REMARK    2  A    between atoms: C_9  and  C_10
REMARK    3  A    between atoms: N_14  and  C_15
REMARK                            x       y       z     vdW  Elec       q    Type
REMARK                         _______ _______ _______ _____ _____    ______ ____
ROOT
ATOM      1  N   UNL     1       2.507   6.881  19.079  0.00  0.00    +0.000 N 
ATOM      2  C   UNL     1       1.908   7.347  17.819  0.00  0.00    +0.000 C 
ATOM      3  C   UNL     1       1.968   8.868  17.768  0.00  0.00    +0.000 C 
ATOM      4  C   UNL     1       1.271   9.478  18.982  0.00  0.00    +0.000 C 
ATOM      5  C   UNL     1       1.819   8.901  20.301  0.00  0.00    +0.000 C 
ATOM      6  C   UNL     1       1.799   7.354  20.279  0.00  0.00    +0.000 C 
ENDROOT
BRANCH   1  10
ATOM      7  O   UNL     1       6.897   5.012  19.387  0.00  0.00    +0.000 OA
ATOM      8  C   UNL     1       5.690   4.832  19.263  0.00  0.00    +0.000 A 
ATOM      9  C   UNL     1       4.754   5.976  19.157  0.00  0.00    +0.000 A 
ATOM     10  C   UNL     1       3.421   5.820  19.073  0.00  0.00    +0.000 A 
ATOM     11  C   UNL     1       2.886   4.423  19.012  0.00  0.00    +0.000 A 
ATOM     12  N   UNL     1       1.547   4.246  18.854  0.00  0.00    +0.000 NA
ATOM     13  C   UNL     1       1.089   2.977  18.832  0.00  0.00    +0.000 A 
ATOM     14  C   UNL     1       1.900   1.861  18.950  0.00  0.00    +0.000 A 
ATOM     15  C   UNL     1       3.273   2.052  19.086  0.00  0.00    +0.000 A 
ATOM     16  C   UNL     1       3.773   3.350  19.111  0.00  0.00    +0.000 A 
ATOM     17  N   UNL     1       5.146   3.578  19.236  0.00  0.00    +0.000 N 
ATOM     18  H   UNL     1       5.796   2.809  19.317  0.00  0.00    +0.000 HD
ENDBRANCH   1  10
BRANCH   5  19
ATOM     19  C   UNL     1       1.032   9.441  21.452  0.00  0.00    +0.000 A 
ATOM     20  N   UNL     1       1.208   9.129  22.724  0.00  0.00    +0.000 NA
ATOM     21  N   UNL     1       0.249   9.775  23.468  0.00  0.00    +0.000 NA
ATOM     22  C   UNL     1      -0.500  10.463  22.638  0.00  0.00    +0.000 A 
ATOM     23  N   UNL     1      -0.045  10.290  21.366  0.00  0.00    +0.000 N 
BRANCH  23  24
ATOM     24  C   UNL     1      -0.597  10.888  20.170  0.00  0.00    +0.000 C 
ATOM     25  C   UNL     1      -0.388  12.360  19.852  0.00  0.00    +0.000 C 
ATOM     26  C   UNL     1      -1.750  11.877  20.212  0.00  0.00    +0.000 C 
ENDBRANCH  23  24
ENDBRANCH   5  19
TORSDOF 3
ENDMDL
MODEL 5
REMARK VINA RESULT:      -7.1     11.659     15.041
REMARK  Name = 
REMARK  3 active torsions:
REMARK  status: ('A' for Active; 'I' for Inactive)
REMARK    1  A    between atoms: C_4  and  N_5
REMARK    2  A    between atoms: C_9  and  C_10
REMARK    3  A    between atoms: N_14  and  C_15
REMARK                            x       y       z     vdW  Elec       q    Type
REMARK                         _______ _______ _______ _____ _____    ______ ____
ROOT
ATOM      1  N   UNL     1      -5.688  11.932  18.393  0.00  0.00    +0.000 N 
ATOM      2  C   UNL     1      -6.916  12.203  17.630  0.00  0.00    +0.000 C 
ATOM      3  C   UNL     1      -7.586  13.453  18.184  0.00  0.00    +0.000 C 
ATOM      4  C   UNL     1      -7.874  13.296  19.676  0.00  0.00    +0.000 C 
ATOM      5  C   UNL     1      -6.609  12.896  20.459  0.00  0.00    +0.000 C 
ATOM      6  C   UNL     1      -5.928  11.663  19.820  0.00  0.00    +0.000 C 
ENDROOT
BRANCH   1  10
ATOM      7  O   UNL     1      -3.160  10.477  14.604  0.00  0.00    +0.000 OA
ATOM      8  C   UNL     1      -3.170  10.897  15.757  0.00  0.00    +0.000 A 
ATOM      9  C   UNL     1      -4.444  11.112  16.481  0.00  0.00    +0.000 A 
ATOM     10  C   UNL     1      -4.498  11.620  17.725  0.00  0.00    +0.000 A 
ATOM     11  C   UNL     1      -3.201  11.906  18.416  0.00  0.00    +0.000 A 
ATOM     12  N   UNL     1      -3.233  12.353  19.701  0.00  0.00    +0.000 NA
ATOM     13  C   UNL     1      -2.052  12.631  20.289  0.00  0.00    +0.000 A 
ATOM     14  C   UNL     1      -0.823  12.480  19.666  0.00  0.00    +0.000 A 
ATOM     15  C   UNL     1      -0.799  11.998  18.360  0.00  0.00    +0.000 A 
ATOM     16  C   UNL     1      -2.004  11.702  17.729  0.00  0.00    +0.000 A 
ATOM     17  N   UNL     1      -2.016  11.208  16.422  0.00  0.00    +0.000 N 
ATOM     18  H   UNL     1      -1.155  11.064  15.911  0.00  0.00    +0.000 HD
ENDBRANCH   1  10
BRANCH   5  19
ATOM     19  C   UNL     1      -6.963  12.644  21.890  0.00  0.00    +0.000 A 
ATOM     20  N   UNL     1      -7.394  11.499  22.391  0.00  0.00    +0.000 NA
ATOM     21  N   UNL     1      -7.676  11.685  23.724  0.00  0.00    +0.000 NA
ATOM     22  C   UNL     1      -7.422  12.939  24.012  0.00  0.00    +0.000 A 
ATOM     23  N   UNL     1      -6.967  13.578  22.898  0.00  0.00    +0.000 N 
BRANCH  23  24
ATOM     24  C   UNL     1      -6.572  14.967  22.808  0.00  0.00    +0.000 C 
ATOM     25  C   UNL     1      -5.120  15.388  22.976  0.00  0.00    +0.000 C 
ATOM     26  C   UNL     1      -6.114  15.763  24.019  0.00  0.00    +0.000 C 
ENDBRANCH  23  24
ENDBRANCH   5  19
TORSDOF 3
ENDMDL
MODEL 6
REMARK VINA RESULT:      -6.9      4.731      8.023
REMARK  Name = 
REMARK  3 active torsions:
REMARK  status: ('A' for Active; 'I' for Inactive)
REMARK    1  A    between atoms: C_4  and  N_5
REMARK    2  A    between atoms: C_9  and  C_10
REMARK    3  A    between atoms: N_14  and  C_15
REMARK                            x       y       z     vdW  Elec       q    Type
REMARK                         _______ _______ _______ _____ _____    ______ ____
ROOT
ATOM      1  N   UNL     1       2.572   6.666  19.152  0.00  0.00    +0.000 N 
ATOM      2  C   UNL     1       1.989   7.060  17.860  0.00  0.00    +0.000 C 
ATOM      3  C   UNL     1       2.061   8.575  17.718  0.00  0.00    +0.000 C 
ATOM      4  C   UNL     1       1.357   9.262  18.886  0.00  0.00    +0.000 C 
ATOM      5  C   UNL     1       1.888   8.760  20.243  0.00  0.00    +0.000 C 
ATOM      6  C   UNL     1       1.857   7.216  20.314  0.00  0.00    +0.000 C 
ENDROOT
BRANCH   1  10
ATOM      7  O   UNL     1       3.907   2.254  20.424  0.00  0.00    +0.000 OA
ATOM      8  C   UNL     1       4.174   3.302  19.845  0.00  0.00    +0.000 A 
ATOM      9  C   UNL     1       3.245   4.455  19.884  0.00  0.00    +0.000 A 
ATOM     10  C   UNL     1       3.478   5.601  19.219  0.00  0.00    +0.000 A 
ATOM     11  C   UNL     1       4.772   5.722  18.474  0.00  0.00    +0.000 A 
ATOM     12  N   UNL     1       5.058   6.899  17.856  0.00  0.00    +0.000 NA
ATOM     13  C   UNL     1       6.216   6.971  17.167  0.00  0.00    +0.000 A 
ATOM     14  C   UNL     1       7.120   5.926  17.065  0.00  0.00    +0.000 A 
ATOM     15  C   UNL     1       6.830   4.733  17.723  0.00  0.00    +0.000 A 
ATOM     16  C   UNL     1       5.643   4.632  18.441  0.00  0.00    +0.000 A 
ATOM     17  N   UNL     1       5.324   3.454  19.122  0.00  0.00    +0.000 N 
ATOM     18  H   UNL     1       5.944   2.655  19.098  0.00  0.00    +0.000 HD
ENDBRANCH   1  10
BRANCH   5  19
ATOM     19  C   UNL     1       1.094   9.375  21.351  0.00  0.00    +0.000 A 
ATOM     20  N   UNL     1       1.251   9.134  22.641  0.00  0.00    +0.000 NA
ATOM     21  N   UNL     1       0.291   9.832  23.335  0.00  0.00    +0.000 NA
ATOM     22  C   UNL     1      -0.439  10.481  22.459  0.00  0.00    +0.000 A 
ATOM     23  N   UNL     1       0.028  10.230  21.204  0.00  0.00    +0.000 N 
BRANCH  23  24
ATOM     24  C   UNL     1      -0.502  10.765  19.969  0.00  0.00    +0.000 C 
ATOM     25  C   UNL     1      -0.312  12.227  19.594  0.00  0.00    +0.000 C 
ATOM     26  C   UNL     1      -1.673  11.732  19.938  0.00  0.00    +0.000 C 
ENDBRANCH  23  24
ENDBRANCH   5  19
TORSDOF 3
ENDMDL
MODEL 7
REMARK VINA RESULT:      -6.8      5.402      7.419
REMARK  Name = 
REMARK  3 active torsions:
REMARK  status: ('A' for Active; 'I' for Inactive)
REMARK    1  A    between atoms: C_4  and  N_5
REMARK    2  A    between atoms: C_9  and  C_10
REMARK    3  A    between atoms: N_14  and  C_15
REMARK                            x       y       z     vdW  Elec       q    Type
REMARK                         _______ _______ _______ _____ _____    ______ ____
ROOT
ATOM      1  N   UNL     1       1.780   8.586  19.731  0.00  0.00    +0.000 N 
ATOM      2  C   UNL     1       2.241   9.307  18.535  0.00  0.00    +0.000 C 
ATOM      3  C   UNL     1       2.117   8.396  17.320  0.00  0.00    +0.000 C 
ATOM      4  C   UNL     1       2.899   7.101  17.534  0.00  0.00    +0.000 C 
ATOM      5  C   UNL     1       2.498   6.406  18.849  0.00  0.00    +0.000 C 
ATOM      6  C   UNL     1       2.576   7.388  20.042  0.00  0.00    +0.000 C 
ENDROOT
BRANCH   1  10
ATOM      7  O   UNL     1       0.196   9.623  24.122  0.00  0.00    +0.000 OA
ATOM      8  C   UNL     1       0.096   9.781  22.909  0.00  0.00    +0.000 A 
ATOM      9  C   UNL     1       0.954   9.024  21.967  0.00  0.00    +0.000 A 
ATOM     10  C   UNL     1       0.911   9.208  20.636  0.00  0.00    +0.000 A 
ATOM     11  C   UNL     1      -0.104  10.168  20.098  0.00  0.00    +0.000 A 
ATOM     12  N   UNL     1      -0.212  10.314  18.750  0.00  0.00    +0.000 NA
ATOM     13  C   UNL     1      -1.114  11.208  18.294  0.00  0.00    +0.000 A 
ATOM     14  C   UNL     1      -1.931  11.968  19.115  0.00  0.00    +0.000 A 
ATOM     15  C   UNL     1      -1.830  11.794  20.493  0.00  0.00    +0.000 A 
ATOM     16  C   UNL     1      -0.909  10.878  20.990  0.00  0.00    +0.000 A 
ATOM     17  N   UNL     1      -0.789  10.670  22.367  0.00  0.00    +0.000 N 
ATOM     18  H   UNL     1      -1.361  11.185  23.023  0.00  0.00    +0.000 HD
ENDBRANCH   1  10
BRANCH   5  19
ATOM     19  C   UNL     1       3.367   5.209  19.070  0.00  0.00    +0.000 A 
ATOM     20  N   UNL     1       4.660   5.231  19.341  0.00  0.00    +0.000 NA
ATOM     21  N   UNL     1       5.114   3.934  19.405  0.00  0.00    +0.000 NA
ATOM     22  C   UNL     1       4.094   3.145  19.164  0.00  0.00    +0.000 A 
ATOM     23  N   UNL     1       2.977   3.896  18.955  0.00  0.00    +0.000 N 
BRANCH  23  24
ATOM     24  C   UNL     1       1.651   3.397  18.667  0.00  0.00    +0.000 C 
ATOM     25  C   UNL     1       0.669   3.072  19.783  0.00  0.00    +0.000 C 
ATOM     26  C   UNL     1       1.237   1.965  18.965  0.00  0.00    +0.000 C 
ENDBRANCH  23  24
ENDBRANCH   5  19
TORSDOF 3
ENDMDL
MODEL 8
REMARK VINA RESULT:      -6.7      5.619      8.041
REMARK  Name = 
REMARK  3 active torsions:
REMARK  status: ('A' for Active; 'I' for Inactive)
REMARK    1  A    between atoms: C_4  and  N_5
REMARK    2  A    between atoms: C_9  and  C_10
REMARK    3  A    between atoms: N_14  and  C_15
REMARK                            x       y       z     vdW  Elec       q    Type
REMARK                         _______ _______ _______ _____ _____    ______ ____
ROOT
ATOM      1  N   UNL     1       1.507   7.987  20.547  0.00  0.00    +0.000 N 
ATOM      2  C   UNL     1       1.846   8.463  21.897  0.00  0.00    +0.000 C 
ATOM      3  C   UNL     1       0.650   9.201  22.484  0.00  0.00    +0.000 C 
ATOM      4  C   UNL     1       0.223  10.350  21.573  0.00  0.00    +0.000 C 
ATOM      5  C   UNL     1      -0.018   9.870  20.129  0.00  0.00    +0.000 C 
ATOM      6  C   UNL     1       1.196   9.071  19.600  0.00  0.00    +0.000 C 
ENDROOT
BRANCH   1  10
ATOM      7  O   UNL     1       1.026   3.236  20.790  0.00  0.00    +0.000 OA
ATOM      8  C   UNL     1       1.552   4.209  20.258  0.00  0.00    +0.000 A 
ATOM      9  C   UNL     1       1.298   5.581  20.755  0.00  0.00    +0.000 A 
ATOM     10  C   UNL     1       1.813   6.675  20.166  0.00  0.00    +0.000 A 
ATOM     11  C   UNL     1       2.737   6.471  19.006  0.00  0.00    +0.000 A 
ATOM     12  N   UNL     1       3.325   7.561  18.443  0.00  0.00    +0.000 NA
ATOM     13  C   UNL     1       4.130   7.351  17.381  0.00  0.00    +0.000 A 
ATOM     14  C   UNL     1       4.393   6.100  16.846  0.00  0.00    +0.000 A 
ATOM     15  C   UNL     1       3.807   4.988  17.445  0.00  0.00    +0.000 A 
ATOM     16  C   UNL     1       2.973   5.176  18.543  0.00  0.00    +0.000 A 
ATOM     17  N   UNL     1       2.376   4.082  19.175  0.00  0.00    +0.000 N 
ATOM     18  H   UNL     1       2.532   3.140  18.842  0.00  0.00    +0.000 HD
ENDBRANCH   1  10
BRANCH   5  19
ATOM     19  C   UNL     1      -0.322  11.044  19.254  0.00  0.00    +0.000 A 
ATOM     20  N   UNL     1       0.315  12.202  19.264  0.00  0.00    +0.000 NA
ATOM     21  N   UNL     1      -0.300  13.046  18.369  0.00  0.00    +0.000 NA
ATOM     22  C   UNL     1      -1.304  12.392  17.833  0.00  0.00    +0.000 A 
ATOM     23  N   UNL     1      -1.355  11.133  18.351  0.00  0.00    +0.000 N 
BRANCH  23  24
ATOM     24  C   UNL     1      -2.312  10.104  18.011  0.00  0.00    +0.000 C 
ATOM     25  C   UNL     1      -2.496   9.639  16.574  0.00  0.00    +0.000 C 
ATOM     26  C   UNL     1      -3.587  10.402  17.240  0.00  0.00    +0.000 C 
ENDBRANCH  23  24
ENDBRANCH   5  19
TORSDOF 3
ENDMDL
MODEL 9
REMARK VINA RESULT:      -6.7      8.390     10.788
REMARK  Name = 
REMARK  3 active torsions:
REMARK  status: ('A' for Active; 'I' for Inactive)
REMARK    1  A    between atoms: C_4  and  N_5
REMARK    2  A    between atoms: C_9  and  C_10
REMARK    3  A    between atoms: N_14  and  C_15
REMARK                            x       y       z     vdW  Elec       q    Type
REMARK                         _______ _______ _______ _____ _____    ______ ____
ROOT
ATOM      1  N   UNL     1      -1.496  11.834  18.440  0.00  0.00    +0.000 N 
ATOM      2  C   UNL     1      -0.905  13.180  18.483  0.00  0.00    +0.000 C 
ATOM      3  C   UNL     1       0.613  13.064  18.419  0.00  0.00    +0.000 C 
ATOM      4  C   UNL     1       1.136  12.184  19.552  0.00  0.00    +0.000 C 
ATOM      5  C   UNL     1       0.430  10.815  19.579  0.00  0.00    +0.000 C 
ATOM      6  C   UNL     1      -1.107  10.983  19.576  0.00  0.00    +0.000 C 
ENDROOT
BRANCH   1  10
ATOM      7  O   UNL     1      -3.463  10.303  14.359  0.00  0.00    +0.000 OA
ATOM      8  C   UNL     1      -3.616  10.746  15.493  0.00  0.00    +0.000 A 
ATOM      9  C   UNL     1      -2.453  11.127  16.328  0.00  0.00    +0.000 A 
ATOM     10  C   UNL     1      -2.578  11.566  17.593  0.00  0.00    +0.000 A 
ATOM     11  C   UNL     1      -3.963  11.739  18.136  0.00  0.00    +0.000 A 
ATOM     12  N   UNL     1      -4.112  12.250  19.388  0.00  0.00    +0.000 NA
ATOM     13  C   UNL     1      -5.369  12.367  19.863  0.00  0.00    +0.000 A 
ATOM     14  C   UNL     1      -6.501  12.006  19.150  0.00  0.00    +0.000 A 
ATOM     15  C   UNL     1      -6.340  11.508  17.861  0.00  0.00    +0.000 A 
ATOM     16  C   UNL     1      -5.054  11.378  17.345  0.00  0.00    +0.000 A 
ATOM     17  N   UNL     1      -4.856  10.891  16.050  0.00  0.00    +0.000 N 
ATOM     18  H   UNL     1      -5.639  10.618  15.471  0.00  0.00    +0.000 HD
ENDBRANCH   1  10
BRANCH   5  19
ATOM     19  C   UNL     1       0.892  10.035  20.769  0.00  0.00    +0.000 A 
ATOM     20  N   UNL     1       0.995  10.496  22.003  0.00  0.00    +0.000 NA
ATOM     21  N   UNL     1       1.519   9.502  22.797  0.00  0.00    +0.000 NA
ATOM     22  C   UNL     1       1.734   8.457  22.034  0.00  0.00    +0.000 A 
ATOM     23  N   UNL     1       1.351   8.740  20.758  0.00  0.00    +0.000 N 
BRANCH  23  24
ATOM     24  C   UNL     1       1.421   7.845  19.624  0.00  0.00    +0.000 C 
ATOM     25  C   UNL     1       2.631   6.952  19.394  0.00  0.00    +0.000 C 
ATOM     26  C   UNL     1       2.369   8.079  18.459  0.00  0.00    +0.000 C 
ENDBRANCH  23  24
ENDBRANCH   5  19
TORSDOF 3
ENDMDL
