MODEL 1
REMARK VINA RESULT:      -8.5      0.000      0.000
REMARK  Name = 
REMARK  6 active torsions:
REMARK  status: ('A' for Active; 'I' for Inactive)
REMARK    1  A    between atoms: C_1  and  N_2
REMARK    2  A    between atoms: C_6  and  C_7
REMARK    3  A    between atoms: C_7  and  C_8
REMARK    4  A    between atoms: C_8  and  C_9
REMARK    5  A    between atoms: C_13  and  N_14
REMARK    6  A    between atoms: C_20  and  C_21
REMARK                            x       y       z     vdW  Elec       q    Type
REMARK                         _______ _______ _______ _____ _____    ______ ____
ROOT
ATOM      1  C   UNL     1       7.864   7.727  17.849  0.00  0.00    +0.000 A 
ATOM      2  C   UNL     1       8.010   6.877  18.954  0.00  0.00    +0.000 A 
ATOM      3  C   UNL     1       7.866   5.499  18.810  0.00  0.00    +0.000 A 
ATOM      4  C   UNL     1       7.471   4.966  17.589  0.00  0.00    +0.000 A 
ATOM      5  C   UNL     1       7.074   5.829  16.556  0.00  0.00    +0.000 A 
ATOM      6  C   UNL     1       7.425   7.183  16.633  0.00  0.00    +0.000 A 
ENDROOT
BRANCH   5   7
ATOM      7  N   UNL     1       5.937   5.461  15.712  0.00  0.00    +0.000 N 
ATOM      8  C   UNL     1       4.795   6.374  15.988  0.00  0.00    +0.000 C 
ATOM      9  C   UNL     1       4.097   5.648  17.085  0.00  0.00    +0.000 A 
ATOM     10  C   UNL     1       3.581   6.132  18.265  0.00  0.00    +0.000 A 
ATOM     11  F   UNL     1       3.478   7.452  18.468  0.00  0.00    +0.000 F 
ATOM     12  C   UNL     1       3.329   5.243  19.311  0.00  0.00    +0.000 A 
ATOM     13  C   UNL     1       3.584   3.859  19.167  0.00  0.00    +0.000 A 
ATOM     14  C   UNL     1       4.081   3.370  17.951  0.00  0.00    +0.000 A 
ATOM     15  C   UNL     1       4.353   4.289  16.946  0.00  0.00    +0.000 A 
ATOM     16  C   UNL     1       5.422   4.154  15.926  0.00  0.00    +0.000 C 
ATOM     17  O   UNL     1       5.876   3.084  15.558  0.00  0.00    +0.000 OA
BRANCH  13  18
ATOM     18  C   UNL     1       3.437   2.922  20.340  0.00  0.00    +0.000 C 
ATOM     19  F   UNL     1       2.315   2.151  20.267  0.00  0.00    +0.000 F 
ENDBRANCH  13  18
ENDBRANCH   5   7
BRANCH   1  20
ATOM     20  C   UNL     1       8.167   9.202  17.987  0.00  0.00    +0.000 C 
BRANCH  20  21
ATOM     21  C   UNL     1       9.154   9.544  19.109  0.00  0.00    +0.000 C 
BRANCH  21  27
ATOM     22  C   UNL     1       9.209  11.823  21.253  0.00  0.00    +0.000 C 
ATOM     23  N   UNL     1       9.706  11.907  19.907  0.00  0.00    +0.000 N 
ATOM     24  C   UNL     1      10.272  12.999  19.323  0.00  0.00    +0.000 A 
ATOM     25  N   UNL     1      10.620  12.704  18.095  0.00  0.00    +0.000 NA
ATOM     26  N   UNL     1      10.270  11.402  17.859  0.00  0.00    +0.000 NA
ATOM     27  C   UNL     1       9.705  10.924  18.949  0.00  0.00    +0.000 A 
ENDBRANCH  21  27
ENDBRANCH  20  21
ENDBRANCH   1  20
TORSDOF 5
ENDMDL
MODEL 2
REMARK VINA RESULT:      -8.5      1.168      1.370
REMARK  Name = 
REMARK  6 active torsions:
REMARK  status: ('A' for Active; 'I' for Inactive)
REMARK    1  A    between atoms: C_1  and  N_2
REMARK    2  A    between atoms: C_6  and  C_7
REMARK    3  A    between atoms: C_7  and  C_8
REMARK    4  A    between atoms: C_8  and  C_9
REMARK    5  A    between atoms: C_13  and  N_14
REMARK    6  A    between atoms: C_20  and  C_21
REMARK                            x       y       z     vdW  Elec       q    Type
REMARK                         _______ _______ _______ _____ _____    ______ ____
ROOT
ATOM      1  C   UNL     1       8.081   7.381  18.349  0.00  0.00    +0.000 A 
ATOM      2  C   UNL     1       8.158   6.266  19.195  0.00  0.00    +0.000 A 
ATOM      3  C   UNL     1       7.847   4.994  18.720  0.00  0.00    +0.000 A 
ATOM      4  C   UNL     1       7.355   4.837  17.430  0.00  0.00    +0.000 A 
ATOM      5  C   UNL     1       7.032   5.972  16.671  0.00  0.00    +0.000 A 
ATOM      6  C   UNL     1       7.544   7.215  17.063  0.00  0.00    +0.000 A 
ENDROOT
BRANCH   5   7
ATOM      7  N   UNL     1       5.835   5.956  15.831  0.00  0.00    +0.000 N 
ATOM      8  C   UNL     1       4.732   6.678  16.521  0.00  0.00    +0.000 C 
ATOM      9  C   UNL     1       4.094   5.573  17.291  0.00  0.00    +0.000 A 
ATOM     10  C   UNL     1       3.667   5.550  18.598  0.00  0.00    +0.000 A 
ATOM     11  F   UNL     1       3.603   6.682  19.309  0.00  0.00    +0.000 F 
ATOM     12  C   UNL     1       3.468   4.319  19.226  0.00  0.00    +0.000 A 
ATOM     13  C   UNL     1       3.686   3.105  18.533  0.00  0.00    +0.000 A 
ATOM     14  C   UNL     1       4.092   3.137  17.191  0.00  0.00    +0.000 A 
ATOM     15  C   UNL     1       4.314   4.379  16.611  0.00  0.00    +0.000 A 
ATOM     16  C   UNL     1       5.310   4.665  15.549  0.00  0.00    +0.000 C 
ATOM     17  O   UNL     1       5.717   3.830  14.760  0.00  0.00    +0.000 OA
BRANCH  13  18
ATOM     18  C   UNL     1       3.599   1.781  19.250  0.00  0.00    +0.000 C 
ATOM     19  F   UNL     1       3.777   0.714  18.421  0.00  0.00    +0.000 F 
ENDBRANCH  13  18
ENDBRANCH   5   7
BRANCH   1  20
ATOM     20  C   UNL     1       8.560   8.730  18.833  0.00  0.00    +0.000 C 
BRANCH  20  21
ATOM     21  C   UNL     1       8.429   9.857  17.800  0.00  0.00    +0.000 C 
BRANCH  21  27
ATOM     22  C   UNL     1       7.703  12.837  17.177  0.00  0.00    +0.000 C 
ATOM     23  N   UNL     1       8.837  12.375  17.930  0.00  0.00    +0.000 N 
ATOM     24  C   UNL     1       9.805  13.153  18.490  0.00  0.00    +0.000 A 
ATOM     25  N   UNL     1      10.669  12.391  19.113  0.00  0.00    +0.000 NA
ATOM     26  N   UNL     1      10.275  11.090  18.954  0.00  0.00    +0.000 NA
ATOM     27  C   UNL     1       9.176  11.078  18.228  0.00  0.00    +0.000 A 
ENDBRANCH  21  27
ENDBRANCH  20  21
ENDBRANCH   1  20
TORSDOF 5
ENDMDL
MODEL 3
REMARK VINA RESULT:      -8.4      5.240      7.041
REMARK  Name = 
REMARK  6 active torsions:
REMARK  status: ('A' for Active; 'I' for Inactive)
REMARK    1  A    between atoms: C_1  and  N_2
REMARK    2  A    between atoms: C_6  and  C_7
REMARK    3  A    between atoms: C_7  and  C_8
REMARK    4  A    between atoms: C_8  and  C_9
REMARK    5  A    between atoms: C_13  and  N_14
REMARK    6  A    between atoms: C_20  and  C_21
REMARK                            x       y       z     vdW  Elec       q    Type
REMARK                         _______ _______ _______ _____ _____    ______ ____
ROOT
ATOM      1  C   UNL     1       1.792   7.241  20.294  0.00  0.00    +0.000 A 
ATOM      2  C   UNL     1       2.295   7.869  19.147  0.00  0.00    +0.000 A 
ATOM      3  C   UNL     1       2.471   7.151  17.966  0.00  0.00    +0.000 A 
ATOM      4  C   UNL     1       2.250   5.779  17.949  0.00  0.00    +0.000 A 
ATOM      5  C   UNL     1       1.998   5.106  19.155  0.00  0.00    +0.000 A 
ATOM      6  C   UNL     1       1.612   5.850  20.277  0.00  0.00    +0.000 A 
ENDROOT
BRANCH   5   7
ATOM      7  N   UNL     1       2.590   3.786  19.376  0.00  0.00    +0.000 N 
ATOM      8  C   UNL     1       3.900   3.936  20.065  0.00  0.00    +0.000 C 
ATOM      9  C   UNL     1       4.829   4.057  18.907  0.00  0.00    +0.000 A 
ATOM     10  C   UNL     1       5.870   4.935  18.708  0.00  0.00    +0.000 A 
ATOM     11  F   UNL     1       6.306   5.706  19.711  0.00  0.00    +0.000 F 
ATOM     12  C   UNL     1       6.349   5.136  17.413  0.00  0.00    +0.000 A 
ATOM     13  C   UNL     1       5.789   4.443  16.314  0.00  0.00    +0.000 A 
ATOM     14  C   UNL     1       4.749   3.527  16.529  0.00  0.00    +0.000 A 
ATOM     15  C   UNL     1       4.276   3.380  17.826  0.00  0.00    +0.000 A 
ATOM     16  C   UNL     1       2.878   3.046  18.196  0.00  0.00    +0.000 C 
ATOM     17  O   UNL     1       2.111   2.438  17.470  0.00  0.00    +0.000 OA
BRANCH  13  18
ATOM     18  C   UNL     1       6.218   4.761  14.903  0.00  0.00    +0.000 C 
ATOM     19  F   UNL     1       5.268   4.449  13.976  0.00  0.00    +0.000 F 
ENDBRANCH  13  18
ENDBRANCH   5   7
BRANCH   1  20
ATOM     20  C   UNL     1       1.466   8.060  21.522  0.00  0.00    +0.000 C 
BRANCH  20  21
ATOM     21  C   UNL     1      -0.028   8.341  21.719  0.00  0.00    +0.000 C 
BRANCH  21  27
ATOM     22  C   UNL     1      -0.639  10.574  19.612  0.00  0.00    +0.000 C 
ATOM     23  N   UNL     1      -0.537  10.750  21.035  0.00  0.00    +0.000 N 
ATOM     24  C   UNL     1      -0.671  11.922  21.715  0.00  0.00    +0.000 A 
ATOM     25  N   UNL     1      -0.532  11.698  22.998  0.00  0.00    +0.000 NA
ATOM     26  N   UNL     1      -0.292  10.361  23.170  0.00  0.00    +0.000 NA
ATOM     27  C   UNL     1      -0.281   9.790  21.984  0.00  0.00    +0.000 A 
ENDBRANCH  21  27
ENDBRANCH  20  21
ENDBRANCH   1  20
TORSDOF 5
ENDMDL
MODEL 4
REMARK VINA RESULT:      -8.1      0.678      1.232
REMARK  Name = 
REMARK  6 active torsions:
REMARK  status: ('A' for Active; 'I' for Inactive)
REMARK    1  A    between atoms: C_1  and  N_2
REMARK    2  A    between atoms: C_6  and  C_7
REMARK    3  A    between atoms: C_7  and  C_8
REMARK    4  A    between atoms: C_8  and  C_9
REMARK    5  A    between atoms: C_13  and  N_14
REMARK    6  A    between atoms: C_20  and  C_21
REMARK                            x       y       z     vdW  Elec       q    Type
REMARK                         _______ _______ _______ _____ _____    ______ ____
ROOT
ATOM      1  C   UNL     1       7.887   7.839  17.954  0.00  0.00    +0.000 A 
ATOM      2  C   UNL     1       8.048   6.958  19.032  0.00  0.00    +0.000 A 
ATOM      3  C   UNL     1       7.901   5.584  18.852  0.00  0.00    +0.000 A 
ATOM      4  C   UNL     1       7.487   5.086  17.622  0.00  0.00    +0.000 A 
ATOM      5  C   UNL     1       7.075   5.978  16.620  0.00  0.00    +0.000 A 
ATOM      6  C   UNL     1       7.429   7.329  16.730  0.00  0.00    +0.000 A 
ENDROOT
BRANCH   5   7
ATOM      7  N   UNL     1       5.925   5.634  15.784  0.00  0.00    +0.000 N 
ATOM      8  C   UNL     1       4.758   6.472  16.172  0.00  0.00    +0.000 C 
ATOM      9  C   UNL     1       4.128   5.627  17.225  0.00  0.00    +0.000 A 
ATOM     10  C   UNL     1       3.634   5.987  18.458  0.00  0.00    +0.000 A 
ATOM     11  F   UNL     1       3.486   7.279  18.775  0.00  0.00    +0.000 F 
ATOM     12  C   UNL     1       3.454   5.003  19.431  0.00  0.00    +0.000 A 
ATOM     13  C   UNL     1       3.759   3.648  19.161  0.00  0.00    +0.000 A 
ATOM     14  C   UNL     1       4.232   3.285  17.892  0.00  0.00    +0.000 A 
ATOM     15  C   UNL     1       4.432   4.296  16.962  0.00  0.00    +0.000 A 
ATOM     16  C   UNL     1       5.470   4.293  15.901  0.00  0.00    +0.000 C 
ATOM     17  O   UNL     1       5.953   3.278  15.429  0.00  0.00    +0.000 OA
BRANCH  13  18
ATOM     18  C   UNL     1       3.689   2.611  20.253  0.00  0.00    +0.000 C 
ATOM     19  F   UNL     1       2.420   2.391  20.698  0.00  0.00    +0.000 F 
ENDBRANCH  13  18
ENDBRANCH   5   7
BRANCH   1  20
ATOM     20  C   UNL     1       8.193   9.309  18.128  0.00  0.00    +0.000 C 
BRANCH  20  21
ATOM     21  C   UNL     1       9.439   9.600  18.973  0.00  0.00    +0.000 C 
BRANCH  21  27
ATOM     22  C   UNL     1       9.791  12.463  17.757  0.00  0.00    +0.000 C 
ATOM     23  N   UNL     1       9.490  12.150  19.127  0.00  0.00    +0.000 N 
ATOM     24  C   UNL     1       9.322  13.044  20.141  0.00  0.00    +0.000 A 
ATOM     25  N   UNL     1       9.043  12.399  21.246  0.00  0.00    +0.000 NA
ATOM     26  N   UNL     1       9.036  11.060  20.964  0.00  0.00    +0.000 NA
ATOM     27  C   UNL     1       9.320  10.908  19.687  0.00  0.00    +0.000 A 
ENDBRANCH  21  27
ENDBRANCH  20  21
ENDBRANCH   1  20
TORSDOF 5
ENDMDL
MODEL 5
REMARK VINA RESULT:      -8.0      4.092      6.117
REMARK  Name = 
REMARK  6 active torsions:
REMARK  status: ('A' for Active; 'I' for Inactive)
REMARK    1  A    between atoms: C_1  and  N_2
REMARK    2  A    between atoms: C_6  and  C_7
REMARK    3  A    between atoms: C_7  and  C_8
REMARK    4  A    between atoms: C_8  and  C_9
REMARK    5  A    between atoms: C_13  and  N_14
REMARK    6  A    between atoms: C_20  and  C_21
REMARK                            x       y       z     vdW  Elec       q    Type
REMARK                         _______ _______ _______ _____ _____    ______ ____
ROOT
ATOM      1  C   UNL     1       2.884   5.071  19.448  0.00  0.00    +0.000 A 
ATOM      2  C   UNL     1       2.626   4.086  18.485  0.00  0.00    +0.000 A 
ATOM      3  C   UNL     1       3.664   3.319  17.961  0.00  0.00    +0.000 A 
ATOM      4  C   UNL     1       4.979   3.598  18.312  0.00  0.00    +0.000 A 
ATOM      5  C   UNL     1       5.261   4.745  19.071  0.00  0.00    +0.000 A 
ATOM      6  C   UNL     1       4.218   5.372  19.763  0.00  0.00    +0.000 A 
ENDROOT
BRANCH   5   7
ATOM      7  N   UNL     1       6.451   5.536  18.757  0.00  0.00    +0.000 N 
ATOM      8  C   UNL     1       6.051   6.771  18.029  0.00  0.00    +0.000 C 
ATOM      9  C   UNL     1       6.100   6.307  16.615  0.00  0.00    +0.000 A 
ATOM     10  C   UNL     1       5.201   6.513  15.594  0.00  0.00    +0.000 A 
ATOM     11  F   UNL     1       4.202   7.391  15.740  0.00  0.00    +0.000 F 
ATOM     12  C   UNL     1       5.238   5.676  14.478  0.00  0.00    +0.000 A 
ATOM     13  C   UNL     1       6.191   4.635  14.380  0.00  0.00    +0.000 A 
ATOM     14  C   UNL     1       7.124   4.451  15.411  0.00  0.00    +0.000 A 
ATOM     15  C   UNL     1       7.034   5.280  16.521  0.00  0.00    +0.000 A 
ATOM     16  C   UNL     1       7.397   4.899  17.908  0.00  0.00    +0.000 C 
ATOM     17  O   UNL     1       8.205   4.030  18.182  0.00  0.00    +0.000 OA
BRANCH  13  18
ATOM     18  C   UNL     1       6.143   3.651  13.238  0.00  0.00    +0.000 C 
ATOM     19  F   UNL     1       4.929   3.610  12.621  0.00  0.00    +0.000 F 
ENDBRANCH  13  18
ENDBRANCH   5   7
BRANCH   1  20
ATOM     20  C   UNL     1       1.736   5.794  20.115  0.00  0.00    +0.000 C 
BRANCH  20  21
ATOM     21  C   UNL     1       2.066   7.220  20.571  0.00  0.00    +0.000 C 
BRANCH  21  27
ATOM     22  C   UNL     1       0.259   9.775  20.634  0.00  0.00    +0.000 C 
ATOM     23  N   UNL     1       1.048   9.316  19.524  0.00  0.00    +0.000 N 
ATOM     24  C   UNL     1       1.135   9.903  18.297  0.00  0.00    +0.000 A 
ATOM     25  N   UNL     1       1.960   9.218  17.545  0.00  0.00    +0.000 NA
ATOM     26  N   UNL     1       2.418   8.157  18.279  0.00  0.00    +0.000 NA
ATOM     27  C   UNL     1       1.857   8.208  19.469  0.00  0.00    +0.000 A 
ENDBRANCH  21  27
ENDBRANCH  20  21
ENDBRANCH   1  20
TORSDOF 5
ENDMDL
MODEL 6
REMARK VINA RESULT:      -8.0      4.910      6.736
REMARK  Name = 
REMARK  6 active torsions:
REMARK  status: ('A' for Active; 'I' for Inactive)
REMARK    1  A    between atoms: C_1  and  N_2
REMARK    2  A    between atoms: C_6  and  C_7
REMARK    3  A    between atoms: C_7  and  C_8
REMARK    4  A    between atoms: C_8  and  C_9
REMARK    5  A    between atoms: C_13  and  N_14
REMARK    6  A    between atoms: C_20  and  C_21
REMARK                            x       y       z     vdW  Elec       q    Type
REMARK                         _______ _______ _______ _____ _____    ______ ____
ROOT
ATOM      1  C   UNL     1       1.864   7.256  20.232  0.00  0.00    +0.000 A 
ATOM      2  C   UNL     1       2.317   7.861  19.052  0.00  0.00    +0.000 A 
ATOM      3  C   UNL     1       2.446   7.119  17.880  0.00  0.00    +0.000 A 
ATOM      4  C   UNL     1       2.226   5.747  17.900  0.00  0.00    +0.000 A 
ATOM      5  C   UNL     1       2.027   5.098  19.128  0.00  0.00    +0.000 A 
ATOM      6  C   UNL     1       1.686   5.864  20.250  0.00  0.00    +0.000 A 
ENDROOT
BRANCH   5   7
ATOM      7  N   UNL     1       2.630   3.784  19.351  0.00  0.00    +0.000 N 
ATOM      8  C   UNL     1       3.947   3.947  20.025  0.00  0.00    +0.000 C 
ATOM      9  C   UNL     1       4.862   4.067  18.856  0.00  0.00    +0.000 A 
ATOM     10  C   UNL     1       5.894   4.950  18.639  0.00  0.00    +0.000 A 
ATOM     11  F   UNL     1       6.336   5.731  19.632  0.00  0.00    +0.000 F 
ATOM     12  C   UNL     1       6.357   5.146  17.337  0.00  0.00    +0.000 A 
ATOM     13  C   UNL     1       5.790   4.443  16.249  0.00  0.00    +0.000 A 
ATOM     14  C   UNL     1       4.759   3.521  16.482  0.00  0.00    +0.000 A 
ATOM     15  C   UNL     1       4.301   3.379  17.785  0.00  0.00    +0.000 A 
ATOM     16  C   UNL     1       2.910   3.038  18.174  0.00  0.00    +0.000 C 
ATOM     17  O   UNL     1       2.139   2.421  17.460  0.00  0.00    +0.000 OA
BRANCH  13  18
ATOM     18  C   UNL     1       6.201   4.754  14.832  0.00  0.00    +0.000 C 
ATOM     19  F   UNL     1       6.659   3.661  14.159  0.00  0.00    +0.000 F 
ENDBRANCH  13  18
ENDBRANCH   5   7
BRANCH   1  20
ATOM     20  C   UNL     1       1.589   8.100  21.455  0.00  0.00    +0.000 C 
BRANCH  20  21
ATOM     21  C   UNL     1       0.190   8.727  21.491  0.00  0.00    +0.000 C 
BRANCH  21  27
ATOM     22  C   UNL     1      -1.292  10.908  23.176  0.00  0.00    +0.000 C 
ATOM     23  N   UNL     1      -0.420  11.142  22.058  0.00  0.00    +0.000 N 
ATOM     24  C   UNL     1      -0.098  12.353  21.525  0.00  0.00    +0.000 A 
ATOM     25  N   UNL     1       0.734  12.182  20.528  0.00  0.00    +0.000 NA
ATOM     26  N   UNL     1       0.958  10.838  20.392  0.00  0.00    +0.000 NA
ATOM     27  C   UNL     1       0.251  10.209  21.307  0.00  0.00    +0.000 A 
ENDBRANCH  21  27
ENDBRANCH  20  21
ENDBRANCH   1  20
TORSDOF 5
ENDMDL
MODEL 7
REMARK VINA RESULT:      -7.8      1.158      1.599
REMARK  Name = 
REMARK  6 active torsions:
REMARK  status: ('A' for Active; 'I' for Inactive)
REMARK    1  A    between atoms: C_1  and  N_2
REMARK    2  A    between atoms: C_6  and  C_7
REMARK    3  A    between atoms: C_7  and  C_8
REMARK    4  A    between atoms: C_8  and  C_9
REMARK    5  A    between atoms: C_13  and  N_14
REMARK    6  A    between atoms: C_20  and  C_21
REMARK                            x       y       z     vdW  Elec       q    Type
REMARK                         _______ _______ _______ _____ _____    ______ ____
ROOT
ATOM      1  C   UNL     1       8.058   7.033  18.545  0.00  0.00    +0.000 A 
ATOM      2  C   UNL     1       8.213   5.746  19.078  0.00  0.00    +0.000 A 
ATOM      3  C   UNL     1       7.886   4.622  18.321  0.00  0.00    +0.000 A 
ATOM      4  C   UNL     1       7.302   4.775  17.070  0.00  0.00    +0.000 A 
ATOM      5  C   UNL     1       6.907   6.052  16.644  0.00  0.00    +0.000 A 
ATOM      6  C   UNL     1       7.429   7.175  17.299  0.00  0.00    +0.000 A 
ENDROOT
BRANCH   5   7
ATOM      7  N   UNL     1       5.651   6.207  15.911  0.00  0.00    +0.000 N 
ATOM      8  C   UNL     1       4.649   6.888  16.775  0.00  0.00    +0.000 C 
ATOM      9  C   UNL     1       4.006   5.726  17.450  0.00  0.00    +0.000 A 
ATOM     10  C   UNL     1       3.678   5.555  18.775  0.00  0.00    +0.000 A 
ATOM     11  F   UNL     1       3.737   6.587  19.625  0.00  0.00    +0.000 F 
ATOM     12  C   UNL     1       3.452   4.265  19.256  0.00  0.00    +0.000 A 
ATOM     13  C   UNL     1       3.542   3.142  18.401  0.00  0.00    +0.000 A 
ATOM     14  C   UNL     1       3.846   3.328  17.044  0.00  0.00    +0.000 A 
ATOM     15  C   UNL     1       4.099   4.622  16.610  0.00  0.00    +0.000 A 
ATOM     16  C   UNL     1       5.028   4.993  15.513  0.00  0.00    +0.000 C 
ATOM     17  O   UNL     1       5.323   4.248  14.594  0.00  0.00    +0.000 OA
BRANCH  13  18
ATOM     18  C   UNL     1       3.429   1.742  18.950  0.00  0.00    +0.000 C 
ATOM     19  F   UNL     1       3.947   0.799  18.114  0.00  0.00    +0.000 F 
ENDBRANCH  13  18
ENDBRANCH   5   7
BRANCH   1  20
ATOM     20  C   UNL     1       8.553   8.234  19.318  0.00  0.00    +0.000 C 
BRANCH  20  21
ATOM     21  C   UNL     1       8.797   9.482  18.460  0.00  0.00    +0.000 C 
BRANCH  21  27
ATOM     22  C   UNL     1      10.728  11.721  17.434  0.00  0.00    +0.000 C 
ATOM     23  N   UNL     1      10.266  11.546  18.784  0.00  0.00    +0.000 N 
ATOM     24  C   UNL     1      10.602  12.314  19.857  0.00  0.00    +0.000 A 
ATOM     25  N   UNL     1       9.980  11.871  20.921  0.00  0.00    +0.000 NA
ATOM     26  N   UNL     1       9.230  10.787  20.550  0.00  0.00    +0.000 NA
ATOM     27  C   UNL     1       9.413  10.582  19.262  0.00  0.00    +0.000 A 
ENDBRANCH  21  27
ENDBRANCH  20  21
ENDBRANCH   1  20
TORSDOF 5
ENDMDL
MODEL 8
REMARK VINA RESULT:      -7.8      4.878      6.903
REMARK  Name = 
REMARK  6 active torsions:
REMARK  status: ('A' for Active; 'I' for Inactive)
REMARK    1  A    between atoms: C_1  and  N_2
REMARK    2  A    between atoms: C_6  and  C_7
REMARK    3  A    between atoms: C_7  and  C_8
REMARK    4  A    between atoms: C_8  and  C_9
REMARK    5  A    between atoms: C_13  and  N_14
REMARK    6  A    between atoms: C_20  and  C_21
REMARK                            x       y       z     vdW  Elec       q    Type
REMARK                         _______ _______ _______ _____ _____    ______ ____
ROOT
ATOM      1  C   UNL     1       1.903   7.243  20.061  0.00  0.00    +0.000 A 
ATOM      2  C   UNL     1       2.308   8.073  19.007  0.00  0.00    +0.000 A 
ATOM      3  C   UNL     1       2.945   7.539  17.889  0.00  0.00    +0.000 A 
ATOM      4  C   UNL     1       3.280   6.191  17.860  0.00  0.00    +0.000 A 
ATOM      5  C   UNL     1       3.111   5.413  19.016  0.00  0.00    +0.000 A 
ATOM      6  C   UNL     1       2.283   5.892  20.039  0.00  0.00    +0.000 A 
ENDROOT
BRANCH   5   7
ATOM      7  N   UNL     1       4.122   4.414  19.361  0.00  0.00    +0.000 N 
ATOM      8  C   UNL     1       5.444   5.077  19.523  0.00  0.00    +0.000 C 
ATOM      9  C   UNL     1       5.980   5.005  18.135  0.00  0.00    +0.000 A 
ATOM     10  C   UNL     1       6.612   5.973  17.388  0.00  0.00    +0.000 A 
ATOM     11  F   UNL     1       7.011   7.115  17.961  0.00  0.00    +0.000 F 
ATOM     12  C   UNL     1       6.676   5.827  16.002  0.00  0.00    +0.000 A 
ATOM     13  C   UNL     1       6.115   4.697  15.362  0.00  0.00    +0.000 A 
ATOM     14  C   UNL     1       5.500   3.699  16.133  0.00  0.00    +0.000 A 
ATOM     15  C   UNL     1       5.424   3.896  17.505  0.00  0.00    +0.000 A 
ATOM     16  C   UNL     1       4.335   3.403  18.384  0.00  0.00    +0.000 C 
ATOM     17  O   UNL     1       3.646   2.430  18.129  0.00  0.00    +0.000 OA
BRANCH  13  18
ATOM     18  C   UNL     1       6.068   4.606  13.858  0.00  0.00    +0.000 C 
ATOM     19  F   UNL     1       4.954   3.969  13.398  0.00  0.00    +0.000 F 
ENDBRANCH  13  18
ENDBRANCH   5   7
BRANCH   1  20
ATOM     20  C   UNL     1       1.084   7.810  21.197  0.00  0.00    +0.000 C 
BRANCH  20  21
ATOM     21  C   UNL     1       1.570   9.171  21.711  0.00  0.00    +0.000 C 
BRANCH  21  27
ATOM     22  C   UNL     1      -0.036  11.161  19.906  0.00  0.00    +0.000 C 
ATOM     23  N   UNL     1      -0.254  10.913  21.304  0.00  0.00    +0.000 N 
ATOM     24  C   UNL     1      -1.187  11.513  22.095  0.00  0.00    +0.000 A 
ATOM     25  N   UNL     1      -1.106  11.027  23.308  0.00  0.00    +0.000 NA
ATOM     26  N   UNL     1      -0.099  10.100  23.325  0.00  0.00    +0.000 NA
ATOM     27  C   UNL     1       0.425  10.041  22.119  0.00  0.00    +0.000 A 
ENDBRANCH  21  27
ENDBRANCH  20  21
ENDBRANCH   1  20
TORSDOF 5
ENDMDL
MODEL 9
REMARK VINA RESULT:      -7.8      3.962      6.558
REMARK  Name = 
REMARK  6 active torsions:
REMARK  status: ('A' for Active; 'I' for Inactive)
REMARK    1  A    between atoms: C_1  and  N_2
REMARK    2  A    between atoms: C_6  and  C_7
REMARK    3  A    between atoms: C_7  and  C_8
REMARK    4  A    between atoms: C_8  and  C_9
REMARK    5  A    between atoms: C_13  and  N_14
REMARK    6  A    between atoms: C_20  and  C_21
REMARK                            x       y       z     vdW  Elec       q    Type
REMARK                         _______ _______ _______ _____ _____    ______ ____
ROOT
ATOM      1  C   UNL     1       2.853   7.203  17.956  0.00  0.00    +0.000 A 
ATOM      2  C   UNL     1       1.766   6.323  18.043  0.00  0.00    +0.000 A 
ATOM      3  C   UNL     1       1.975   4.954  18.197  0.00  0.00    +0.000 A 
ATOM      4  C   UNL     1       3.266   4.440  18.159  0.00  0.00    +0.000 A 
ATOM      5  C   UNL     1       4.333   5.283  17.813  0.00  0.00    +0.000 A 
ATOM      6  C   UNL     1       4.148   6.670  17.876  0.00  0.00    +0.000 A 
ENDROOT
BRANCH   5   7
ATOM      7  N   UNL     1       5.402   4.771  16.956  0.00  0.00    +0.000 N 
ATOM      8  C   UNL     1       6.506   4.238  17.799  0.00  0.00    +0.000 C 
ATOM      9  C   UNL     1       7.353   5.451  17.973  0.00  0.00    +0.000 A 
ATOM     10  C   UNL     1       7.953   5.945  19.110  0.00  0.00    +0.000 A 
ATOM     11  F   UNL     1       7.993   5.209  20.227  0.00  0.00    +0.000 F 
ATOM     12  C   UNL     1       8.362   7.279  19.136  0.00  0.00    +0.000 A 
ATOM     13  C   UNL     1       8.181   8.118  18.012  0.00  0.00    +0.000 A 
ATOM     14  C   UNL     1       7.597   7.599  16.847  0.00  0.00    +0.000 A 
ATOM     15  C   UNL     1       7.171   6.278  16.870  0.00  0.00    +0.000 A 
ATOM     16  C   UNL     1       6.017   5.736  16.112  0.00  0.00    +0.000 C 
ATOM     17  O   UNL     1       5.596   6.224  15.077  0.00  0.00    +0.000 OA
BRANCH  13  18
ATOM     18  C   UNL     1       8.501   9.590  18.089  0.00  0.00    +0.000 C 
ATOM     19  F   UNL     1       9.266   9.912  19.171  0.00  0.00    +0.000 F 
ENDBRANCH  13  18
ENDBRANCH   5   7
BRANCH   1  20
ATOM     20  C   UNL     1       2.615   8.696  17.937  0.00  0.00    +0.000 C 
BRANCH  20  21
ATOM     21  C   UNL     1       1.143   9.105  18.076  0.00  0.00    +0.000 C 
BRANCH  21  27
ATOM     22  C   UNL     1       0.862   8.403  21.113  0.00  0.00    +0.000 C 
ATOM     23  N   UNL     1       0.817   9.718  20.535  0.00  0.00    +0.000 N 
ATOM     24  C   UNL     1       0.626  10.888  21.205  0.00  0.00    +0.000 A 
ATOM     25  N   UNL     1       0.661  11.885  20.356  0.00  0.00    +0.000 NA
ATOM     26  N   UNL     1       0.866  11.368  19.105  0.00  0.00    +0.000 NA
ATOM     27  C   UNL     1       0.947  10.058  19.211  0.00  0.00    +0.000 A 
ENDBRANCH  21  27
ENDBRANCH  20  21
ENDBRANCH   1  20
TORSDOF 5
ENDMDL
