MODEL 1
REMARK VINA RESULT:      -8.5      0.000      0.000
REMARK  Name = 
REMARK  8 active torsions:
REMARK  status: ('A' for Active; 'I' for Inactive)
REMARK    1  A    between atoms: C_1  and  C_2
REMARK    2  A    between atoms: C_6  and  N_7
REMARK    3  A    between atoms: C_8  and  C_10
REMARK    4  A    between atoms: C_12  and  S_13
REMARK    5  A    between atoms: S_13  and  N_16
REMARK    6  A    between atoms: N_16  and  C_17
REMARK    7  A    between atoms: N_16  and  C_18
REMARK    8  A    between atoms: C_18  and  C_19
REMARK                            x       y       z     vdW  Elec       q    Type
REMARK                         _______ _______ _______ _____ _____    ______ ____
ROOT
ATOM      1  C   UNL     1       2.941   4.943  20.027  0.00  0.00    +0.000 A 
ATOM      2  C   UNL     1       4.056   5.459  19.317  0.00  0.00    +0.000 A 
ATOM      3  C   UNL     1       5.103   4.631  18.895  0.00  0.00    +0.000 A 
ATOM      4  C   UNL     1       5.083   3.274  19.214  0.00  0.00    +0.000 A 
ATOM      5  C   UNL     1       3.993   2.746  19.907  0.00  0.00    +0.000 A 
ATOM      6  C   UNL     1       2.923   3.565  20.309  0.00  0.00    +0.000 A 
ATOM      7 CL   UNL     1       1.651   2.750  21.152  0.00  0.00    +0.000 Cl
ENDROOT
BRANCH   1   9
ATOM      8  N   UNL     1       2.232   7.300  20.431  0.00  0.00    +0.000 N 
ATOM      9  C   UNL     1       1.897   5.957  20.424  0.00  0.00    +0.000 C 
ATOM     10  O   UNL     1       0.799   5.517  20.760  0.00  0.00    +0.000 OA
ATOM     11  H   UNL     1       3.198   7.546  20.241  0.00  0.00    +0.000 HD
BRANCH   8  17
ATOM     12  C   UNL     1      -0.392  11.107  18.684  0.00  0.00    +0.000 C 
ATOM     13  C   UNL     1       0.051  10.258  19.841  0.00  0.00    +0.000 A 
ATOM     14  C   UNL     1      -0.349  10.578  21.142  0.00  0.00    +0.000 A 
ATOM     15  C   UNL     1       0.115   9.826  22.218  0.00  0.00    +0.000 A 
ATOM     16  C   UNL     1       0.982   8.749  22.007  0.00  0.00    +0.000 A 
ATOM     17  C   UNL     1       1.377   8.394  20.716  0.00  0.00    +0.000 A 
ATOM     18  C   UNL     1       0.893   9.150  19.636  0.00  0.00    +0.000 A 
ENDBRANCH   8  17
ENDBRANCH   1   9
BRANCH   3  19
ATOM     19  S   UNL     1       6.548   5.320  18.085  0.00  0.00    +0.000 S 
ATOM     20  O   UNL     1       6.775   6.630  18.652  0.00  0.00    +0.000 OA
ATOM     21  O   UNL     1       7.572   4.297  18.144  0.00  0.00    +0.000 OA
BRANCH  19  22
ATOM     22  N   UNL     1       6.078   5.497  16.455  0.00  0.00    +0.000 NA
ATOM     23  C   UNL     1       5.158   6.610  16.162  0.00  0.00    +0.000 C 
BRANCH  22  24
ATOM     24  C   UNL     1       7.149   5.268  15.455  0.00  0.00    +0.000 C 
BRANCH  24  25
ATOM     25  C   UNL     1       6.722   4.657  14.133  0.00  0.00    +0.000 A 
ATOM     26  C   UNL     1       7.567   4.743  13.015  0.00  0.00    +0.000 A 
ATOM     27  C   UNL     1       7.236   4.100  11.818  0.00  0.00    +0.000 A 
ATOM     28  C   UNL     1       6.056   3.369  11.721  0.00  0.00    +0.000 A 
ATOM     29  C   UNL     1       5.198   3.288  12.817  0.00  0.00    +0.000 A 
ATOM     30  C   UNL     1       5.528   3.927  14.016  0.00  0.00    +0.000 A 
ENDBRANCH  24  25
ENDBRANCH  22  24
ENDBRANCH  19  22
ENDBRANCH   3  19
TORSDOF 6
ENDMDL
MODEL 2
REMARK VINA RESULT:      -8.4      2.424      4.428
REMARK  Name = 
REMARK  8 active torsions:
REMARK  status: ('A' for Active; 'I' for Inactive)
REMARK    1  A    between atoms: C_1  and  C_2
REMARK    2  A    between atoms: C_6  and  N_7
REMARK    3  A    between atoms: C_8  and  C_10
REMARK    4  A    between atoms: C_12  and  S_13
REMARK    5  A    between atoms: S_13  and  N_16
REMARK    6  A    between atoms: N_16  and  C_17
REMARK    7  A    between atoms: N_16  and  C_18
REMARK    8  A    between atoms: C_18  and  C_19
REMARK                            x       y       z     vdW  Elec       q    Type
REMARK                         _______ _______ _______ _____ _____    ______ ____
ROOT
ATOM      1  C   UNL     1       2.532   7.577  18.856  0.00  0.00    +0.000 A 
ATOM      2  C   UNL     1       3.592   7.040  18.081  0.00  0.00    +0.000 A 
ATOM      3  C   UNL     1       4.265   5.875  18.469  0.00  0.00    +0.000 A 
ATOM      4  C   UNL     1       3.925   5.245  19.664  0.00  0.00    +0.000 A 
ATOM      5  C   UNL     1       2.882   5.755  20.439  0.00  0.00    +0.000 A 
ATOM      6  C   UNL     1       2.181   6.907  20.042  0.00  0.00    +0.000 A 
ATOM      7 CL   UNL     1       0.913   7.400  21.112  0.00  0.00    +0.000 Cl
ENDROOT
BRANCH   1   9
ATOM      8  N   UNL     1       1.126   9.616  19.156  0.00  0.00    +0.000 N 
ATOM      9  C   UNL     1       1.910   8.842  18.318  0.00  0.00    +0.000 C 
ATOM     10  O   UNL     1       2.111   9.095  17.131  0.00  0.00    +0.000 OA
ATOM     11  H   UNL     1       0.935   9.259  20.086  0.00  0.00    +0.000 HD
BRANCH   8  17
ATOM     12  C   UNL     1       1.609  14.517  18.737  0.00  0.00    +0.000 C 
ATOM     13  C   UNL     1       0.766  13.280  18.610  0.00  0.00    +0.000 A 
ATOM     14  C   UNL     1      -0.578  13.380  18.239  0.00  0.00    +0.000 A 
ATOM     15  C   UNL     1      -1.372  12.238  18.184  0.00  0.00    +0.000 A 
ATOM     16  C   UNL     1      -0.833  10.986  18.499  0.00  0.00    +0.000 A 
ATOM     17  C   UNL     1       0.512  10.857  18.850  0.00  0.00    +0.000 A 
ATOM     18  C   UNL     1       1.308  12.013  18.889  0.00  0.00    +0.000 A 
ENDBRANCH   8  17
ENDBRANCH   1   9
BRANCH   3  19
ATOM     19  S   UNL     1       5.666   5.269  17.526  0.00  0.00    +0.000 S 
ATOM     20  O   UNL     1       6.307   6.415  16.923  0.00  0.00    +0.000 OA
ATOM     21  O   UNL     1       6.399   4.387  18.411  0.00  0.00    +0.000 OA
BRANCH  19  22
ATOM     22  N   UNL     1       4.970   4.315  16.295  0.00  0.00    +0.000 NA
ATOM     23  C   UNL     1       5.580   4.434  14.959  0.00  0.00    +0.000 C 
BRANCH  22  24
ATOM     24  C   UNL     1       4.571   2.946  16.700  0.00  0.00    +0.000 C 
BRANCH  24  25
ATOM     25  C   UNL     1       3.271   2.821  17.475  0.00  0.00    +0.000 A 
ATOM     26  C   UNL     1       3.177   1.918  18.546  0.00  0.00    +0.000 A 
ATOM     27  C   UNL     1       2.023   1.861  19.333  0.00  0.00    +0.000 A 
ATOM     28  C   UNL     1       0.947   2.701  19.057  0.00  0.00    +0.000 A 
ATOM     29  C   UNL     1       1.018   3.590  17.987  0.00  0.00    +0.000 A 
ATOM     30  C   UNL     1       2.173   3.652  17.200  0.00  0.00    +0.000 A 
ENDBRANCH  24  25
ENDBRANCH  22  24
ENDBRANCH  19  22
ENDBRANCH   3  19
TORSDOF 6
ENDMDL
MODEL 3
REMARK VINA RESULT:      -8.3      2.363      4.261
REMARK  Name = 
REMARK  8 active torsions:
REMARK  status: ('A' for Active; 'I' for Inactive)
REMARK    1  A    between atoms: C_1  and  C_2
REMARK    2  A    between atoms: C_6  and  N_7
REMARK    3  A    between atoms: C_8  and  C_10
REMARK    4  A    between atoms: C_12  and  S_13
REMARK    5  A    between atoms: S_13  and  N_16
REMARK    6  A    between atoms: N_16  and  C_17
REMARK    7  A    between atoms: N_16  and  C_18
REMARK    8  A    between atoms: C_18  and  C_19
REMARK                            x       y       z     vdW  Elec       q    Type
REMARK                         _______ _______ _______ _____ _____    ______ ____
ROOT
ATOM      1  C   UNL     1       2.662   7.587  18.688  0.00  0.00    +0.000 A 
ATOM      2  C   UNL     1       3.691   7.128  17.824  0.00  0.00    +0.000 A 
ATOM      3  C   UNL     1       4.458   6.000  18.134  0.00  0.00    +0.000 A 
ATOM      4  C   UNL     1       4.247   5.329  19.338  0.00  0.00    +0.000 A 
ATOM      5  C   UNL     1       3.237   5.761  20.199  0.00  0.00    +0.000 A 
ATOM      6  C   UNL     1       2.442   6.876  19.881  0.00  0.00    +0.000 A 
ATOM      7 CL   UNL     1       1.232   7.273  21.052  0.00  0.00    +0.000 Cl
ENDROOT
BRANCH   1   9
ATOM      8  N   UNL     1       1.016   9.421  19.076  0.00  0.00    +0.000 N 
ATOM      9  C   UNL     1       1.928   8.821  18.225  0.00  0.00    +0.000 C 
ATOM     10  O   UNL     1       2.162   9.207  17.081  0.00  0.00    +0.000 OA
ATOM     11  H   UNL     1       0.819   8.958  19.957  0.00  0.00    +0.000 HD
BRANCH   8  17
ATOM     12  C   UNL     1      -3.308  11.477  17.850  0.00  0.00    +0.000 C 
ATOM     13  C   UNL     1      -1.873  11.625  18.269  0.00  0.00    +0.000 A 
ATOM     14  C   UNL     1      -1.299  12.895  18.380  0.00  0.00    +0.000 A 
ATOM     15  C   UNL     1       0.048  13.024  18.707  0.00  0.00    +0.000 A 
ATOM     16  C   UNL     1       0.835  11.889  18.924  0.00  0.00    +0.000 A 
ATOM     17  C   UNL     1       0.281  10.610  18.843  0.00  0.00    +0.000 A 
ATOM     18  C   UNL     1      -1.082  10.490  18.527  0.00  0.00    +0.000 A 
ENDBRANCH   8  17
ENDBRANCH   1   9
BRANCH   3  19
ATOM     19  S   UNL     1       5.817   5.496  17.077  0.00  0.00    +0.000 S 
ATOM     20  O   UNL     1       6.248   6.664  16.344  0.00  0.00    +0.000 OA
ATOM     21  O   UNL     1       6.740   4.766  17.923  0.00  0.00    +0.000 OA
BRANCH  19  22
ATOM     22  N   UNL     1       5.119   4.386  15.986  0.00  0.00    +0.000 NA
ATOM     23  C   UNL     1       5.646   4.410  14.610  0.00  0.00    +0.000 C 
BRANCH  22  24
ATOM     24  C   UNL     1       4.832   3.041  16.541  0.00  0.00    +0.000 C 
BRANCH  24  25
ATOM     25  C   UNL     1       3.523   2.886  17.296  0.00  0.00    +0.000 A 
ATOM     26  C   UNL     1       3.419   1.944  18.332  0.00  0.00    +0.000 A 
ATOM     27  C   UNL     1       2.256   1.856  19.103  0.00  0.00    +0.000 A 
ATOM     28  C   UNL     1       1.182   2.703  18.846  0.00  0.00    +0.000 A 
ATOM     29  C   UNL     1       1.263   3.631  17.810  0.00  0.00    +0.000 A 
ATOM     30  C   UNL     1       2.427   3.724  17.039  0.00  0.00    +0.000 A 
ENDBRANCH  24  25
ENDBRANCH  22  24
ENDBRANCH  19  22
ENDBRANCH   3  19
TORSDOF 6
ENDMDL
MODEL 4
REMARK VINA RESULT:      -8.3      3.190      4.535
REMARK  Name = 
REMARK  8 active torsions:
REMARK  status: ('A' for Active; 'I' for Inactive)
REMARK    1  A    between atoms: C_1  and  C_2
REMARK    2  A    between atoms: C_6  and  N_7
REMARK    3  A    between atoms: C_8  and  C_10
REMARK    4  A    between atoms: C_12  and  S_13
REMARK    5  A    between atoms: S_13  and  N_16
REMARK    6  A    between atoms: N_16  and  C_17
REMARK    7  A    between atoms: N_16  and  C_18
REMARK    8  A    between atoms: C_18  and  C_19
REMARK                            x       y       z     vdW  Elec       q    Type
REMARK                         _______ _______ _______ _____ _____    ______ ____
ROOT
ATOM      1  C   UNL     1       1.700   8.063  20.006  0.00  0.00    +0.000 A 
ATOM      2  C   UNL     1       1.763   6.704  20.411  0.00  0.00    +0.000 A 
ATOM      3  C   UNL     1       2.188   5.698  19.535  0.00  0.00    +0.000 A 
ATOM      4  C   UNL     1       2.517   6.020  18.219  0.00  0.00    +0.000 A 
ATOM      5  C   UNL     1       2.466   7.351  17.803  0.00  0.00    +0.000 A 
ATOM      6  C   UNL     1       2.069   8.372  18.685  0.00  0.00    +0.000 A 
ATOM      7 CL   UNL     1       2.068   9.965  18.011  0.00  0.00    +0.000 Cl
ENDROOT
BRANCH   1   9
ATOM      8  N   UNL     1       0.438  10.110  20.668  0.00  0.00    +0.000 N 
ATOM      9  C   UNL     1       1.214   9.031  21.056  0.00  0.00    +0.000 C 
ATOM     10  O   UNL     1       1.573   8.820  22.213  0.00  0.00    +0.000 OA
ATOM     11  H   UNL     1       0.290  10.252  19.675  0.00  0.00    +0.000 HD
BRANCH   8  17
ATOM     12  C   UNL     1       0.186  14.858  22.020  0.00  0.00    +0.000 C 
ATOM     13  C   UNL     1      -0.301  13.443  22.152  0.00  0.00    +0.000 A 
ATOM     14  C   UNL     1      -1.275  13.120  23.101  0.00  0.00    +0.000 A 
ATOM     15  C   UNL     1      -1.679  11.797  23.263  0.00  0.00    +0.000 A 
ATOM     16  C   UNL     1      -1.113  10.785  22.481  0.00  0.00    +0.000 A 
ATOM     17  C   UNL     1      -0.156  11.085  21.510  0.00  0.00    +0.000 A 
ATOM     18  C   UNL     1       0.234  12.424  21.345  0.00  0.00    +0.000 A 
ENDBRANCH   8  17
ENDBRANCH   1   9
BRANCH   3  19
ATOM     19  S   UNL     1       2.167   3.976  20.037  0.00  0.00    +0.000 S 
ATOM     20  O   UNL     1       2.060   3.949  21.478  0.00  0.00    +0.000 OA
ATOM     21  O   UNL     1       1.176   3.324  19.206  0.00  0.00    +0.000 OA
BRANCH  19  22
ATOM     22  N   UNL     1       3.701   3.382  19.586  0.00  0.00    +0.000 NA
ATOM     23  C   UNL     1       4.285   2.358  20.470  0.00  0.00    +0.000 C 
BRANCH  22  24
ATOM     24  C   UNL     1       3.898   3.166  18.133  0.00  0.00    +0.000 C 
BRANCH  24  25
ATOM     25  C   UNL     1       5.001   3.973  17.472  0.00  0.00    +0.000 A 
ATOM     26  C   UNL     1       4.977   4.189  16.084  0.00  0.00    +0.000 A 
ATOM     27  C   UNL     1       5.926   5.013  15.473  0.00  0.00    +0.000 A 
ATOM     28  C   UNL     1       6.915   5.626  16.237  0.00  0.00    +0.000 A 
ATOM     29  C   UNL     1       6.963   5.408  17.613  0.00  0.00    +0.000 A 
ATOM     30  C   UNL     1       6.012   4.588  18.228  0.00  0.00    +0.000 A 
ENDBRANCH  24  25
ENDBRANCH  22  24
ENDBRANCH  19  22
ENDBRANCH   3  19
TORSDOF 6
ENDMDL
MODEL 5
REMARK VINA RESULT:      -8.3      2.558      4.541
REMARK  Name = 
REMARK  8 active torsions:
REMARK  status: ('A' for Active; 'I' for Inactive)
REMARK    1  A    between atoms: C_1  and  C_2
REMARK    2  A    between atoms: C_6  and  N_7
REMARK    3  A    between atoms: C_8  and  C_10
REMARK    4  A    between atoms: C_12  and  S_13
REMARK    5  A    between atoms: S_13  and  N_16
REMARK    6  A    between atoms: N_16  and  C_17
REMARK    7  A    between atoms: N_16  and  C_18
REMARK    8  A    between atoms: C_18  and  C_19
REMARK                            x       y       z     vdW  Elec       q    Type
REMARK                         _______ _______ _______ _____ _____    ______ ____
ROOT
ATOM      1  C   UNL     1       2.455   7.798  18.560  0.00  0.00    +0.000 A 
ATOM      2  C   UNL     1       3.458   7.346  17.662  0.00  0.00    +0.000 A 
ATOM      3  C   UNL     1       4.319   6.294  17.996  0.00  0.00    +0.000 A 
ATOM      4  C   UNL     1       4.229   5.698  19.253  0.00  0.00    +0.000 A 
ATOM      5  C   UNL     1       3.246   6.124  20.148  0.00  0.00    +0.000 A 
ATOM      6  C   UNL     1       2.358   7.160  19.810  0.00  0.00    +0.000 A 
ATOM      7 CL   UNL     1       1.198   7.560  21.029  0.00  0.00    +0.000 Cl
ENDROOT
BRANCH   1   9
ATOM      8  N   UNL     1       0.255   8.954  18.345  0.00  0.00    +0.000 N 
ATOM      9  C   UNL     1       1.611   8.946  18.066  0.00  0.00    +0.000 C 
ATOM     10  O   UNL     1       2.184   9.807  17.399  0.00  0.00    +0.000 OA
ATOM     11  H   UNL     1      -0.135   8.140  18.809  0.00  0.00    +0.000 HD
BRANCH   8  17
ATOM     12  C   UNL     1      -3.434  10.434  15.408  0.00  0.00    +0.000 C 
ATOM     13  C   UNL     1      -2.531  10.682  16.582  0.00  0.00    +0.000 A 
ATOM     14  C   UNL     1      -2.605  11.888  17.285  0.00  0.00    +0.000 A 
ATOM     15  C   UNL     1      -1.723  12.138  18.333  0.00  0.00    +0.000 A 
ATOM     16  C   UNL     1      -0.759  11.190  18.688  0.00  0.00    +0.000 A 
ATOM     17  C   UNL     1      -0.680   9.968  18.018  0.00  0.00    +0.000 A 
ATOM     18  C   UNL     1      -1.583   9.718  16.972  0.00  0.00    +0.000 A 
ENDBRANCH   8  17
ENDBRANCH   1   9
BRANCH   3  19
ATOM     19  S   UNL     1       5.642   5.805  16.887  0.00  0.00    +0.000 S 
ATOM     20  O   UNL     1       5.924   6.934  16.029  0.00  0.00    +0.000 OA
ATOM     21  O   UNL     1       6.678   5.228  17.721  0.00  0.00    +0.000 OA
BRANCH  19  22
ATOM     22  N   UNL     1       4.968   4.551  15.947  0.00  0.00    +0.000 NA
ATOM     23  C   UNL     1       5.400   4.494  14.539  0.00  0.00    +0.000 C 
BRANCH  22  24
ATOM     24  C   UNL     1       4.833   3.244  16.633  0.00  0.00    +0.000 C 
BRANCH  24  25
ATOM     25  C   UNL     1       3.573   3.039  17.456  0.00  0.00    +0.000 A 
ATOM     26  C   UNL     1       3.609   2.229  18.603  0.00  0.00    +0.000 A 
ATOM     27  C   UNL     1       2.487   2.110  19.428  0.00  0.00    +0.000 A 
ATOM     28  C   UNL     1       1.315   2.792  19.116  0.00  0.00    +0.000 A 
ATOM     29  C   UNL     1       1.257   3.585  17.972  0.00  0.00    +0.000 A 
ATOM     30  C   UNL     1       2.379   3.710  17.146  0.00  0.00    +0.000 A 
ENDBRANCH  24  25
ENDBRANCH  22  24
ENDBRANCH  19  22
ENDBRANCH   3  19
TORSDOF 6
ENDMDL
MODEL 6
REMARK VINA RESULT:      -8.1      1.894      2.658
REMARK  Name = 
REMARK  8 active torsions:
REMARK  status: ('A' for Active; 'I' for Inactive)
REMARK    1  A    between atoms: C_1  and  C_2
REMARK    2  A    between atoms: C_6  and  N_7
REMARK    3  A    between atoms: C_8  and  C_10
REMARK    4  A    between atoms: C_12  and  S_13
REMARK    5  A    between atoms: S_13  and  N_16
REMARK    6  A    between atoms: N_16  and  C_17
REMARK    7  A    between atoms: N_16  and  C_18
REMARK    8  A    between atoms: C_18  and  C_19
REMARK                            x       y       z     vdW  Elec       q    Type
REMARK                         _______ _______ _______ _____ _____    ______ ____
ROOT
ATOM      1  C   UNL     1       2.593   7.057  19.047  0.00  0.00    +0.000 A 
ATOM      2  C   UNL     1       3.622   7.294  18.098  0.00  0.00    +0.000 A 
ATOM      3  C   UNL     1       4.512   6.284  17.715  0.00  0.00    +0.000 A 
ATOM      4  C   UNL     1       4.425   5.025  18.306  0.00  0.00    +0.000 A 
ATOM      5  C   UNL     1       3.419   4.770  19.239  0.00  0.00    +0.000 A 
ATOM      6  C   UNL     1       2.502   5.770  19.607  0.00  0.00    +0.000 A 
ATOM      7 CL   UNL     1       1.314   5.285  20.768  0.00  0.00    +0.000 Cl
ENDROOT
BRANCH   1   9
ATOM      8  N   UNL     1       1.427   9.154  18.367  0.00  0.00    +0.000 N 
ATOM      9  C   UNL     1       1.719   8.243  19.367  0.00  0.00    +0.000 C 
ATOM     10  O   UNL     1       1.338   8.351  20.532  0.00  0.00    +0.000 OA
ATOM     11  H   UNL     1       1.881   9.029  17.469  0.00  0.00    +0.000 HD
BRANCH   8  17
ATOM     12  C   UNL     1      -3.104  11.040  17.782  0.00  0.00    +0.000 C 
ATOM     13  C   UNL     1      -1.672  11.209  18.203  0.00  0.00    +0.000 A 
ATOM     14  C   UNL     1      -1.208  12.456  18.632  0.00  0.00    +0.000 A 
ATOM     15  C   UNL     1       0.135  12.623  18.962  0.00  0.00    +0.000 A 
ATOM     16  C   UNL     1       1.026  11.550  18.865  0.00  0.00    +0.000 A 
ATOM     17  C   UNL     1       0.582  10.289  18.462  0.00  0.00    +0.000 A 
ATOM     18  C   UNL     1      -0.776  10.127  18.145  0.00  0.00    +0.000 A 
ENDBRANCH   8  17
ENDBRANCH   1   9
BRANCH   3  19
ATOM     19  S   UNL     1       5.863   6.632  16.588  0.00  0.00    +0.000 S 
ATOM     20  O   UNL     1       5.284   6.900  15.291  0.00  0.00    +0.000 OA
ATOM     21  O   UNL     1       6.698   7.616  17.247  0.00  0.00    +0.000 OA
BRANCH  19  22
ATOM     22  N   UNL     1       6.740   5.171  16.510  0.00  0.00    +0.000 NA
ATOM     23  C   UNL     1       7.412   4.750  17.752  0.00  0.00    +0.000 C 
BRANCH  22  24
ATOM     24  C   UNL     1       6.102   4.087  15.724  0.00  0.00    +0.000 C 
BRANCH  24  25
ATOM     25  C   UNL     1       6.429   4.043  14.242  0.00  0.00    +0.000 A 
ATOM     26  C   UNL     1       5.643   3.269  13.373  0.00  0.00    +0.000 A 
ATOM     27  C   UNL     1       5.865   3.295  11.993  0.00  0.00    +0.000 A 
ATOM     28  C   UNL     1       6.878   4.090  11.464  0.00  0.00    +0.000 A 
ATOM     29  C   UNL     1       7.678   4.851  12.315  0.00  0.00    +0.000 A 
ATOM     30  C   UNL     1       7.456   4.829  13.695  0.00  0.00    +0.000 A 
ENDBRANCH  24  25
ENDBRANCH  22  24
ENDBRANCH  19  22
ENDBRANCH   3  19
TORSDOF 6
ENDMDL
MODEL 7
REMARK VINA RESULT:      -8.1      1.686      2.164
REMARK  Name = 
REMARK  8 active torsions:
REMARK  status: ('A' for Active; 'I' for Inactive)
REMARK    1  A    between atoms: C_1  and  C_2
REMARK    2  A    between atoms: C_6  and  N_7
REMARK    3  A    between atoms: C_8  and  C_10
REMARK    4  A    between atoms: C_12  and  S_13
REMARK    5  A    between atoms: S_13  and  N_16
REMARK    6  A    between atoms: N_16  and  C_17
REMARK    7  A    between atoms: N_16  and  C_18
REMARK    8  A    between atoms: C_18  and  C_19
REMARK                            x       y       z     vdW  Elec       q    Type
REMARK                         _______ _______ _______ _____ _____    ______ ____
ROOT
ATOM      1  C   UNL     1       2.533   6.682  19.141  0.00  0.00    +0.000 A 
ATOM      2  C   UNL     1       3.567   7.047  18.240  0.00  0.00    +0.000 A 
ATOM      3  C   UNL     1       4.381   6.084  17.632  0.00  0.00    +0.000 A 
ATOM      4  C   UNL     1       4.212   4.737  17.945  0.00  0.00    +0.000 A 
ATOM      5  C   UNL     1       3.197   4.357  18.825  0.00  0.00    +0.000 A 
ATOM      6  C   UNL     1       2.355   5.315  19.418  0.00  0.00    +0.000 A 
ATOM      7 CL   UNL     1       1.147   4.675  20.477  0.00  0.00    +0.000 Cl
ENDROOT
BRANCH   1   9
ATOM      8  N   UNL     1       1.405   8.895  18.911  0.00  0.00    +0.000 N 
ATOM      9  C   UNL     1       1.746   7.829  19.725  0.00  0.00    +0.000 C 
ATOM     10  O   UNL     1       1.480   7.763  20.924  0.00  0.00    +0.000 OA
ATOM     11  H   UNL     1       1.768   8.900  17.964  0.00  0.00    +0.000 HD
BRANCH   8  17
ATOM     12  C   UNL     1      -2.756  11.470  18.215  0.00  0.00    +0.000 C 
ATOM     13  C   UNL     1      -1.454  11.279  18.939  0.00  0.00    +0.000 A 
ATOM     14  C   UNL     1      -1.034  12.213  19.890  0.00  0.00    +0.000 A 
ATOM     15  C   UNL     1       0.203  12.065  20.513  0.00  0.00    +0.000 A 
ATOM     16  C   UNL     1       1.032  10.985  20.192  0.00  0.00    +0.000 A 
ATOM     17  C   UNL     1       0.625  10.026  19.263  0.00  0.00    +0.000 A 
ATOM     18  C   UNL     1      -0.630  10.176  18.651  0.00  0.00    +0.000 A 
ENDBRANCH   8  17
ENDBRANCH   1   9
BRANCH   3  19
ATOM     19  S   UNL     1       5.745   6.573  16.573  0.00  0.00    +0.000 S 
ATOM     20  O   UNL     1       5.199   6.832  15.260  0.00  0.00    +0.000 OA
ATOM     21  O   UNL     1       6.469   7.601  17.293  0.00  0.00    +0.000 OA
BRANCH  19  22
ATOM     22  N   UNL     1       6.740   5.190  16.494  0.00  0.00    +0.000 NA
ATOM     23  C   UNL     1       7.466   4.842  17.729  0.00  0.00    +0.000 C 
BRANCH  22  24
ATOM     24  C   UNL     1       6.183   4.048  15.731  0.00  0.00    +0.000 C 
BRANCH  24  25
ATOM     25  C   UNL     1       6.386   4.075  14.226  0.00  0.00    +0.000 A 
ATOM     26  C   UNL     1       7.426   4.838  13.673  0.00  0.00    +0.000 A 
ATOM     27  C   UNL     1       7.691   4.796  12.301  0.00  0.00    +0.000 A 
ATOM     28  C   UNL     1       6.916   3.998  11.464  0.00  0.00    +0.000 A 
ATOM     29  C   UNL     1       5.868   3.249  11.995  0.00  0.00    +0.000 A 
ATOM     30  C   UNL     1       5.604   3.285  13.368  0.00  0.00    +0.000 A 
ENDBRANCH  24  25
ENDBRANCH  22  24
ENDBRANCH  19  22
ENDBRANCH   3  19
TORSDOF 6
ENDMDL
MODEL 8
REMARK VINA RESULT:      -8.1      1.426      1.715
REMARK  Name = 
REMARK  8 active torsions:
REMARK  status: ('A' for Active; 'I' for Inactive)
REMARK    1  A    between atoms: C_1  and  C_2
REMARK    2  A    between atoms: C_6  and  N_7
REMARK    3  A    between atoms: C_8  and  C_10
REMARK    4  A    between atoms: C_12  and  S_13
REMARK    5  A    between atoms: S_13  and  N_16
REMARK    6  A    between atoms: N_16  and  C_17
REMARK    7  A    between atoms: N_16  and  C_18
REMARK    8  A    between atoms: C_18  and  C_19
REMARK                            x       y       z     vdW  Elec       q    Type
REMARK                         _______ _______ _______ _____ _____    ______ ____
ROOT
ATOM      1  C   UNL     1       2.526   5.567  19.164  0.00  0.00    +0.000 A 
ATOM      2  C   UNL     1       3.558   6.223  18.443  0.00  0.00    +0.000 A 
ATOM      3  C   UNL     1       4.304   5.558  17.463  0.00  0.00    +0.000 A 
ATOM      4  C   UNL     1       4.067   4.207  17.212  0.00  0.00    +0.000 A 
ATOM      5  C   UNL     1       3.053   3.545  17.906  0.00  0.00    +0.000 A 
ATOM      6  C   UNL     1       2.279   4.214  18.871  0.00  0.00    +0.000 A 
ATOM      7 CL   UNL     1       1.061   3.250  19.633  0.00  0.00    +0.000 Cl
ENDROOT
BRANCH   1   9
ATOM      8  N   UNL     1       1.701   7.773  19.987  0.00  0.00    +0.000 N 
ATOM      9  C   UNL     1       1.818   6.410  20.195  0.00  0.00    +0.000 C 
ATOM     10  O   UNL     1       1.409   5.827  21.199  0.00  0.00    +0.000 OA
ATOM     11  H   UNL     1       2.169   8.167  19.177  0.00  0.00    +0.000 HD
BRANCH   8  17
ATOM     12  C   UNL     1      -1.194  11.771  20.237  0.00  0.00    +0.000 C 
ATOM     13  C   UNL     1      -0.438  10.670  20.926  0.00  0.00    +0.000 A 
ATOM     14  C   UNL     1      -0.390  10.617  22.322  0.00  0.00    +0.000 A 
ATOM     15  C   UNL     1       0.363   9.632  22.955  0.00  0.00    +0.000 A 
ATOM     16  C   UNL     1       1.076   8.693  22.202  0.00  0.00    +0.000 A 
ATOM     17  C   UNL     1       1.024   8.710  20.808  0.00  0.00    +0.000 A 
ATOM     18  C   UNL     1       0.251   9.699  20.178  0.00  0.00    +0.000 A 
ENDBRANCH   8  17
ENDBRANCH   1   9
BRANCH   3  19
ATOM     19  S   UNL     1       5.667   6.377  16.634  0.00  0.00    +0.000 S 
ATOM     20  O   UNL     1       5.214   6.734  15.310  0.00  0.00    +0.000 OA
ATOM     21  O   UNL     1       6.151   7.389  17.552  0.00  0.00    +0.000 OA
BRANCH  19  22
ATOM     22  N   UNL     1       6.870   5.175  16.501  0.00  0.00    +0.000 NA
ATOM     23  C   UNL     1       7.623   4.872  17.731  0.00  0.00    +0.000 C 
BRANCH  22  24
ATOM     24  C   UNL     1       6.512   4.006  15.662  0.00  0.00    +0.000 C 
BRANCH  24  25
ATOM     25  C   UNL     1       6.667   4.177  14.161  0.00  0.00    +0.000 A 
ATOM     26  C   UNL     1       7.605   5.090  13.653  0.00  0.00    +0.000 A 
ATOM     27  C   UNL     1       7.833   5.189  12.277  0.00  0.00    +0.000 A 
ATOM     28  C   UNL     1       7.123   4.382  11.392  0.00  0.00    +0.000 A 
ATOM     29  C   UNL     1       6.176   3.484  11.880  0.00  0.00    +0.000 A 
ATOM     30  C   UNL     1       5.949   3.380  13.256  0.00  0.00    +0.000 A 
ENDBRANCH  24  25
ENDBRANCH  22  24
ENDBRANCH  19  22
ENDBRANCH   3  19
TORSDOF 6
ENDMDL
MODEL 9
REMARK VINA RESULT:      -7.9      1.160      1.696
REMARK  Name = 
REMARK  8 active torsions:
REMARK  status: ('A' for Active; 'I' for Inactive)
REMARK    1  A    between atoms: C_1  and  C_2
REMARK    2  A    between atoms: C_6  and  N_7
REMARK    3  A    between atoms: C_8  and  C_10
REMARK    4  A    between atoms: C_12  and  S_13
REMARK    5  A    between atoms: S_13  and  N_16
REMARK    6  A    between atoms: N_16  and  C_17
REMARK    7  A    between atoms: N_16  and  C_18
REMARK    8  A    between atoms: C_18  and  C_19
REMARK                            x       y       z     vdW  Elec       q    Type
REMARK                         _______ _______ _______ _____ _____    ______ ____
ROOT
ATOM      1  C   UNL     1       3.281   5.794  19.118  0.00  0.00    +0.000 A 
ATOM      2  C   UNL     1       4.616   5.992  18.677  0.00  0.00    +0.000 A 
ATOM      3  C   UNL     1       5.545   4.945  18.663  0.00  0.00    +0.000 A 
ATOM      4  C   UNL     1       5.176   3.686  19.134  0.00  0.00    +0.000 A 
ATOM      5  C   UNL     1       3.867   3.470  19.568  0.00  0.00    +0.000 A 
ATOM      6  C   UNL     1       2.919   4.508  19.557  0.00  0.00    +0.000 A 
ATOM      7 CL   UNL     1       1.343   4.069  20.121  0.00  0.00    +0.000 Cl
ENDROOT
BRANCH   1   9
ATOM      8  N   UNL     1       2.015   7.603  20.280  0.00  0.00    +0.000 N 
ATOM      9  C   UNL     1       2.399   7.017  19.086  0.00  0.00    +0.000 C 
ATOM     10  O   UNL     1       2.035   7.407  17.977  0.00  0.00    +0.000 OA
ATOM     11  H   UNL     1       2.282   7.137  21.141  0.00  0.00    +0.000 HD
BRANCH   8  17
ATOM     12  C   UNL     1      -0.921  10.283  23.216  0.00  0.00    +0.000 C 
ATOM     13  C   UNL     1      -0.181  10.121  21.919  0.00  0.00    +0.000 A 
ATOM     14  C   UNL     1      -0.296  11.091  20.918  0.00  0.00    +0.000 A 
ATOM     15  C   UNL     1       0.341  10.906  19.694  0.00  0.00    +0.000 A 
ATOM     16  C   UNL     1       1.095   9.753  19.456  0.00  0.00    +0.000 A 
ATOM     17  C   UNL     1       1.245   8.781  20.447  0.00  0.00    +0.000 A 
ATOM     18  C   UNL     1       0.610   8.983  21.684  0.00  0.00    +0.000 A 
ENDBRANCH   8  17
ENDBRANCH   1   9
BRANCH   3  19
ATOM     19  S   UNL     1       7.251   5.240  18.194  0.00  0.00    +0.000 S 
ATOM     20  O   UNL     1       7.830   6.105  19.197  0.00  0.00    +0.000 OA
ATOM     21  O   UNL     1       7.825   3.939  17.913  0.00  0.00    +0.000 OA
BRANCH  19  22
ATOM     22  N   UNL     1       7.147   6.094  16.721  0.00  0.00    +0.000 NA
ATOM     23  C   UNL     1       7.199   7.564  16.819  0.00  0.00    +0.000 C 
BRANCH  22  24
ATOM     24  C   UNL     1       7.890   5.498  15.585  0.00  0.00    +0.000 C 
BRANCH  24  25
ATOM     25  C   UNL     1       7.054   4.892  14.472  0.00  0.00    +0.000 A 
ATOM     26  C   UNL     1       7.563   4.833  13.165  0.00  0.00    +0.000 A 
ATOM     27  C   UNL     1       6.851   4.189  12.149  0.00  0.00    +0.000 A 
ATOM     28  C   UNL     1       5.619   3.603  12.424  0.00  0.00    +0.000 A 
ATOM     29  C   UNL     1       5.091   3.668  13.712  0.00  0.00    +0.000 A 
ATOM     30  C   UNL     1       5.804   4.308  14.732  0.00  0.00    +0.000 A 
ENDBRANCH  24  25
ENDBRANCH  22  24
ENDBRANCH  19  22
ENDBRANCH   3  19
TORSDOF 6
ENDMDL
