MODEL 1
REMARK VINA RESULT:      -8.7      0.000      0.000
REMARK  Name = 
REMARK  4 active torsions:
REMARK  status: ('A' for Active; 'I' for Inactive)
REMARK    1  A    between atoms: C_2  and  C_10
REMARK    2  A    between atoms: N_3  and  C_4
REMARK    3  A    between atoms: C_13  and  C_14
REMARK    4  A    between atoms: C_14  and  N_15
REMARK                            x       y       z     vdW  Elec       q    Type
REMARK                         _______ _______ _______ _____ _____    ______ ____
ROOT
ATOM      1  C   UNL     1       8.012   8.225  18.171  0.00  0.00    +0.000 A 
ATOM      2  C   UNL     1       7.077   7.983  17.155  0.00  0.00    +0.000 A 
ATOM      3  C   UNL     1       6.537   6.703  16.977  0.00  0.00    +0.000 A 
ATOM      4  C   UNL     1       6.917   5.646  17.815  0.00  0.00    +0.000 A 
ATOM      5  C   UNL     1       7.865   5.892  18.824  0.00  0.00    +0.000 A 
ATOM      6  C   UNL     1       8.412   7.172  19.002  0.00  0.00    +0.000 A 
ENDROOT
BRANCH   1   8
ATOM      7  O   UNL     1       8.192  10.440  17.482  0.00  0.00    +0.000 OA
ATOM      8  C   UNL     1       8.512   9.621  18.338  0.00  0.00    +0.000 C 
ATOM      9  N   UNL     1       9.346   9.841  19.422  0.00  0.00    +0.000 N 
ATOM     10  H   UNL     1       9.654   9.028  19.940  0.00  0.00    +0.000 HD
BRANCH   9  11
ATOM     11  C   UNL     1       9.958  11.069  19.766  0.00  0.00    +0.000 A 
ATOM     12  C   UNL     1       9.488  11.915  20.777  0.00  0.00    +0.000 A 
ATOM     13  C   UNL     1      10.122  13.134  21.043  0.00  0.00    +0.000 A 
ATOM     14  C   UNL     1      11.236  13.521  20.305  0.00  0.00    +0.000 A 
ATOM     15  C   UNL     1      11.727  12.680  19.310  0.00  0.00    +0.000 A 
ATOM     16  C   UNL     1      11.096  11.457  19.049  0.00  0.00    +0.000 A 
ENDBRANCH   9  11
ENDBRANCH   1   8
BRANCH   4  17
ATOM     17  C   UNL     1       6.352   4.251  17.594  0.00  0.00    +0.000 C 
BRANCH  17  18
ATOM     18  N   UNL     1       4.997   4.183  18.104  0.00  0.00    +0.000 N 
ATOM     19  C   UNL     1       4.688   4.022  19.422  0.00  0.00    +0.000 C 
ATOM     20  O   UNL     1       5.469   3.741  20.319  0.00  0.00    +0.000 OA
ATOM     21  C   UNL     1       3.213   4.302  19.612  0.00  0.00    +0.000 C 
ATOM     22  C   UNL     1       2.527   3.303  20.541  0.00  0.00    +0.000 C 
ATOM     23  C   UNL     1       1.441   2.479  19.932  0.00  0.00    +0.000 C 
ATOM     24  C   UNL     1       0.959   2.660  18.699  0.00  0.00    +0.000 C 
ATOM     25  C   UNL     1       1.437   3.712  17.755  0.00  0.00    +0.000 C 
ATOM     26  C   UNL     1       2.686   4.474  18.184  0.00  0.00    +0.000 C 
ATOM     27  C   UNL     1       3.890   4.203  17.313  0.00  0.00    +0.000 C 
ATOM     28  O   UNL     1       3.870   4.091  16.096  0.00  0.00    +0.000 OA
ENDBRANCH  17  18
ENDBRANCH   4  17
TORSDOF 4
ENDMDL
MODEL 2
REMARK VINA RESULT:      -8.4      0.243      1.333
REMARK  Name = 
REMARK  4 active torsions:
REMARK  status: ('A' for Active; 'I' for Inactive)
REMARK    1  A    between atoms: C_2  and  C_10
REMARK    2  A    between atoms: N_3  and  C_4
REMARK    3  A    between atoms: C_13  and  C_14
REMARK    4  A    between atoms: C_14  and  N_15
REMARK                            x       y       z     vdW  Elec       q    Type
REMARK                         _______ _______ _______ _____ _____    ______ ____
ROOT
ATOM      1  C   UNL     1       7.800   8.142  18.012  0.00  0.00    +0.000 A 
ATOM      2  C   UNL     1       8.255   7.123  18.860  0.00  0.00    +0.000 A 
ATOM      3  C   UNL     1       7.778   5.814  18.717  0.00  0.00    +0.000 A 
ATOM      4  C   UNL     1       6.843   5.501  17.720  0.00  0.00    +0.000 A 
ATOM      5  C   UNL     1       6.381   6.530  16.881  0.00  0.00    +0.000 A 
ATOM      6  C   UNL     1       6.853   7.844  17.025  0.00  0.00    +0.000 A 
ENDROOT
BRANCH   1   8
ATOM      7  O   UNL     1       8.096  10.352  17.347  0.00  0.00    +0.000 OA
ATOM      8  C   UNL     1       8.384   9.504  18.186  0.00  0.00    +0.000 C 
ATOM      9  N   UNL     1       9.252   9.660  19.255  0.00  0.00    +0.000 N 
ATOM     10  H   UNL     1       9.523   8.824  19.756  0.00  0.00    +0.000 HD
BRANCH   9  11
ATOM     11  C   UNL     1       9.942  10.846  19.601  0.00  0.00    +0.000 A 
ATOM     12  C   UNL     1      11.058  11.326  18.906  0.00  0.00    +0.000 A 
ATOM     13  C   UNL     1      11.715  12.489  19.322  0.00  0.00    +0.000 A 
ATOM     14  C   UNL     1      11.263  13.190  20.437  0.00  0.00    +0.000 A 
ATOM     15  C   UNL     1      10.142  12.735  21.127  0.00  0.00    +0.000 A 
ATOM     16  C   UNL     1       9.480  11.574  20.705  0.00  0.00    +0.000 A 
ENDBRANCH   9  11
ENDBRANCH   1   8
BRANCH   4  17
ATOM     17  C   UNL     1       6.304   4.085  17.593  0.00  0.00    +0.000 C 
BRANCH  17  18
ATOM     18  N   UNL     1       4.956   4.023  18.123  0.00  0.00    +0.000 N 
ATOM     19  C   UNL     1       4.663   3.748  19.426  0.00  0.00    +0.000 C 
ATOM     20  O   UNL     1       5.447   3.349  20.274  0.00  0.00    +0.000 OA
ATOM     21  C   UNL     1       3.205   4.069  19.673  0.00  0.00    +0.000 C 
ATOM     22  C   UNL     1       2.493   3.013  20.516  0.00  0.00    +0.000 C 
ATOM     23  C   UNL     1       1.362   2.297  19.854  0.00  0.00    +0.000 C 
ATOM     24  C   UNL     1       0.867   2.617  18.655  0.00  0.00    +0.000 C 
ATOM     25  C   UNL     1       1.374   3.736  17.807  0.00  0.00    +0.000 C 
ATOM     26  C   UNL     1       2.661   4.400  18.281  0.00  0.00    +0.000 C 
ATOM     27  C   UNL     1       3.837   4.166  17.361  0.00  0.00    +0.000 C 
ATOM     28  O   UNL     1       3.792   4.174  16.141  0.00  0.00    +0.000 OA
ENDBRANCH  17  18
ENDBRANCH   4  17
TORSDOF 4
ENDMDL
MODEL 3
REMARK VINA RESULT:      -8.3      0.451      1.033
REMARK  Name = 
REMARK  4 active torsions:
REMARK  status: ('A' for Active; 'I' for Inactive)
REMARK    1  A    between atoms: C_2  and  C_10
REMARK    2  A    between atoms: N_3  and  C_4
REMARK    3  A    between atoms: C_13  and  C_14
REMARK    4  A    between atoms: C_14  and  N_15
REMARK                            x       y       z     vdW  Elec       q    Type
REMARK                         _______ _______ _______ _____ _____    ______ ____
ROOT
ATOM      1  C   UNL     1       8.064   8.556  18.109  0.00  0.00    +0.000 A 
ATOM      2  C   UNL     1       8.526   7.548  18.967  0.00  0.00    +0.000 A 
ATOM      3  C   UNL     1       8.083   6.228  18.816  0.00  0.00    +0.000 A 
ATOM      4  C   UNL     1       7.175   5.892  17.802  0.00  0.00    +0.000 A 
ATOM      5  C   UNL     1       6.705   6.910  16.953  0.00  0.00    +0.000 A 
ATOM      6  C   UNL     1       7.143   8.235  17.105  0.00  0.00    +0.000 A 
ENDROOT
BRANCH   1   8
ATOM      7  O   UNL     1       8.122  10.828  17.614  0.00  0.00    +0.000 OA
ATOM      8  C   UNL     1       8.612   9.931  18.293  0.00  0.00    +0.000 C 
ATOM      9  N   UNL     1       9.673  10.048  19.177  0.00  0.00    +0.000 N 
ATOM     10  H   UNL     1      10.076   9.191  19.531  0.00  0.00    +0.000 HD
BRANCH   9  11
ATOM     11  C   UNL     1      10.367  11.240  19.491  0.00  0.00    +0.000 A 
ATOM     12  C   UNL     1       9.895  12.200  20.393  0.00  0.00    +0.000 A 
ATOM     13  C   UNL     1      10.617  13.375  20.633  0.00  0.00    +0.000 A 
ATOM     14  C   UNL     1      11.822  13.604  19.976  0.00  0.00    +0.000 A 
ATOM     15  C   UNL     1      12.314  12.649  19.089  0.00  0.00    +0.000 A 
ATOM     16  C   UNL     1      11.594  11.470  18.856  0.00  0.00    +0.000 A 
ENDBRANCH   9  11
ENDBRANCH   1   8
BRANCH   4  17
ATOM     17  C   UNL     1       6.672   4.464  17.666  0.00  0.00    +0.000 C 
BRANCH  17  18
ATOM     18  N   UNL     1       5.282   4.392  18.071  0.00  0.00    +0.000 N 
ATOM     19  C   UNL     1       4.869   4.372  19.370  0.00  0.00    +0.000 C 
ATOM     20  O   UNL     1       5.581   4.234  20.353  0.00  0.00    +0.000 OA
ATOM     21  C   UNL     1       3.374   4.602  19.407  0.00  0.00    +0.000 C 
ATOM     22  C   UNL     1       2.649   3.687  20.392  0.00  0.00    +0.000 C 
ATOM     23  C   UNL     1       1.650   2.747  19.802  0.00  0.00    +0.000 C 
ATOM     24  C   UNL     1       1.268   2.760  18.522  0.00  0.00    +0.000 C 
ATOM     25  C   UNL     1       1.785   3.717  17.500  0.00  0.00    +0.000 C 
ATOM     26  C   UNL     1       2.963   4.581  17.932  0.00  0.00    +0.000 C 
ATOM     27  C   UNL     1       4.245   4.267  17.198  0.00  0.00    +0.000 C 
ATOM     28  O   UNL     1       4.333   4.014  16.006  0.00  0.00    +0.000 OA
ENDBRANCH  17  18
ENDBRANCH   4  17
TORSDOF 4
ENDMDL
MODEL 4
REMARK VINA RESULT:      -8.2      1.325      1.801
REMARK  Name = 
REMARK  4 active torsions:
REMARK  status: ('A' for Active; 'I' for Inactive)
REMARK    1  A    between atoms: C_2  and  C_10
REMARK    2  A    between atoms: N_3  and  C_4
REMARK    3  A    between atoms: C_13  and  C_14
REMARK    4  A    between atoms: C_14  and  N_15
REMARK                            x       y       z     vdW  Elec       q    Type
REMARK                         _______ _______ _______ _____ _____    ______ ____
ROOT
ATOM      1  C   UNL     1       8.298   8.445  18.426  0.00  0.00    +0.000 A 
ATOM      2  C   UNL     1       8.585   7.325  19.219  0.00  0.00    +0.000 A 
ATOM      3  C   UNL     1       8.035   6.075  18.908  0.00  0.00    +0.000 A 
ATOM      4  C   UNL     1       7.195   5.922  17.796  0.00  0.00    +0.000 A 
ATOM      5  C   UNL     1       6.900   7.052  17.013  0.00  0.00    +0.000 A 
ATOM      6  C   UNL     1       7.446   8.307  17.324  0.00  0.00    +0.000 A 
ENDROOT
BRANCH   1   8
ATOM      7  O   UNL     1       9.026  10.022  19.974  0.00  0.00    +0.000 OA
ATOM      8  C   UNL     1       8.954   9.736  18.783  0.00  0.00    +0.000 C 
ATOM      9  N   UNL     1       9.368  10.521  17.718  0.00  0.00    +0.000 N 
ATOM     10  H   UNL     1       9.086  10.229  16.792  0.00  0.00    +0.000 HD
BRANCH   9  11
ATOM     11  C   UNL     1       9.987  11.790  17.810  0.00  0.00    +0.000 A 
ATOM     12  C   UNL     1      11.371  11.973  17.911  0.00  0.00    +0.000 A 
ATOM     13  C   UNL     1      11.917  13.256  18.033  0.00  0.00    +0.000 A 
ATOM     14  C   UNL     1      11.087  14.373  18.054  0.00  0.00    +0.000 A 
ATOM     15  C   UNL     1       9.709  14.207  17.935  0.00  0.00    +0.000 A 
ATOM     16  C   UNL     1       9.164  12.922  17.805  0.00  0.00    +0.000 A 
ENDBRANCH   9  11
ENDBRANCH   1   8
BRANCH   4  17
ATOM     17  C   UNL     1       6.574   4.569  17.485  0.00  0.00    +0.000 C 
BRANCH  17  18
ATOM     18  N   UNL     1       5.211   4.529  17.977  0.00  0.00    +0.000 N 
ATOM     19  C   UNL     1       4.881   4.403  19.294  0.00  0.00    +0.000 C 
ATOM     20  O   UNL     1       5.646   4.132  20.208  0.00  0.00    +0.000 OA
ATOM     21  C   UNL     1       3.407   4.705  19.456  0.00  0.00    +0.000 C 
ATOM     22  C   UNL     1       2.696   3.736  20.397  0.00  0.00    +0.000 C 
ATOM     23  C   UNL     1       1.608   2.911  19.792  0.00  0.00    +0.000 C 
ATOM     24  C   UNL     1       1.146   3.070  18.548  0.00  0.00    +0.000 C 
ATOM     25  C   UNL     1       1.651   4.095  17.588  0.00  0.00    +0.000 C 
ATOM     26  C   UNL     1       2.903   4.851  18.018  0.00  0.00    +0.000 C 
ATOM     27  C   UNL     1       4.115   4.545  17.170  0.00  0.00    +0.000 C 
ATOM     28  O   UNL     1       4.112   4.406  15.956  0.00  0.00    +0.000 OA
ENDBRANCH  17  18
ENDBRANCH   4  17
TORSDOF 4
ENDMDL
MODEL 5
REMARK VINA RESULT:      -8.2      1.194      2.216
REMARK  Name = 
REMARK  4 active torsions:
REMARK  status: ('A' for Active; 'I' for Inactive)
REMARK    1  A    between atoms: C_2  and  C_10
REMARK    2  A    between atoms: N_3  and  C_4
REMARK    3  A    between atoms: C_13  and  C_14
REMARK    4  A    between atoms: C_14  and  N_15
REMARK                            x       y       z     vdW  Elec       q    Type
REMARK                         _______ _______ _______ _____ _____    ______ ____
ROOT
ATOM      1  C   UNL     1       7.067   7.380  17.579  0.00  0.00    +0.000 A 
ATOM      2  C   UNL     1       5.770   7.284  17.054  0.00  0.00    +0.000 A 
ATOM      3  C   UNL     1       5.191   6.031  16.818  0.00  0.00    +0.000 A 
ATOM      4  C   UNL     1       5.895   4.854  17.108  0.00  0.00    +0.000 A 
ATOM      5  C   UNL     1       7.200   4.957  17.621  0.00  0.00    +0.000 A 
ATOM      6  C   UNL     1       7.785   6.211  17.854  0.00  0.00    +0.000 A 
ENDROOT
BRANCH   1   8
ATOM      7  O   UNL     1       7.118   9.679  17.227  0.00  0.00    +0.000 OA
ATOM      8  C   UNL     1       7.607   8.744  17.852  0.00  0.00    +0.000 C 
ATOM      9  N   UNL     1       8.659   8.811  18.752  0.00  0.00    +0.000 N 
ATOM     10  H   UNL     1       9.063   7.934  19.055  0.00  0.00    +0.000 HD
BRANCH   9  11
ATOM     11  C   UNL     1       9.345   9.984  19.145  0.00  0.00    +0.000 A 
ATOM     12  C   UNL     1       9.309  10.506  20.442  0.00  0.00    +0.000 A 
ATOM     13  C   UNL     1       9.985  11.691  20.757  0.00  0.00    +0.000 A 
ATOM     14  C   UNL     1      10.707  12.368  19.778  0.00  0.00    +0.000 A 
ATOM     15  C   UNL     1      10.767  11.849  18.487  0.00  0.00    +0.000 A 
ATOM     16  C   UNL     1      10.097  10.658  18.175  0.00  0.00    +0.000 A 
ENDBRANCH   9  11
ENDBRANCH   1   8
BRANCH   4  17
ATOM     17  C   UNL     1       5.273   3.497  16.816  0.00  0.00    +0.000 C 
BRANCH  17  18
ATOM     18  N   UNL     1       4.226   3.219  17.779  0.00  0.00    +0.000 N 
ATOM     19  C   UNL     1       2.900   3.163  17.467  0.00  0.00    +0.000 C 
ATOM     20  O   UNL     1       2.392   3.503  16.409  0.00  0.00    +0.000 OA
ATOM     21  C   UNL     1       2.152   2.556  18.634  0.00  0.00    +0.000 C 
ATOM     22  C   UNL     1       0.843   3.277  18.948  0.00  0.00    +0.000 C 
ATOM     23  C   UNL     1       0.751   3.914  20.296  0.00  0.00    +0.000 C 
ATOM     24  C   UNL     1       1.665   3.771  21.260  0.00  0.00    +0.000 C 
ATOM     25  C   UNL     1       2.908   2.956  21.127  0.00  0.00    +0.000 C 
ATOM     26  C   UNL     1       3.216   2.435  19.728  0.00  0.00    +0.000 C 
ATOM     27  C   UNL     1       4.450   3.051  19.112  0.00  0.00    +0.000 C 
ATOM     28  O   UNL     1       5.492   3.289  19.703  0.00  0.00    +0.000 OA
ENDBRANCH  17  18
ENDBRANCH   4  17
TORSDOF 4
ENDMDL
MODEL 6
REMARK VINA RESULT:      -8.1      1.464      1.706
REMARK  Name = 
REMARK  4 active torsions:
REMARK  status: ('A' for Active; 'I' for Inactive)
REMARK    1  A    between atoms: C_2  and  C_10
REMARK    2  A    between atoms: N_3  and  C_4
REMARK    3  A    between atoms: C_13  and  C_14
REMARK    4  A    between atoms: C_14  and  N_15
REMARK                            x       y       z     vdW  Elec       q    Type
REMARK                         _______ _______ _______ _____ _____    ______ ____
ROOT
ATOM      1  C   UNL     1       8.361   8.489  18.449  0.00  0.00    +0.000 A 
ATOM      2  C   UNL     1       7.519   8.354  17.337  0.00  0.00    +0.000 A 
ATOM      3  C   UNL     1       6.941   7.116  17.029  0.00  0.00    +0.000 A 
ATOM      4  C   UNL     1       7.191   5.994  17.831  0.00  0.00    +0.000 A 
ATOM      5  C   UNL     1       8.047   6.132  18.938  0.00  0.00    +0.000 A 
ATOM      6  C   UNL     1       8.631   7.371  19.246  0.00  0.00    +0.000 A 
ENDROOT
BRANCH   1   8
ATOM      7  O   UNL     1       9.243  10.073  19.907  0.00  0.00    +0.000 OA
ATOM      8  C   UNL     1       8.904   9.846  18.750  0.00  0.00    +0.000 C 
ATOM      9  N   UNL     1       8.916  10.742  17.693  0.00  0.00    +0.000 N 
ATOM     10  H   UNL     1       8.446  10.460  16.843  0.00  0.00    +0.000 HD
BRANCH   9  11
ATOM     11  C   UNL     1       9.359  12.085  17.745  0.00  0.00    +0.000 A 
ATOM     12  C   UNL     1      10.681  12.476  17.509  0.00  0.00    +0.000 A 
ATOM     13  C   UNL     1      11.060  13.820  17.610  0.00  0.00    +0.000 A 
ATOM     14  C   UNL     1      10.121  14.790  17.946  0.00  0.00    +0.000 A 
ATOM     15  C   UNL     1       8.797  14.418  18.165  0.00  0.00    +0.000 A 
ATOM     16  C   UNL     1       8.417  13.073  18.056  0.00  0.00    +0.000 A 
ENDBRANCH   9  11
ENDBRANCH   1   8
BRANCH   4  17
ATOM     17  C   UNL     1       6.588   4.645  17.471  0.00  0.00    +0.000 C 
BRANCH  17  18
ATOM     18  N   UNL     1       5.229   4.565  17.967  0.00  0.00    +0.000 N 
ATOM     19  C   UNL     1       4.907   4.409  19.282  0.00  0.00    +0.000 C 
ATOM     20  O   UNL     1       5.680   4.141  20.189  0.00  0.00    +0.000 OA
ATOM     21  C   UNL     1       3.427   4.675  19.454  0.00  0.00    +0.000 C 
ATOM     22  C   UNL     1       2.741   3.675  20.381  0.00  0.00    +0.000 C 
ATOM     23  C   UNL     1       1.670   2.836  19.765  0.00  0.00    +0.000 C 
ATOM     24  C   UNL     1       1.200   3.005  18.526  0.00  0.00    +0.000 C 
ATOM     25  C   UNL     1       1.678   4.056  17.582  0.00  0.00    +0.000 C 
ATOM     26  C   UNL     1       2.914   4.833  18.020  0.00  0.00    +0.000 C 
ATOM     27  C   UNL     1       4.130   4.569  17.163  0.00  0.00    +0.000 C 
ATOM     28  O   UNL     1       4.125   4.451  15.947  0.00  0.00    +0.000 OA
ENDBRANCH  17  18
ENDBRANCH   4  17
TORSDOF 4
ENDMDL
MODEL 7
REMARK VINA RESULT:      -7.9      1.702      1.893
REMARK  Name = 
REMARK  4 active torsions:
REMARK  status: ('A' for Active; 'I' for Inactive)
REMARK    1  A    between atoms: C_2  and  C_10
REMARK    2  A    between atoms: N_3  and  C_4
REMARK    3  A    between atoms: C_13  and  C_14
REMARK    4  A    between atoms: C_14  and  N_15
REMARK                            x       y       z     vdW  Elec       q    Type
REMARK                         _______ _______ _______ _____ _____    ______ ____
ROOT
ATOM      1  C   UNL     1       8.218   8.468  18.424  0.00  0.00    +0.000 A 
ATOM      2  C   UNL     1       7.192   8.610  17.479  0.00  0.00    +0.000 A 
ATOM      3  C   UNL     1       6.371   7.523  17.154  0.00  0.00    +0.000 A 
ATOM      4  C   UNL     1       6.558   6.279  17.771  0.00  0.00    +0.000 A 
ATOM      5  C   UNL     1       7.597   6.139  18.708  0.00  0.00    +0.000 A 
ATOM      6  C   UNL     1       8.424   7.225  19.033  0.00  0.00    +0.000 A 
ENDROOT
BRANCH   1   8
ATOM      7  O   UNL     1       9.273   9.876  19.946  0.00  0.00    +0.000 OA
ATOM      8  C   UNL     1       9.025   9.677  18.761  0.00  0.00    +0.000 C 
ATOM      9  N   UNL     1       9.366  10.496  17.696  0.00  0.00    +0.000 N 
ATOM     10  H   UNL     1       8.943  10.289  16.801  0.00  0.00    +0.000 HD
BRANCH   9  11
ATOM     11  C   UNL     1      10.100  11.702  17.775  0.00  0.00    +0.000 A 
ATOM     12  C   UNL     1      11.488  11.757  17.943  0.00  0.00    +0.000 A 
ATOM     13  C   UNL     1      12.150  12.986  18.047  0.00  0.00    +0.000 A 
ATOM     14  C   UNL     1      11.432  14.177  17.983  0.00  0.00    +0.000 A 
ATOM     15  C   UNL     1      10.052  14.138  17.797  0.00  0.00    +0.000 A 
ATOM     16  C   UNL     1       9.392  12.907  17.685  0.00  0.00    +0.000 A 
ENDBRANCH   9  11
ENDBRANCH   1   8
BRANCH   4  17
ATOM     17  C   UNL     1       5.685   5.094  17.387  0.00  0.00    +0.000 C 
BRANCH  17  18
ATOM     18  N   UNL     1       4.695   4.858  18.418  0.00  0.00    +0.000 N 
ATOM     19  C   UNL     1       4.743   3.815  19.294  0.00  0.00    +0.000 C 
ATOM     20  O   UNL     1       5.496   2.854  19.234  0.00  0.00    +0.000 OA
ATOM     21  C   UNL     1       3.737   4.062  20.398  0.00  0.00    +0.000 C 
ATOM     22  C   UNL     1       2.944   2.813  20.777  0.00  0.00    +0.000 C 
ATOM     23  C   UNL     1       1.468   2.881  20.556  0.00  0.00    +0.000 C 
ATOM     24  C   UNL     1       0.811   3.984  20.189  0.00  0.00    +0.000 C 
ATOM     25  C   UNL     1       1.458   5.307  19.948  0.00  0.00    +0.000 C 
ATOM     26  C   UNL     1       2.983   5.310  19.934  0.00  0.00    +0.000 C 
ATOM     27  C   UNL     1       3.575   5.615  18.578  0.00  0.00    +0.000 C 
ATOM     28  O   UNL     1       3.152   6.452  17.794  0.00  0.00    +0.000 OA
ENDBRANCH  17  18
ENDBRANCH   4  17
TORSDOF 4
ENDMDL
MODEL 8
REMARK VINA RESULT:      -7.9      0.856      1.819
REMARK  Name = 
REMARK  4 active torsions:
REMARK  status: ('A' for Active; 'I' for Inactive)
REMARK    1  A    between atoms: C_2  and  C_10
REMARK    2  A    between atoms: N_3  and  C_4
REMARK    3  A    between atoms: C_13  and  C_14
REMARK    4  A    between atoms: C_14  and  N_15
REMARK                            x       y       z     vdW  Elec       q    Type
REMARK                         _______ _______ _______ _____ _____    ______ ____
ROOT
ATOM      1  C   UNL     1       7.854   7.928  18.087  0.00  0.00    +0.000 A 
ATOM      2  C   UNL     1       6.992   7.694  17.007  0.00  0.00    +0.000 A 
ATOM      3  C   UNL     1       6.425   6.429  16.812  0.00  0.00    +0.000 A 
ATOM      4  C   UNL     1       6.705   5.378  17.697  0.00  0.00    +0.000 A 
ATOM      5  C   UNL     1       7.581   5.616  18.771  0.00  0.00    +0.000 A 
ATOM      6  C   UNL     1       8.155   6.881  18.966  0.00  0.00    +0.000 A 
ENDROOT
BRANCH   1   8
ATOM      7  O   UNL     1       8.082  10.145  17.419  0.00  0.00    +0.000 OA
ATOM      8  C   UNL     1       8.385   9.311  18.266  0.00  0.00    +0.000 C 
ATOM      9  N   UNL     1       9.227   9.502  19.350  0.00  0.00    +0.000 N 
ATOM     10  H   UNL     1       9.519   8.678  19.859  0.00  0.00    +0.000 HD
BRANCH   9  11
ATOM     11  C   UNL     1       9.868  10.713  19.704  0.00  0.00    +0.000 A 
ATOM     12  C   UNL     1       9.509  11.486  20.814  0.00  0.00    +0.000 A 
ATOM     13  C   UNL     1      10.162  12.693  21.088  0.00  0.00    +0.000 A 
ATOM     14  C   UNL     1      11.186  13.141  20.258  0.00  0.00    +0.000 A 
ATOM     15  C   UNL     1      11.566  12.373  19.160  0.00  0.00    +0.000 A 
ATOM     16  C   UNL     1      10.917  11.161  18.891  0.00  0.00    +0.000 A 
ENDBRANCH   9  11
ENDBRANCH   1   8
BRANCH   4  17
ATOM     17  C   UNL     1       6.114   3.997  17.459  0.00  0.00    +0.000 C 
BRANCH  17  18
ATOM     18  N   UNL     1       4.835   3.888  18.133  0.00  0.00    +0.000 N 
ATOM     19  C   UNL     1       3.734   4.618  17.798  0.00  0.00    +0.000 C 
ATOM     20  O   UNL     1       3.703   5.569  17.031  0.00  0.00    +0.000 OA
ATOM     21  C   UNL     1       2.528   4.026  18.496  0.00  0.00    +0.000 C 
ATOM     22  C   UNL     1       1.599   5.082  19.089  0.00  0.00    +0.000 C 
ATOM     23  C   UNL     1       1.432   5.051  20.573  0.00  0.00    +0.000 C 
ATOM     24  C   UNL     1       1.923   4.095  21.366  0.00  0.00    +0.000 C 
ATOM     25  C   UNL     1       2.709   2.922  20.882  0.00  0.00    +0.000 C 
ATOM     26  C   UNL     1       3.126   2.958  19.417  0.00  0.00    +0.000 C 
ATOM     27  C   UNL     1       4.617   3.092  19.216  0.00  0.00    +0.000 C 
ATOM     28  O   UNL     1       5.473   2.522  19.875  0.00  0.00    +0.000 OA
ENDBRANCH  17  18
ENDBRANCH   4  17
TORSDOF 4
ENDMDL
MODEL 9
REMARK VINA RESULT:      -7.9      6.531      7.965
REMARK  Name = 
REMARK  4 active torsions:
REMARK  status: ('A' for Active; 'I' for Inactive)
REMARK    1  A    between atoms: C_2  and  C_10
REMARK    2  A    between atoms: N_3  and  C_4
REMARK    3  A    between atoms: C_13  and  C_14
REMARK    4  A    between atoms: C_14  and  N_15
REMARK                            x       y       z     vdW  Elec       q    Type
REMARK                         _______ _______ _______ _____ _____    ______ ____
ROOT
ATOM      1  C   UNL     1       0.727   9.542  20.994  0.00  0.00    +0.000 A 
ATOM      2  C   UNL     1       1.211   8.269  21.325  0.00  0.00    +0.000 A 
ATOM      3  C   UNL     1       1.840   7.475  20.358  0.00  0.00    +0.000 A 
ATOM      4  C   UNL     1       2.002   7.942  19.047  0.00  0.00    +0.000 A 
ATOM      5  C   UNL     1       1.502   9.215  18.717  0.00  0.00    +0.000 A 
ATOM      6  C   UNL     1       0.867  10.011  19.682  0.00  0.00    +0.000 A 
ENDROOT
BRANCH   1   8
ATOM      7  O   UNL     1       0.340  10.018  23.238  0.00  0.00    +0.000 OA
ATOM      8  C   UNL     1       0.111  10.357  22.082  0.00  0.00    +0.000 C 
ATOM      9  N   UNL     1      -0.717  11.390  21.671  0.00  0.00    +0.000 N 
ATOM     10  H   UNL     1      -0.943  11.438  20.686  0.00  0.00    +0.000 HD
BRANCH   9  11
ATOM     11  C   UNL     1      -1.427  12.274  22.518  0.00  0.00    +0.000 A 
ATOM     12  C   UNL     1      -2.711  12.015  23.009  0.00  0.00    +0.000 A 
ATOM     13  C   UNL     1      -3.372  12.949  23.816  0.00  0.00    +0.000 A 
ATOM     14  C   UNL     1      -2.755  14.152  24.145  0.00  0.00    +0.000 A 
ATOM     15  C   UNL     1      -1.469  14.415  23.678  0.00  0.00    +0.000 A 
ATOM     16  C   UNL     1      -0.806  13.476  22.877  0.00  0.00    +0.000 A 
ENDBRANCH   9  11
ENDBRANCH   1   8
BRANCH   4  17
ATOM     17  C   UNL     1       2.655   7.061  17.994  0.00  0.00    +0.000 C 
BRANCH  17  18
ATOM     18  N   UNL     1       2.730   5.695  18.474  0.00  0.00    +0.000 N 
ATOM     19  C   UNL     1       3.735   5.221  19.264  0.00  0.00    +0.000 C 
ATOM     20  O   UNL     1       4.778   5.798  19.530  0.00  0.00    +0.000 OA
ATOM     21  C   UNL     1       3.326   3.870  19.810  0.00  0.00    +0.000 C 
ATOM     22  C   UNL     1       4.456   2.844  19.778  0.00  0.00    +0.000 C 
ATOM     23  C   UNL     1       4.226   1.639  18.926  0.00  0.00    +0.000 C 
ATOM     24  C   UNL     1       3.069   1.354  18.322  0.00  0.00    +0.000 C 
ATOM     25  C   UNL     1       1.842   2.199  18.413  0.00  0.00    +0.000 C 
ATOM     26  C   UNL     1       2.018   3.560  19.078  0.00  0.00    +0.000 C 
ATOM     27  C   UNL     1       1.841   4.723  18.131  0.00  0.00    +0.000 C 
ATOM     28  O   UNL     1       0.994   4.797  17.253  0.00  0.00    +0.000 OA
ENDBRANCH  17  18
ENDBRANCH   4  17
TORSDOF 4
ENDMDL
