MODEL 1
REMARK VINA RESULT:      -8.4      0.000      0.000
REMARK  Name = 
REMARK  7 active torsions:
REMARK  status: ('A' for Active; 'I' for Inactive)
REMARK    1  A    between atoms: C_1  and  C_2
REMARK    2  A    between atoms: C_2  and  C_3
REMARK    3  A    between atoms: C_2  and  C_4
REMARK    4  A    between atoms: C_4  and  N_5
REMARK    5  A    between atoms: C_4  and  C_23
REMARK    6  A    between atoms: C_6  and  C_8
REMARK    7  A    between atoms: C_8  and  N_9
REMARK                            x       y       z     vdW  Elec       q    Type
REMARK                         _______ _______ _______ _____ _____    ______ ____
ROOT
ATOM      1  N   UNL     1       5.187   4.709  17.344  0.00  0.00    +0.000 N 
ATOM      2  C   UNL     1       4.789   4.098  18.511  0.00  0.00    +0.000 C 
ATOM      3  O   UNL     1       5.564   3.694  19.373  0.00  0.00    +0.000 OA
ATOM      4  H   UNL     1       4.472   5.112  16.745  0.00  0.00    +0.000 HD
ENDROOT
BRANCH   1   5
ATOM      5  C   UNL     1       6.581   4.824  16.918  0.00  0.00    +0.000 C 
BRANCH   5   6
ATOM      6  C   UNL     1       6.699   4.643  15.403  0.00  0.00    +0.000 A 
ATOM      7  C   UNL     1       5.810   3.791  14.718  0.00  0.00    +0.000 A 
ATOM      8  C   UNL     1       5.926   3.598  13.334  0.00  0.00    +0.000 A 
ATOM      9  C   UNL     1       6.929   4.255  12.632  0.00  0.00    +0.000 A 
ATOM     10  F   UNL     1       7.044   4.069  11.312  0.00  0.00    +0.000 F 
ATOM     11  C   UNL     1       7.820   5.102  13.279  0.00  0.00    +0.000 A 
ATOM     12  C   UNL     1       7.705   5.287  14.660  0.00  0.00    +0.000 A 
ENDBRANCH   5   6
BRANCH   5  14
ATOM     13  C   UNL     1       6.294   7.354  17.400  0.00  0.00    +0.000 C 
ATOM     14  C   UNL     1       7.239   6.146  17.411  0.00  0.00    +0.000 C 
ATOM     15  C   UNL     1       7.837   5.993  18.816  0.00  0.00    +0.000 C 
ENDBRANCH   5  14
ENDBRANCH   1   5
BRANCH   2  16
ATOM     16  C   UNL     1       3.275   4.043  18.706  0.00  0.00    +0.000 C 
BRANCH  16  17
ATOM     17  N   UNL     1       2.768   5.381  18.955  0.00  0.00    +0.000 N 
ATOM     18  C   UNL     1       2.774   6.322  17.930  0.00  0.00    +0.000 A 
ATOM     19  N   UNL     1       2.370   7.558  17.992  0.00  0.00    +0.000 NA
ATOM     20  C   UNL     1       1.877   7.907  19.253  0.00  0.00    +0.000 A 
ATOM     21  C   UNL     1       1.825   7.034  20.301  0.00  0.00    +0.000 A 
ATOM     22  O   UNL     1       1.305   7.632  21.405  0.00  0.00    +0.000 OA
ATOM     23  C   UNL     1       1.017   8.921  21.027  0.00  0.00    +0.000 A 
ATOM     24  C   UNL     1       0.457   9.899  21.851  0.00  0.00    +0.000 A 
ATOM     25  C   UNL     1       0.230  11.154  21.272  0.00  0.00    +0.000 A 
ATOM     26  C   UNL     1       0.552  11.404  19.936  0.00  0.00    +0.000 A 
ATOM     27  C   UNL     1       1.115  10.405  19.128  0.00  0.00    +0.000 A 
ATOM     28  C   UNL     1       1.352   9.139  19.688  0.00  0.00    +0.000 A 
ATOM     29  C   UNL     1       2.263   5.676  20.224  0.00  0.00    +0.000 A 
ATOM     30  O   UNL     1       2.207   4.845  21.130  0.00  0.00    +0.000 OA
ENDBRANCH  16  17
ENDBRANCH   2  16
TORSDOF 5
ENDMDL
MODEL 2
REMARK VINA RESULT:      -8.4      3.505      6.986
REMARK  Name = 
REMARK  7 active torsions:
REMARK  status: ('A' for Active; 'I' for Inactive)
REMARK    1  A    between atoms: C_1  and  C_2
REMARK    2  A    between atoms: C_2  and  C_3
REMARK    3  A    between atoms: C_2  and  C_4
REMARK    4  A    between atoms: C_4  and  N_5
REMARK    5  A    between atoms: C_4  and  C_23
REMARK    6  A    between atoms: C_6  and  C_8
REMARK    7  A    between atoms: C_8  and  N_9
REMARK                            x       y       z     vdW  Elec       q    Type
REMARK                         _______ _______ _______ _____ _____    ______ ____
ROOT
ATOM      1  N   UNL     1       4.101   4.818  18.281  0.00  0.00    +0.000 N 
ATOM      2  C   UNL     1       5.261   4.180  18.653  0.00  0.00    +0.000 C 
ATOM      3  O   UNL     1       5.357   3.440  19.628  0.00  0.00    +0.000 OA
ATOM      4  H   UNL     1       4.090   5.317  17.397  0.00  0.00    +0.000 HD
ENDROOT
BRANCH   1   5
ATOM      5  C   UNL     1       2.875   4.811  19.079  0.00  0.00    +0.000 C 
BRANCH   5   6
ATOM      6  C   UNL     1       2.362   6.237  19.292  0.00  0.00    +0.000 A 
ATOM      7  C   UNL     1       2.424   7.177  18.244  0.00  0.00    +0.000 A 
ATOM      8  C   UNL     1       1.981   8.494  18.437  0.00  0.00    +0.000 A 
ATOM      9  C   UNL     1       1.475   8.873  19.675  0.00  0.00    +0.000 A 
ATOM     10  F   UNL     1       1.055  10.129  19.862  0.00  0.00    +0.000 F 
ATOM     11  C   UNL     1       1.400   7.967  20.726  0.00  0.00    +0.000 A 
ATOM     12  C   UNL     1       1.849   6.658  20.532  0.00  0.00    +0.000 A 
ENDBRANCH   5   6
BRANCH   5  14
ATOM     13  C   UNL     1       2.342   2.806  17.525  0.00  0.00    +0.000 C 
ATOM     14  C   UNL     1       1.788   3.873  18.477  0.00  0.00    +0.000 C 
ATOM     15  C   UNL     1       0.966   3.182  19.574  0.00  0.00    +0.000 C 
ENDBRANCH   5  14
ENDBRANCH   1   5
BRANCH   2  16
ATOM     16  C   UNL     1       6.428   4.387  17.688  0.00  0.00    +0.000 C 
BRANCH  16  17
ATOM     17  N   UNL     1       6.863   5.771  17.741  0.00  0.00    +0.000 N 
ATOM     18  C   UNL     1       6.310   6.701  16.866  0.00  0.00    +0.000 A 
ATOM     19  N   UNL     1       6.598   7.967  16.776  0.00  0.00    +0.000 NA
ATOM     20  C   UNL     1       7.568   8.372  17.698  0.00  0.00    +0.000 A 
ATOM     21  C   UNL     1       8.143   7.522  18.597  0.00  0.00    +0.000 A 
ATOM     22  O   UNL     1       9.052   8.174  19.369  0.00  0.00    +0.000 OA
ATOM     23  C   UNL     1       9.034   9.478  18.940  0.00  0.00    +0.000 A 
ATOM     24  C   UNL     1       9.814  10.512  19.462  0.00  0.00    +0.000 A 
ATOM     25  C   UNL     1       9.642  11.780  18.891  0.00  0.00    +0.000 A 
ATOM     26  C   UNL     1       8.733  11.988  17.852  0.00  0.00    +0.000 A 
ATOM     27  C   UNL     1       7.961  10.933  17.343  0.00  0.00    +0.000 A 
ATOM     28  C   UNL     1       8.118   9.653  17.900  0.00  0.00    +0.000 A 
ATOM     29  C   UNL     1       7.818   6.133  18.696  0.00  0.00    +0.000 A 
ATOM     30  O   UNL     1       8.285   5.337  19.508  0.00  0.00    +0.000 OA
ENDBRANCH  16  17
ENDBRANCH   2  16
TORSDOF 5
ENDMDL
MODEL 3
REMARK VINA RESULT:      -8.2      3.701      7.129
REMARK  Name = 
REMARK  7 active torsions:
REMARK  status: ('A' for Active; 'I' for Inactive)
REMARK    1  A    between atoms: C_1  and  C_2
REMARK    2  A    between atoms: C_2  and  C_3
REMARK    3  A    between atoms: C_2  and  C_4
REMARK    4  A    between atoms: C_4  and  N_5
REMARK    5  A    between atoms: C_4  and  C_23
REMARK    6  A    between atoms: C_6  and  C_8
REMARK    7  A    between atoms: C_8  and  N_9
REMARK                            x       y       z     vdW  Elec       q    Type
REMARK                         _______ _______ _______ _____ _____    ______ ____
ROOT
ATOM      1  N   UNL     1       4.120   5.176  18.266  0.00  0.00    +0.000 N 
ATOM      2  C   UNL     1       5.208   4.385  18.555  0.00  0.00    +0.000 C 
ATOM      3  O   UNL     1       5.217   3.522  19.429  0.00  0.00    +0.000 OA
ATOM      4  H   UNL     1       4.169   5.781  17.452  0.00  0.00    +0.000 HD
ENDROOT
BRANCH   1   5
ATOM      5  C   UNL     1       2.889   5.189  19.056  0.00  0.00    +0.000 C 
BRANCH   5   6
ATOM      6  C   UNL     1       2.346   6.614  19.184  0.00  0.00    +0.000 A 
ATOM      7  C   UNL     1       2.388   7.491  18.082  0.00  0.00    +0.000 A 
ATOM      8  C   UNL     1       1.917   8.807  18.196  0.00  0.00    +0.000 A 
ATOM      9  C   UNL     1       1.403   9.249  19.410  0.00  0.00    +0.000 A 
ATOM     10  F   UNL     1       0.957  10.505  19.522  0.00  0.00    +0.000 F 
ATOM     11  C   UNL     1       1.347   8.406  20.514  0.00  0.00    +0.000 A 
ATOM     12  C   UNL     1       1.824   7.098  20.397  0.00  0.00    +0.000 A 
ENDBRANCH   5   6
BRANCH   5  14
ATOM     13  C   UNL     1       2.281   3.424  17.259  0.00  0.00    +0.000 C 
ATOM     14  C   UNL     1       1.825   4.196  18.503  0.00  0.00    +0.000 C 
ATOM     15  C   UNL     1       1.374   3.194  19.574  0.00  0.00    +0.000 C 
ENDBRANCH   5  14
ENDBRANCH   1   5
BRANCH   2  16
ATOM     16  C   UNL     1       6.401   4.595  17.625  0.00  0.00    +0.000 C 
BRANCH  16  17
ATOM     17  N   UNL     1       7.041   5.862  17.934  0.00  0.00    +0.000 N 
ATOM     18  C   UNL     1       7.949   5.938  18.985  0.00  0.00    +0.000 A 
ATOM     19  N   UNL     1       8.593   6.991  19.396  0.00  0.00    +0.000 NA
ATOM     20  C   UNL     1       8.303   8.134  18.646  0.00  0.00    +0.000 A 
ATOM     21  C   UNL     1       7.436   8.134  17.592  0.00  0.00    +0.000 A 
ATOM     22  O   UNL     1       7.337   9.374  17.044  0.00  0.00    +0.000 OA
ATOM     23  C   UNL     1       8.179  10.172  17.780  0.00  0.00    +0.000 A 
ATOM     24  C   UNL     1       8.397  11.533  17.562  0.00  0.00    +0.000 A 
ATOM     25  C   UNL     1       9.305  12.169  18.419  0.00  0.00    +0.000 A 
ATOM     26  C   UNL     1       9.954  11.466  19.437  0.00  0.00    +0.000 A 
ATOM     27  C   UNL     1       9.716  10.099  19.636  0.00  0.00    +0.000 A 
ATOM     28  C   UNL     1       8.809   9.440  18.789  0.00  0.00    +0.000 A 
ATOM     29  C   UNL     1       6.737   6.972  17.140  0.00  0.00    +0.000 A 
ATOM     30  O   UNL     1       5.972   6.916  16.179  0.00  0.00    +0.000 OA
ENDBRANCH  16  17
ENDBRANCH   2  16
TORSDOF 5
ENDMDL
MODEL 4
REMARK VINA RESULT:      -8.1      2.894      8.231
REMARK  Name = 
REMARK  7 active torsions:
REMARK  status: ('A' for Active; 'I' for Inactive)
REMARK    1  A    between atoms: C_1  and  C_2
REMARK    2  A    between atoms: C_2  and  C_3
REMARK    3  A    between atoms: C_2  and  C_4
REMARK    4  A    between atoms: C_4  and  N_5
REMARK    5  A    between atoms: C_4  and  C_23
REMARK    6  A    between atoms: C_6  and  C_8
REMARK    7  A    between atoms: C_8  and  N_9
REMARK                            x       y       z     vdW  Elec       q    Type
REMARK                         _______ _______ _______ _____ _____    ______ ____
ROOT
ATOM      1  N   UNL     1       3.734   5.943  19.495  0.00  0.00    +0.000 N 
ATOM      2  C   UNL     1       4.543   4.910  19.909  0.00  0.00    +0.000 C 
ATOM      3  O   UNL     1       4.142   3.930  20.530  0.00  0.00    +0.000 OA
ATOM      4  H   UNL     1       4.133   6.653  18.889  0.00  0.00    +0.000 HD
ENDROOT
BRANCH   1   5
ATOM      5  C   UNL     1       2.326   6.074  19.868  0.00  0.00    +0.000 C 
BRANCH   5   6
ATOM      6  C   UNL     1       1.867   7.528  19.738  0.00  0.00    +0.000 A 
ATOM      7  C   UNL     1       1.244   8.176  20.824  0.00  0.00    +0.000 A 
ATOM      8  C   UNL     1       0.796   9.500  20.708  0.00  0.00    +0.000 A 
ATOM      9  C   UNL     1       0.969  10.179  19.508  0.00  0.00    +0.000 A 
ATOM     10  F   UNL     1       0.539  11.440  19.393  0.00  0.00    +0.000 F 
ATOM     11  C   UNL     1       1.581   9.568  18.420  0.00  0.00    +0.000 A 
ATOM     12  C   UNL     1       2.020   8.247  18.539  0.00  0.00    +0.000 A 
ENDBRANCH   5   6
BRANCH   5  14
ATOM     13  C   UNL     1       2.027   4.596  17.760  0.00  0.00    +0.000 C 
ATOM     14  C   UNL     1       1.414   5.092  19.075  0.00  0.00    +0.000 C 
ATOM     15  C   UNL     1       1.013   3.879  19.926  0.00  0.00    +0.000 C 
ENDBRANCH   5  14
ENDBRANCH   1   5
BRANCH   2  16
ATOM     16  C   UNL     1       5.994   5.026  19.445  0.00  0.00    +0.000 C 
BRANCH  16  17
ATOM     17  N   UNL     1       6.070   4.771  18.017  0.00  0.00    +0.000 N 
ATOM     18  C   UNL     1       5.245   3.808  17.444  0.00  0.00    +0.000 A 
ATOM     19  N   UNL     1       5.200   3.452  16.193  0.00  0.00    +0.000 NA
ATOM     20  C   UNL     1       6.094   4.167  15.391  0.00  0.00    +0.000 A 
ATOM     21  C   UNL     1       6.922   5.136  15.878  0.00  0.00    +0.000 A 
ATOM     22  O   UNL     1       7.686   5.666  14.886  0.00  0.00    +0.000 OA
ATOM     23  C   UNL     1       7.313   5.007  13.741  0.00  0.00    +0.000 A 
ATOM     24  C   UNL     1       7.841   5.237  12.469  0.00  0.00    +0.000 A 
ATOM     25  C   UNL     1       7.319   4.465  11.423  0.00  0.00    +0.000 A 
ATOM     26  C   UNL     1       6.322   3.514  11.653  0.00  0.00    +0.000 A 
ATOM     27  C   UNL     1       5.809   3.301  12.940  0.00  0.00    +0.000 A 
ATOM     28  C   UNL     1       6.317   4.064  14.004  0.00  0.00    +0.000 A 
ATOM     29  C   UNL     1       6.963   5.527  17.253  0.00  0.00    +0.000 A 
ATOM     30  O   UNL     1       7.667   6.414  17.732  0.00  0.00    +0.000 OA
ENDBRANCH  16  17
ENDBRANCH   2  16
TORSDOF 5
ENDMDL
MODEL 5
REMARK VINA RESULT:      -8.1      1.128      1.689
REMARK  Name = 
REMARK  7 active torsions:
REMARK  status: ('A' for Active; 'I' for Inactive)
REMARK    1  A    between atoms: C_1  and  C_2
REMARK    2  A    between atoms: C_2  and  C_3
REMARK    3  A    between atoms: C_2  and  C_4
REMARK    4  A    between atoms: C_4  and  N_5
REMARK    5  A    between atoms: C_4  and  C_23
REMARK    6  A    between atoms: C_6  and  C_8
REMARK    7  A    between atoms: C_8  and  N_9
REMARK                            x       y       z     vdW  Elec       q    Type
REMARK                         _______ _______ _______ _____ _____    ______ ____
ROOT
ATOM      1  N   UNL     1       5.167   4.627  17.143  0.00  0.00    +0.000 N 
ATOM      2  C   UNL     1       4.755   4.047  18.320  0.00  0.00    +0.000 C 
ATOM      3  O   UNL     1       5.513   3.734  19.235  0.00  0.00    +0.000 OA
ATOM      4  H   UNL     1       4.458   4.955  16.495  0.00  0.00    +0.000 HD
ENDROOT
BRANCH   1   5
ATOM      5  C   UNL     1       6.570   4.811  16.773  0.00  0.00    +0.000 C 
BRANCH   5   6
ATOM      6  C   UNL     1       6.753   4.662  15.261  0.00  0.00    +0.000 A 
ATOM      7  C   UNL     1       5.946   3.765  14.533  0.00  0.00    +0.000 A 
ATOM      8  C   UNL     1       6.123   3.601  13.152  0.00  0.00    +0.000 A 
ATOM      9  C   UNL     1       7.105   4.334  12.495  0.00  0.00    +0.000 A 
ATOM     10  F   UNL     1       7.278   4.176  11.178  0.00  0.00    +0.000 F 
ATOM     11  C   UNL     1       7.915   5.227  13.185  0.00  0.00    +0.000 A 
ATOM     12  C   UNL     1       7.740   5.382  14.563  0.00  0.00    +0.000 A 
ENDBRANCH   5   6
BRANCH   5  14
ATOM     13  C   UNL     1       6.138   7.305  17.328  0.00  0.00    +0.000 C 
ATOM     14  C   UNL     1       7.150   6.153  17.311  0.00  0.00    +0.000 C 
ATOM     15  C   UNL     1       7.744   5.990  18.717  0.00  0.00    +0.000 C 
ENDBRANCH   5  14
ENDBRANCH   1   5
BRANCH   2  16
ATOM     16  C   UNL     1       3.240   3.904  18.452  0.00  0.00    +0.000 C 
BRANCH  16  17
ATOM     17  N   UNL     1       2.698   5.071  19.127  0.00  0.00    +0.000 N 
ATOM     18  C   UNL     1       2.309   4.977  20.460  0.00  0.00    +0.000 A 
ATOM     19  N   UNL     1       1.797   5.918  21.199  0.00  0.00    +0.000 NA
ATOM     20  C   UNL     1       1.663   7.132  20.520  0.00  0.00    +0.000 A 
ATOM     21  C   UNL     1       2.038   7.305  19.219  0.00  0.00    +0.000 A 
ATOM     22  O   UNL     1       1.797   8.578  18.809  0.00  0.00    +0.000 OA
ATOM     23  C   UNL     1       1.261   9.222  19.897  0.00  0.00    +0.000 A 
ATOM     24  C   UNL     1       0.866  10.560  19.930  0.00  0.00    +0.000 A 
ATOM     25  C   UNL     1       0.350  11.034  21.143  0.00  0.00    +0.000 A 
ATOM     26  C   UNL     1       0.240  10.199  22.258  0.00  0.00    +0.000 A 
ATOM     27  C   UNL     1       0.643   8.858  22.199  0.00  0.00    +0.000 A 
ATOM     28  C   UNL     1       1.163   8.361  20.993  0.00  0.00    +0.000 A 
ATOM     29  C   UNL     1       2.606   6.269  18.414  0.00  0.00    +0.000 A 
ATOM     30  O   UNL     1       2.987   6.385  17.250  0.00  0.00    +0.000 OA
ENDBRANCH  16  17
ENDBRANCH   2  16
TORSDOF 5
ENDMDL
MODEL 6
REMARK VINA RESULT:      -7.9      3.416      5.543
REMARK  Name = 
REMARK  7 active torsions:
REMARK  status: ('A' for Active; 'I' for Inactive)
REMARK    1  A    between atoms: C_1  and  C_2
REMARK    2  A    between atoms: C_2  and  C_3
REMARK    3  A    between atoms: C_2  and  C_4
REMARK    4  A    between atoms: C_4  and  N_5
REMARK    5  A    between atoms: C_4  and  C_23
REMARK    6  A    between atoms: C_6  and  C_8
REMARK    7  A    between atoms: C_8  and  N_9
REMARK                            x       y       z     vdW  Elec       q    Type
REMARK                         _______ _______ _______ _____ _____    ______ ____
ROOT
ATOM      1  N   UNL     1       3.335   5.552  17.889  0.00  0.00    +0.000 N 
ATOM      2  C   UNL     1       4.020   6.740  17.785  0.00  0.00    +0.000 C 
ATOM      3  O   UNL     1       5.224   6.859  17.991  0.00  0.00    +0.000 OA
ATOM      4  H   UNL     1       2.365   5.528  17.589  0.00  0.00    +0.000 HD
ENDROOT
BRANCH   1   5
ATOM      5  C   UNL     1       3.924   4.313  18.395  0.00  0.00    +0.000 C 
BRANCH   5   6
ATOM      6  C   UNL     1       3.071   3.731  19.524  0.00  0.00    +0.000 A 
ATOM      7  C   UNL     1       1.727   4.129  19.676  0.00  0.00    +0.000 A 
ATOM      8  C   UNL     1       0.943   3.622  20.723  0.00  0.00    +0.000 A 
ATOM      9  C   UNL     1       1.499   2.718  21.619  0.00  0.00    +0.000 A 
ATOM     10  F   UNL     1       0.755   2.236  22.621  0.00  0.00    +0.000 F 
ATOM     11  C   UNL     1       2.821   2.305  21.495  0.00  0.00    +0.000 A 
ATOM     12  C   UNL     1       3.600   2.818  20.455  0.00  0.00    +0.000 A 
ENDBRANCH   5   6
BRANCH   5  14
ATOM     13  C   UNL     1       2.924   2.580  16.748  0.00  0.00    +0.000 C 
ATOM     14  C   UNL     1       4.189   3.280  17.260  0.00  0.00    +0.000 C 
ATOM     15  C   UNL     1       4.920   3.919  16.072  0.00  0.00    +0.000 C 
ENDBRANCH   5  14
ENDBRANCH   1   5
BRANCH   2  16
ATOM     16  C   UNL     1       3.172   7.911  17.291  0.00  0.00    +0.000 C 
BRANCH  16  17
ATOM     17  N   UNL     1       2.368   8.425  18.386  0.00  0.00    +0.000 N 
ATOM     18  C   UNL     1       2.186   7.653  19.529  0.00  0.00    +0.000 A 
ATOM     19  N   UNL     1       1.490   7.959  20.585  0.00  0.00    +0.000 NA
ATOM     20  C   UNL     1       0.897   9.223  20.498  0.00  0.00    +0.000 A 
ATOM     21  C   UNL     1       1.044  10.043  19.418  0.00  0.00    +0.000 A 
ATOM     22  O   UNL     1       0.363  11.206  19.595  0.00  0.00    +0.000 OA
ATOM     23  C   UNL     1      -0.221  11.108  20.834  0.00  0.00    +0.000 A 
ATOM     24  C   UNL     1      -1.017  12.087  21.432  0.00  0.00    +0.000 A 
ATOM     25  C   UNL     1      -1.513  11.799  22.710  0.00  0.00    +0.000 A 
ATOM     26  C   UNL     1      -1.221  10.589  23.344  0.00  0.00    +0.000 A 
ATOM     27  C   UNL     1      -0.420   9.621  22.722  0.00  0.00    +0.000 A 
ATOM     28  C   UNL     1       0.089   9.888  21.440  0.00  0.00    +0.000 A 
ATOM     29  C   UNL     1       1.817   9.703  18.264  0.00  0.00    +0.000 A 
ATOM     30  O   UNL     1       2.003  10.420  17.282  0.00  0.00    +0.000 OA
ENDBRANCH  16  17
ENDBRANCH   2  16
TORSDOF 5
ENDMDL
MODEL 7
REMARK VINA RESULT:      -7.8      3.154      5.497
REMARK  Name = 
REMARK  7 active torsions:
REMARK  status: ('A' for Active; 'I' for Inactive)
REMARK    1  A    between atoms: C_1  and  C_2
REMARK    2  A    between atoms: C_2  and  C_3
REMARK    3  A    between atoms: C_2  and  C_4
REMARK    4  A    between atoms: C_4  and  N_5
REMARK    5  A    between atoms: C_4  and  C_23
REMARK    6  A    between atoms: C_6  and  C_8
REMARK    7  A    between atoms: C_8  and  N_9
REMARK                            x       y       z     vdW  Elec       q    Type
REMARK                         _______ _______ _______ _____ _____    ______ ____
ROOT
ATOM      1  N   UNL     1       2.123   6.594  20.258  0.00  0.00    +0.000 N 
ATOM      2  C   UNL     1       1.819   7.935  20.207  0.00  0.00    +0.000 C 
ATOM      3  O   UNL     1       1.619   8.556  19.166  0.00  0.00    +0.000 OA
ATOM      4  H   UNL     1       2.158   6.144  21.166  0.00  0.00    +0.000 HD
ENDROOT
BRANCH   1   5
ATOM      5  C   UNL     1       2.388   5.774  19.076  0.00  0.00    +0.000 C 
BRANCH   5   6
ATOM      6  C   UNL     1       3.851   5.902  18.647  0.00  0.00    +0.000 A 
ATOM      7  C   UNL     1       4.865   5.247  19.375  0.00  0.00    +0.000 A 
ATOM      8  C   UNL     1       6.211   5.379  19.006  0.00  0.00    +0.000 A 
ATOM      9  C   UNL     1       6.547   6.165  17.910  0.00  0.00    +0.000 A 
ATOM     10  F   UNL     1       7.831   6.295  17.559  0.00  0.00    +0.000 F 
ATOM     11  C   UNL     1       5.570   6.822  17.171  0.00  0.00    +0.000 A 
ATOM     12  C   UNL     1       4.231   6.692  17.547  0.00  0.00    +0.000 A 
ENDBRANCH   5   6
BRANCH   5  14
ATOM     13  C   UNL     1       0.951   4.087  20.420  0.00  0.00    +0.000 C 
ATOM     14  C   UNL     1       1.958   4.291  19.281  0.00  0.00    +0.000 C 
ATOM     15  C   UNL     1       1.385   3.684  17.994  0.00  0.00    +0.000 C 
ENDBRANCH   5  14
ENDBRANCH   1   5
BRANCH   2  16
ATOM     16  C   UNL     1       1.650   8.592  21.576  0.00  0.00    +0.000 C 
BRANCH  16  17
ATOM     17  N   UNL     1       0.597   9.590  21.509  0.00  0.00    +0.000 N 
ATOM     18  C   UNL     1       0.183  10.073  20.272  0.00  0.00    +0.000 A 
ATOM     19  N   UNL     1      -0.732  10.970  20.042  0.00  0.00    +0.000 NA
ATOM     20  C   UNL     1      -1.331  11.449  21.211  0.00  0.00    +0.000 A 
ATOM     21  C   UNL     1      -0.989  11.011  22.457  0.00  0.00    +0.000 A 
ATOM     22  O   UNL     1      -1.723  11.642  23.412  0.00  0.00    +0.000 OA
ATOM     23  C   UNL     1      -2.557  12.496  22.733  0.00  0.00    +0.000 A 
ATOM     24  C   UNL     1      -3.497  13.345  23.320  0.00  0.00    +0.000 A 
ATOM     25  C   UNL     1      -4.261  14.134  22.451  0.00  0.00    +0.000 A 
ATOM     26  C   UNL     1      -4.083  14.068  21.067  0.00  0.00    +0.000 A 
ATOM     27  C   UNL     1      -3.131  13.207  20.501  0.00  0.00    +0.000 A 
ATOM     28  C   UNL     1      -2.353  12.407  21.353  0.00  0.00    +0.000 A 
ATOM     29  C   UNL     1       0.012  10.020  22.703  0.00  0.00    +0.000 A 
ATOM     30  O   UNL     1       0.332   9.573  23.803  0.00  0.00    +0.000 OA
ENDBRANCH  16  17
ENDBRANCH   2  16
TORSDOF 5
ENDMDL
MODEL 8
REMARK VINA RESULT:      -7.8      3.468      5.697
REMARK  Name = 
REMARK  7 active torsions:
REMARK  status: ('A' for Active; 'I' for Inactive)
REMARK    1  A    between atoms: C_1  and  C_2
REMARK    2  A    between atoms: C_2  and  C_3
REMARK    3  A    between atoms: C_2  and  C_4
REMARK    4  A    between atoms: C_4  and  N_5
REMARK    5  A    between atoms: C_4  and  C_23
REMARK    6  A    between atoms: C_6  and  C_8
REMARK    7  A    between atoms: C_8  and  N_9
REMARK                            x       y       z     vdW  Elec       q    Type
REMARK                         _______ _______ _______ _____ _____    ______ ____
ROOT
ATOM      1  N   UNL     1       3.053   7.365  18.064  0.00  0.00    +0.000 N 
ATOM      2  C   UNL     1       2.122   8.178  18.666  0.00  0.00    +0.000 C 
ATOM      3  O   UNL     1       1.809   8.104  19.851  0.00  0.00    +0.000 OA
ATOM      4  H   UNL     1       3.330   7.575  17.110  0.00  0.00    +0.000 HD
ENDROOT
BRANCH   1   5
ATOM      5  C   UNL     1       3.680   6.218  18.721  0.00  0.00    +0.000 C 
BRANCH   5   6
ATOM      6  C   UNL     1       2.739   5.012  18.714  0.00  0.00    +0.000 A 
ATOM      7  C   UNL     1       1.905   4.756  19.821  0.00  0.00    +0.000 A 
ATOM      8  C   UNL     1       1.058   3.638  19.837  0.00  0.00    +0.000 A 
ATOM      9  C   UNL     1       1.042   2.775  18.748  0.00  0.00    +0.000 A 
ATOM     10  F   UNL     1       0.238   1.706  18.762  0.00  0.00    +0.000 F 
ATOM     11  C   UNL     1       1.851   3.002  17.641  0.00  0.00    +0.000 A 
ATOM     12  C   UNL     1       2.699   4.113  17.633  0.00  0.00    +0.000 A 
ENDBRANCH   5   6
BRANCH   5  14
ATOM     13  C   UNL     1       5.681   7.021  17.282  0.00  0.00    +0.000 C 
ATOM     14  C   UNL     1       5.076   5.885  18.116  0.00  0.00    +0.000 C 
ATOM     15  C   UNL     1       6.080   5.474  19.201  0.00  0.00    +0.000 C 
ENDBRANCH   5  14
ENDBRANCH   1   5
BRANCH   2  16
ATOM     16  C   UNL     1       1.561   9.270  17.757  0.00  0.00    +0.000 C 
BRANCH  16  17
ATOM     17  N   UNL     1       0.736  10.176  18.537  0.00  0.00    +0.000 N 
ATOM     18  C   UNL     1       1.313  10.930  19.554  0.00  0.00    +0.000 A 
ATOM     19  N   UNL     1       0.716  11.771  20.347  0.00  0.00    +0.000 NA
ATOM     20  C   UNL     1      -0.652  11.890  20.085  0.00  0.00    +0.000 A 
ATOM     21  C   UNL     1      -1.285  11.197  19.094  0.00  0.00    +0.000 A 
ATOM     22  O   UNL     1      -2.609  11.499  19.059  0.00  0.00    +0.000 OA
ATOM     23  C   UNL     1      -2.805  12.420  20.059  0.00  0.00    +0.000 A 
ATOM     24  C   UNL     1      -4.026  13.015  20.381  0.00  0.00    +0.000 A 
ATOM     25  C   UNL     1      -4.015  13.942  21.432  0.00  0.00    +0.000 A 
ATOM     26  C   UNL     1      -2.837  14.247  22.117  0.00  0.00    +0.000 A 
ATOM     27  C   UNL     1      -1.623  13.634  21.775  0.00  0.00    +0.000 A 
ATOM     28  C   UNL     1      -1.609  12.701  20.725  0.00  0.00    +0.000 A 
ATOM     29  C   UNL     1      -0.621  10.279  18.221  0.00  0.00    +0.000 A 
ATOM     30  O   UNL     1      -1.141   9.656  17.297  0.00  0.00    +0.000 OA
ENDBRANCH  16  17
ENDBRANCH   2  16
TORSDOF 5
ENDMDL
MODEL 9
REMARK VINA RESULT:      -7.7      3.561      8.787
REMARK  Name = 
REMARK  7 active torsions:
REMARK  status: ('A' for Active; 'I' for Inactive)
REMARK    1  A    between atoms: C_1  and  C_2
REMARK    2  A    between atoms: C_2  and  C_3
REMARK    3  A    between atoms: C_2  and  C_4
REMARK    4  A    between atoms: C_4  and  N_5
REMARK    5  A    between atoms: C_4  and  C_23
REMARK    6  A    between atoms: C_6  and  C_8
REMARK    7  A    between atoms: C_8  and  N_9
REMARK                            x       y       z     vdW  Elec       q    Type
REMARK                         _______ _______ _______ _____ _____    ______ ____
ROOT
ATOM      1  N   UNL     1      -0.349   9.692  20.668  0.00  0.00    +0.000 N 
ATOM      2  C   UNL     1       0.891   9.307  21.120  0.00  0.00    +0.000 C 
ATOM      3  O   UNL     1       1.758  10.089  21.500  0.00  0.00    +0.000 OA
ATOM      4  H   UNL     1      -1.039   8.971  20.483  0.00  0.00    +0.000 HD
ENDROOT
BRANCH   1   5
ATOM      5  C   UNL     1      -0.739  11.085  20.448  0.00  0.00    +0.000 C 
BRANCH   5   6
ATOM      6  C   UNL     1      -1.712  11.193  19.271  0.00  0.00    +0.000 A 
ATOM      7  C   UNL     1      -2.887  11.962  19.390  0.00  0.00    +0.000 A 
ATOM      8  C   UNL     1      -3.798  12.047  18.327  0.00  0.00    +0.000 A 
ATOM      9  C   UNL     1      -3.537  11.365  17.145  0.00  0.00    +0.000 A 
ATOM     10  F   UNL     1      -4.406  11.441  16.131  0.00  0.00    +0.000 F 
ATOM     11  C   UNL     1      -2.386  10.600  16.997  0.00  0.00    +0.000 A 
ATOM     12  C   UNL     1      -1.484  10.513  18.061  0.00  0.00    +0.000 A 
ENDBRANCH   5   6
BRANCH   5  14
ATOM     13  C   UNL     1      -1.277  10.834  22.971  0.00  0.00    +0.000 C 
ATOM     14  C   UNL     1      -1.297  11.750  21.741  0.00  0.00    +0.000 C 
ATOM     15  C   UNL     1      -0.553  13.050  22.075  0.00  0.00    +0.000 C 
ENDBRANCH   5  14
ENDBRANCH   1   5
BRANCH   2  16
ATOM     16  C   UNL     1       1.085   7.794  21.206  0.00  0.00    +0.000 C 
BRANCH  16  17
ATOM     17  N   UNL     1       1.927   7.348  20.111  0.00  0.00    +0.000 N 
ATOM     18  C   UNL     1       2.275   8.240  19.102  0.00  0.00    +0.000 A 
ATOM     19  N   UNL     1       3.006   7.998  18.052  0.00  0.00    +0.000 NA
ATOM     20  C   UNL     1       3.468   6.680  18.003  0.00  0.00    +0.000 A 
ATOM     21  C   UNL     1       3.182   5.753  18.963  0.00  0.00    +0.000 A 
ATOM     22  O   UNL     1       3.754   4.556  18.668  0.00  0.00    +0.000 OA
ATOM     23  C   UNL     1       4.427   4.748  17.486  0.00  0.00    +0.000 A 
ATOM     24  C   UNL     1       5.168   3.777  16.811  0.00  0.00    +0.000 A 
ATOM     25  C   UNL     1       5.790   4.176  15.621  0.00  0.00    +0.000 A 
ATOM     26  C   UNL     1       5.667   5.482  15.142  0.00  0.00    +0.000 A 
ATOM     27  C   UNL     1       4.915   6.439  15.838  0.00  0.00    +0.000 A 
ATOM     28  C   UNL     1       4.282   6.062  17.034  0.00  0.00    +0.000 A 
ATOM     29  C   UNL     1       2.385   6.027  20.118  0.00  0.00    +0.000 A 
ATOM     30  O   UNL     1       2.127   5.236  21.023  0.00  0.00    +0.000 OA
ENDBRANCH  16  17
ENDBRANCH   2  16
TORSDOF 5
ENDMDL
