MODEL 1
REMARK VINA RESULT:      -7.4      0.000      0.000
REMARK  Name = 
REMARK  6 active torsions:
REMARK  status: ('A' for Active; 'I' for Inactive)
REMARK    1  A    between atoms: C_2  and  C_7
REMARK    2  A    between atoms: N_3  and  C_4
REMARK    3  A    between atoms: C_7  and  S_8
REMARK    4  A    between atoms: C_7  and  C_25
REMARK    5  A    between atoms: S_8  and  C_9
REMARK    6  A    between atoms: N_18  and  C_19
REMARK                            x       y       z     vdW  Elec       q    Type
REMARK                         _______ _______ _______ _____ _____    ______ ____
ROOT
ATOM      1  C   UNL     1       3.565   5.786  17.591  0.00  0.00    +0.000 A 
ATOM      2  N   UNL     1       3.361   7.039  17.331  0.00  0.00    +0.000 NA
ATOM      3  C   UNL     1       2.654   7.721  18.258  0.00  0.00    +0.000 A 
ATOM      4  S   UNL     1       2.294   9.381  18.077  0.00  0.00    +0.000 S 
ATOM      5  C   UNL     1       1.392   9.409  19.536  0.00  0.00    +0.000 A 
ATOM      6  C   UNL     1       1.378   8.179  20.154  0.00  0.00    +0.000 A 
ATOM      7  C   UNL     1       2.104   7.205  19.404  0.00  0.00    +0.000 A 
ATOM      8  C   UNL     1       2.314   5.807  19.700  0.00  0.00    +0.000 A 
ATOM      9  O   UNL     1       1.838   5.315  20.718  0.00  0.00    +0.000 OA
ATOM     10  N   UNL     1       3.094   5.124  18.746  0.00  0.00    +0.000 N 
ENDROOT
BRANCH  10  11
ATOM     11  C   UNL     1       3.394   3.759  19.037  0.00  0.00    +0.000 A 
ATOM     12  C   UNL     1       4.457   3.440  19.897  0.00  0.00    +0.000 A 
ATOM     13  C   UNL     1       4.802   2.110  20.133  0.00  0.00    +0.000 A 
ATOM     14  C   UNL     1       4.102   1.086  19.498  0.00  0.00    +0.000 A 
ATOM     15  C   UNL     1       3.051   1.392  18.633  0.00  0.00    +0.000 A 
ATOM     16  C   UNL     1       2.693   2.721  18.405  0.00  0.00    +0.000 A 
ENDBRANCH  10  11
BRANCH   1  17
ATOM     17  S   UNL     1       4.295   4.806  16.312  0.00  0.00    +0.000 S 
BRANCH  17  18
ATOM     18  C   UNL     1       5.790   5.731  15.833  0.00  0.00    +0.000 C 
BRANCH  18  19
ATOM     19  C   UNL     1       6.716   6.079  16.991  0.00  0.00    +0.000 A 
ATOM     20  C   UNL     1       7.185   7.398  17.135  0.00  0.00    +0.000 A 
ATOM     21  C   UNL     1       8.024   7.753  18.195  0.00  0.00    +0.000 A 
ATOM     22  C   UNL     1       8.398   6.799  19.137  0.00  0.00    +0.000 A 
ATOM     23  C   UNL     1       7.931   5.494  19.021  0.00  0.00    +0.000 A 
ATOM     24  C   UNL     1       7.103   5.134  17.953  0.00  0.00    +0.000 A 
ENDBRANCH  18  19
BRANCH  18  26
ATOM     25  O   UNL     1       7.639   5.354  14.265  0.00  0.00    +0.000 OA
ATOM     26  C   UNL     1       6.470   5.145  14.579  0.00  0.00    +0.000 C 
ATOM     27  N   UNL     1       5.639   4.304  13.833  0.00  0.00    +0.000 N 
ATOM     28  H   UNL     1       4.652   4.263  14.062  0.00  0.00    +0.000 HD
BRANCH  27  29
ATOM     29  C   UNL     1       6.066   3.717  12.597  0.00  0.00    +0.000 C 
ATOM     30  C   UNL     1       5.065   3.296  11.554  0.00  0.00    +0.000 C 
ATOM     31  C   UNL     1       5.846   2.258  12.305  0.00  0.00    +0.000 C 
ENDBRANCH  27  29
ENDBRANCH  18  26
ENDBRANCH  17  18
ENDBRANCH   1  17
TORSDOF 6
ENDMDL
MODEL 2
REMARK VINA RESULT:      -7.2      0.159      1.253
REMARK  Name = 
REMARK  6 active torsions:
REMARK  status: ('A' for Active; 'I' for Inactive)
REMARK    1  A    between atoms: C_2  and  C_7
REMARK    2  A    between atoms: N_3  and  C_4
REMARK    3  A    between atoms: C_7  and  S_8
REMARK    4  A    between atoms: C_7  and  C_25
REMARK    5  A    between atoms: S_8  and  C_9
REMARK    6  A    between atoms: N_18  and  C_19
REMARK                            x       y       z     vdW  Elec       q    Type
REMARK                         _______ _______ _______ _____ _____    ______ ____
ROOT
ATOM      1  C   UNL     1       3.626   5.765  17.538  0.00  0.00    +0.000 A 
ATOM      2  N   UNL     1       3.354   7.010  17.303  0.00  0.00    +0.000 NA
ATOM      3  C   UNL     1       2.661   7.649  18.270  0.00  0.00    +0.000 A 
ATOM      4  S   UNL     1       2.218   9.293  18.126  0.00  0.00    +0.000 S 
ATOM      5  C   UNL     1       1.383   9.264  19.624  0.00  0.00    +0.000 A 
ATOM      6  C   UNL     1       1.453   8.029  20.227  0.00  0.00    +0.000 A 
ATOM      7  C   UNL     1       2.187   7.097  19.433  0.00  0.00    +0.000 A 
ATOM      8  C   UNL     1       2.473   5.707  19.702  0.00  0.00    +0.000 A 
ATOM      9  O   UNL     1       2.066   5.183  20.733  0.00  0.00    +0.000 OA
ATOM     10  N   UNL     1       3.238   5.070  18.705  0.00  0.00    +0.000 N 
ENDROOT
BRANCH  10  11
ATOM     11  C   UNL     1       3.612   3.717  18.965  0.00  0.00    +0.000 A 
ATOM     12  C   UNL     1       2.990   2.668  18.269  0.00  0.00    +0.000 A 
ATOM     13  C   UNL     1       3.297   1.341  18.565  0.00  0.00    +0.000 A 
ATOM     14  C   UNL     1       4.214   1.047  19.571  0.00  0.00    +0.000 A 
ATOM     15  C   UNL     1       4.830   2.080  20.278  0.00  0.00    +0.000 A 
ATOM     16  C   UNL     1       4.536   3.411  19.976  0.00  0.00    +0.000 A 
ENDBRANCH  10  11
BRANCH   1  17
ATOM     17  S   UNL     1       4.340   4.832  16.216  0.00  0.00    +0.000 S 
BRANCH  17  18
ATOM     18  C   UNL     1       5.845   5.759  15.773  0.00  0.00    +0.000 C 
BRANCH  18  19
ATOM     19  C   UNL     1       6.727   6.134  16.956  0.00  0.00    +0.000 A 
ATOM     20  C   UNL     1       7.071   5.155  17.907  0.00  0.00    +0.000 A 
ATOM     21  C   UNL     1       7.891   5.464  18.996  0.00  0.00    +0.000 A 
ATOM     22  C   UNL     1       8.391   6.754  19.148  0.00  0.00    +0.000 A 
ATOM     23  C   UNL     1       8.075   7.732  18.209  0.00  0.00    +0.000 A 
ATOM     24  C   UNL     1       7.244   7.428  17.127  0.00  0.00    +0.000 A 
ENDBRANCH  18  19
BRANCH  18  26
ATOM     25  O   UNL     1       7.741   5.394  14.257  0.00  0.00    +0.000 OA
ATOM     26  C   UNL     1       6.573   5.155  14.554  0.00  0.00    +0.000 C 
ATOM     27  N   UNL     1       5.789   4.259  13.821  0.00  0.00    +0.000 N 
ATOM     28  H   UNL     1       4.799   4.190  14.031  0.00  0.00    +0.000 HD
BRANCH  27  29
ATOM     29  C   UNL     1       6.263   3.645  12.617  0.00  0.00    +0.000 C 
ATOM     30  C   UNL     1       5.334   3.393  11.459  0.00  0.00    +0.000 C 
ATOM     31  C   UNL     1       5.877   2.239  12.248  0.00  0.00    +0.000 C 
ENDBRANCH  27  29
ENDBRANCH  18  26
ENDBRANCH  17  18
ENDBRANCH   1  17
TORSDOF 6
ENDMDL
MODEL 3
REMARK VINA RESULT:      -7.1      8.584     11.160
REMARK  Name = 
REMARK  6 active torsions:
REMARK  status: ('A' for Active; 'I' for Inactive)
REMARK    1  A    between atoms: C_2  and  C_7
REMARK    2  A    between atoms: N_3  and  C_4
REMARK    3  A    between atoms: C_7  and  S_8
REMARK    4  A    between atoms: C_7  and  C_25
REMARK    5  A    between atoms: S_8  and  C_9
REMARK    6  A    between atoms: N_18  and  C_19
REMARK                            x       y       z     vdW  Elec       q    Type
REMARK                         _______ _______ _______ _____ _____    ______ ____
ROOT
ATOM      1  C   UNL     1      -3.577  12.503  20.022  0.00  0.00    +0.000 A 
ATOM      2  N   UNL     1      -4.077  12.955  21.129  0.00  0.00    +0.000 NA
ATOM      3  C   UNL     1      -5.373  12.648  21.353  0.00  0.00    +0.000 A 
ATOM      4  S   UNL     1      -6.191  13.162  22.763  0.00  0.00    +0.000 S 
ATOM      5  C   UNL     1      -7.666  12.458  22.239  0.00  0.00    +0.000 A 
ATOM      6  C   UNL     1      -7.531  11.832  21.020  0.00  0.00    +0.000 A 
ATOM      7  C   UNL     1      -6.204  11.954  20.510  0.00  0.00    +0.000 A 
ATOM      8  C   UNL     1      -5.662  11.454  19.268  0.00  0.00    +0.000 A 
ATOM      9  O   UNL     1      -6.377  10.828  18.492  0.00  0.00    +0.000 OA
ATOM     10  N   UNL     1      -4.297  11.744  19.073  0.00  0.00    +0.000 N 
ENDROOT
BRANCH  10  11
ATOM     11  C   UNL     1      -3.699  11.202  17.896  0.00  0.00    +0.000 A 
ATOM     12  C   UNL     1      -4.146  11.608  16.628  0.00  0.00    +0.000 A 
ATOM     13  C   UNL     1      -3.617  11.034  15.473  0.00  0.00    +0.000 A 
ATOM     14  C   UNL     1      -2.651  10.035  15.571  0.00  0.00    +0.000 A 
ATOM     15  C   UNL     1      -2.207   9.615  16.826  0.00  0.00    +0.000 A 
ATOM     16  C   UNL     1      -2.724  10.197  17.985  0.00  0.00    +0.000 A 
ENDBRANCH  10  11
BRANCH   1  17
ATOM     17  S   UNL     1      -1.957  13.059  19.583  0.00  0.00    +0.000 S 
BRANCH  17  18
ATOM     18  C   UNL     1      -0.989  12.881  21.117  0.00  0.00    +0.000 C 
BRANCH  18  19
ATOM     19  C   UNL     1      -0.712  11.440  21.526  0.00  0.00    +0.000 A 
ATOM     20  C   UNL     1      -0.242  10.523  20.567  0.00  0.00    +0.000 A 
ATOM     21  C   UNL     1       0.036   9.198  20.914  0.00  0.00    +0.000 A 
ATOM     22  C   UNL     1      -0.139   8.769  22.226  0.00  0.00    +0.000 A 
ATOM     23  C   UNL     1      -0.588   9.666  23.191  0.00  0.00    +0.000 A 
ATOM     24  C   UNL     1      -0.879  10.988  22.843  0.00  0.00    +0.000 A 
ENDBRANCH  18  19
BRANCH  18  26
ATOM     25  O   UNL     1       0.828  14.130  22.194  0.00  0.00    +0.000 OA
ATOM     26  C   UNL     1       0.218  13.841  21.168  0.00  0.00    +0.000 C 
ATOM     27  N   UNL     1       0.596  14.333  19.916  0.00  0.00    +0.000 N 
ATOM     28  H   UNL     1      -0.011  14.165  19.120  0.00  0.00    +0.000 HD
BRANCH  27  29
ATOM     29  C   UNL     1       1.651  15.290  19.762  0.00  0.00    +0.000 C 
ATOM     30  C   UNL     1       1.507  16.458  18.823  0.00  0.00    +0.000 C 
ATOM     31  C   UNL     1       2.474  15.356  18.505  0.00  0.00    +0.000 C 
ENDBRANCH  27  29
ENDBRANCH  18  26
ENDBRANCH  17  18
ENDBRANCH   1  17
TORSDOF 6
ENDMDL
MODEL 4
REMARK VINA RESULT:      -7.0      8.509     10.958
REMARK  Name = 
REMARK  6 active torsions:
REMARK  status: ('A' for Active; 'I' for Inactive)
REMARK    1  A    between atoms: C_2  and  C_7
REMARK    2  A    between atoms: N_3  and  C_4
REMARK    3  A    between atoms: C_7  and  S_8
REMARK    4  A    between atoms: C_7  and  C_25
REMARK    5  A    between atoms: S_8  and  C_9
REMARK    6  A    between atoms: N_18  and  C_19
REMARK                            x       y       z     vdW  Elec       q    Type
REMARK                         _______ _______ _______ _____ _____    ______ ____
ROOT
ATOM      1  C   UNL     1      -3.658  12.368  19.824  0.00  0.00    +0.000 A 
ATOM      2  N   UNL     1      -4.105  12.852  20.940  0.00  0.00    +0.000 NA
ATOM      3  C   UNL     1      -5.400  12.585  21.215  0.00  0.00    +0.000 A 
ATOM      4  S   UNL     1      -6.154  13.145  22.643  0.00  0.00    +0.000 S 
ATOM      5  C   UNL     1      -7.665  12.473  22.183  0.00  0.00    +0.000 A 
ATOM      6  C   UNL     1      -7.590  11.824  20.972  0.00  0.00    +0.000 A 
ATOM      7  C   UNL     1      -6.279  11.900  20.413  0.00  0.00    +0.000 A 
ATOM      8  C   UNL     1      -5.796  11.365  19.162  0.00  0.00    +0.000 A 
ATOM      9  O   UNL     1      -6.554  10.746  18.423  0.00  0.00    +0.000 OA
ATOM     10  N   UNL     1      -4.431  11.613  18.915  0.00  0.00    +0.000 N 
ENDROOT
BRANCH  10  11
ATOM     11  C   UNL     1      -3.891  11.035  17.727  0.00  0.00    +0.000 A 
ATOM     12  C   UNL     1      -2.983   9.967  17.813  0.00  0.00    +0.000 A 
ATOM     13  C   UNL     1      -2.396   9.442  16.663  0.00  0.00    +0.000 A 
ATOM     14  C   UNL     1      -2.694   9.989  15.418  0.00  0.00    +0.000 A 
ATOM     15  C   UNL     1      -3.585  11.057  15.320  0.00  0.00    +0.000 A 
ATOM     16  C   UNL     1      -4.187  11.578  16.467  0.00  0.00    +0.000 A 
ENDBRANCH  10  11
BRANCH   1  17
ATOM     17  S   UNL     1      -2.039  12.871  19.319  0.00  0.00    +0.000 S 
BRANCH  17  18
ATOM     18  C   UNL     1      -1.054  12.824  20.851  0.00  0.00    +0.000 C 
BRANCH  18  19
ATOM     19  C   UNL     1      -0.770  11.423  21.377  0.00  0.00    +0.000 A 
ATOM     20  C   UNL     1      -0.433  10.396  20.475  0.00  0.00    +0.000 A 
ATOM     21  C   UNL     1      -0.152   9.104  20.927  0.00  0.00    +0.000 A 
ATOM     22  C   UNL     1      -0.191   8.817  22.288  0.00  0.00    +0.000 A 
ATOM     23  C   UNL     1      -0.507   9.823  23.196  0.00  0.00    +0.000 A 
ATOM     24  C   UNL     1      -0.801  11.113  22.745  0.00  0.00    +0.000 A 
ENDBRANCH  18  19
BRANCH  18  26
ATOM     25  O   UNL     1       0.317  14.722  21.585  0.00  0.00    +0.000 OA
ATOM     26  C   UNL     1       0.151  13.785  20.808  0.00  0.00    +0.000 C 
ATOM     27  N   UNL     1       1.083  13.471  19.815  0.00  0.00    +0.000 N 
ATOM     28  H   UNL     1       0.843  12.769  19.123  0.00  0.00    +0.000 HD
BRANCH  27  29
ATOM     29  C   UNL     1       2.237  14.284  19.572  0.00  0.00    +0.000 C 
ATOM     30  C   UNL     1       2.227  15.340  18.498  0.00  0.00    +0.000 C 
ATOM     31  C   UNL     1       3.072  14.111  18.332  0.00  0.00    +0.000 C 
ENDBRANCH  27  29
ENDBRANCH  18  26
ENDBRANCH  17  18
ENDBRANCH   1  17
TORSDOF 6
ENDMDL
MODEL 5
REMARK VINA RESULT:      -6.9      6.900     11.704
REMARK  Name = 
REMARK  6 active torsions:
REMARK  status: ('A' for Active; 'I' for Inactive)
REMARK    1  A    between atoms: C_2  and  C_7
REMARK    2  A    between atoms: N_3  and  C_4
REMARK    3  A    between atoms: C_7  and  S_8
REMARK    4  A    between atoms: C_7  and  C_25
REMARK    5  A    between atoms: S_8  and  C_9
REMARK    6  A    between atoms: N_18  and  C_19
REMARK                            x       y       z     vdW  Elec       q    Type
REMARK                         _______ _______ _______ _____ _____    ______ ____
ROOT
ATOM      1  C   UNL     1      -1.236  11.586  20.476  0.00  0.00    +0.000 A 
ATOM      2  N   UNL     1      -0.616  10.821  19.633  0.00  0.00    +0.000 NA
ATOM      3  C   UNL     1       0.175   9.872  20.178  0.00  0.00    +0.000 A 
ATOM      4  S   UNL     1       1.064   8.776  19.215  0.00  0.00    +0.000 S 
ATOM      5  C   UNL     1       1.777   8.045  20.594  0.00  0.00    +0.000 A 
ATOM      6  C   UNL     1       1.334   8.618  21.765  0.00  0.00    +0.000 A 
ATOM      7  C   UNL     1       0.414   9.680  21.516  0.00  0.00    +0.000 A 
ATOM      8  C   UNL     1      -0.261  10.534  22.465  0.00  0.00    +0.000 A 
ATOM      9  O   UNL     1      -0.072  10.387  23.668  0.00  0.00    +0.000 OA
ATOM     10  N   UNL     1      -1.119  11.485  21.880  0.00  0.00    +0.000 N 
ENDROOT
BRANCH  10  11
ATOM     11  C   UNL     1      -1.867  12.299  22.783  0.00  0.00    +0.000 A 
ATOM     12  C   UNL     1      -1.357  13.538  23.203  0.00  0.00    +0.000 A 
ATOM     13  C   UNL     1      -2.047  14.308  24.138  0.00  0.00    +0.000 A 
ATOM     14  C   UNL     1      -3.244  13.842  24.676  0.00  0.00    +0.000 A 
ATOM     15  C   UNL     1      -3.756  12.608  24.275  0.00  0.00    +0.000 A 
ATOM     16  C   UNL     1      -3.075  11.839  23.329  0.00  0.00    +0.000 A 
ENDBRANCH  10  11
BRANCH   1  17
ATOM     17  S   UNL     1      -2.109  12.974  19.813  0.00  0.00    +0.000 S 
BRANCH  17  18
ATOM     18  C   UNL     1      -3.856  12.458  19.833  0.00  0.00    +0.000 C 
BRANCH  18  19
ATOM     19  C   UNL     1      -4.776  13.370  20.634  0.00  0.00    +0.000 A 
ATOM     20  C   UNL     1      -4.419  14.717  20.833  0.00  0.00    +0.000 A 
ATOM     21  C   UNL     1      -5.248  15.583  21.551  0.00  0.00    +0.000 A 
ATOM     22  C   UNL     1      -6.453  15.123  22.072  0.00  0.00    +0.000 A 
ATOM     23  C   UNL     1      -6.831  13.798  21.872  0.00  0.00    +0.000 A 
ATOM     24  C   UNL     1      -5.996  12.927  21.166  0.00  0.00    +0.000 A 
ENDBRANCH  18  19
BRANCH  18  26
ATOM     25  O   UNL     1      -5.387  12.484  17.915  0.00  0.00    +0.000 OA
ATOM     26  C   UNL     1      -4.366  12.045  18.436  0.00  0.00    +0.000 C 
ATOM     27  N   UNL     1      -3.528  11.139  17.780  0.00  0.00    +0.000 N 
ATOM     28  H   UNL     1      -2.767  10.713  18.297  0.00  0.00    +0.000 HD
BRANCH  27  29
ATOM     29  C   UNL     1      -3.862  10.584  16.502  0.00  0.00    +0.000 C 
ATOM     30  C   UNL     1      -2.940   9.612  15.815  0.00  0.00    +0.000 C 
ATOM     31  C   UNL     1      -3.127  10.991  15.254  0.00  0.00    +0.000 C 
ENDBRANCH  27  29
ENDBRANCH  18  26
ENDBRANCH  17  18
ENDBRANCH   1  17
TORSDOF 6
ENDMDL
MODEL 6
REMARK VINA RESULT:      -6.8      5.560      9.631
REMARK  Name = 
REMARK  6 active torsions:
REMARK  status: ('A' for Active; 'I' for Inactive)
REMARK    1  A    between atoms: C_2  and  C_7
REMARK    2  A    between atoms: N_3  and  C_4
REMARK    3  A    between atoms: C_7  and  S_8
REMARK    4  A    between atoms: C_7  and  C_25
REMARK    5  A    between atoms: S_8  and  C_9
REMARK    6  A    between atoms: N_18  and  C_19
REMARK                            x       y       z     vdW  Elec       q    Type
REMARK                         _______ _______ _______ _____ _____    ______ ____
ROOT
ATOM      1  C   UNL     1       1.178  13.022  20.085  0.00  0.00    +0.000 A 
ATOM      2  N   UNL     1       2.242  13.260  19.384  0.00  0.00    +0.000 NA
ATOM      3  C   UNL     1       2.334  14.503  18.866  0.00  0.00    +0.000 A 
ATOM      4  S   UNL     1       3.671  14.988  17.917  0.00  0.00    +0.000 S 
ATOM      5  C   UNL     1       2.993  16.541  17.644  0.00  0.00    +0.000 A 
ATOM      6  C   UNL     1       1.779  16.689  18.275  0.00  0.00    +0.000 A 
ATOM      7  C   UNL     1       1.400  15.503  18.973  0.00  0.00    +0.000 A 
ATOM      8  C   UNL     1       0.204  15.247  19.741  0.00  0.00    +0.000 A 
ATOM      9  O   UNL     1      -0.650  16.119  19.859  0.00  0.00    +0.000 OA
ATOM     10  N   UNL     1       0.148  13.961  20.314  0.00  0.00    +0.000 N 
ENDROOT
BRANCH  10  11
ATOM     11  C   UNL     1      -0.979  13.691  21.147  0.00  0.00    +0.000 A 
ATOM     12  C   UNL     1      -0.841  13.705  22.545  0.00  0.00    +0.000 A 
ATOM     13  C   UNL     1      -1.918  13.374  23.366  0.00  0.00    +0.000 A 
ATOM     14  C   UNL     1      -3.138  13.008  22.801  0.00  0.00    +0.000 A 
ATOM     15  C   UNL     1      -3.284  12.980  21.414  0.00  0.00    +0.000 A 
ATOM     16  C   UNL     1      -2.212  13.324  20.587  0.00  0.00    +0.000 A 
ENDBRANCH  10  11
BRANCH   1  17
ATOM     17  S   UNL     1       0.908  11.352  20.600  0.00  0.00    +0.000 S 
BRANCH  17  18
ATOM     18  C   UNL     1       0.649  10.437  19.046  0.00  0.00    +0.000 C 
BRANCH  18  19
ATOM     19  C   UNL     1       1.495   9.179  18.905  0.00  0.00    +0.000 A 
ATOM     20  C   UNL     1       1.540   8.248  19.960  0.00  0.00    +0.000 A 
ATOM     21  C   UNL     1       2.294   7.077  19.856  0.00  0.00    +0.000 A 
ATOM     22  C   UNL     1       3.008   6.808  18.692  0.00  0.00    +0.000 A 
ATOM     23  C   UNL     1       2.963   7.708  17.632  0.00  0.00    +0.000 A 
ATOM     24  C   UNL     1       2.220   8.887  17.739  0.00  0.00    +0.000 A 
ENDBRANCH  18  19
BRANCH  18  26
ATOM     25  O   UNL     1      -1.755  10.287  19.513  0.00  0.00    +0.000 OA
ATOM     26  C   UNL     1      -0.844  10.290  18.689  0.00  0.00    +0.000 C 
ATOM     27  N   UNL     1      -1.086  10.198  17.316  0.00  0.00    +0.000 N 
ATOM     28  H   UNL     1      -0.299  10.080  16.687  0.00  0.00    +0.000 HD
BRANCH  27  29
ATOM     29  C   UNL     1      -2.401   9.989  16.788  0.00  0.00    +0.000 C 
ATOM     30  C   UNL     1      -2.738  10.374  15.372  0.00  0.00    +0.000 C 
ATOM     31  C   UNL     1      -3.331  11.140  16.518  0.00  0.00    +0.000 C 
ENDBRANCH  27  29
ENDBRANCH  18  26
ENDBRANCH  17  18
ENDBRANCH   1  17
TORSDOF 6
ENDMDL
MODEL 7
REMARK VINA RESULT:      -6.7      5.813      9.955
REMARK  Name = 
REMARK  6 active torsions:
REMARK  status: ('A' for Active; 'I' for Inactive)
REMARK    1  A    between atoms: C_2  and  C_7
REMARK    2  A    between atoms: N_3  and  C_4
REMARK    3  A    between atoms: C_7  and  S_8
REMARK    4  A    between atoms: C_7  and  C_25
REMARK    5  A    between atoms: S_8  and  C_9
REMARK    6  A    between atoms: N_18  and  C_19
REMARK                            x       y       z     vdW  Elec       q    Type
REMARK                         _______ _______ _______ _____ _____    ______ ____
ROOT
ATOM      1  C   UNL     1       1.114  13.341  20.111  0.00  0.00    +0.000 A 
ATOM      2  N   UNL     1       2.110  13.502  19.297  0.00  0.00    +0.000 NA
ATOM      3  C   UNL     1       2.256  14.746  18.793  0.00  0.00    +0.000 A 
ATOM      4  S   UNL     1       3.516  15.136  17.706  0.00  0.00    +0.000 S 
ATOM      5  C   UNL     1       2.956  16.749  17.538  0.00  0.00    +0.000 A 
ATOM      6  C   UNL     1       1.839  16.987  18.306  0.00  0.00    +0.000 A 
ATOM      7  C   UNL     1       1.435  15.821  19.023  0.00  0.00    +0.000 A 
ATOM      8  C   UNL     1       0.315  15.651  19.919  0.00  0.00    +0.000 A 
ATOM      9  O   UNL     1      -0.437  16.593  20.148  0.00  0.00    +0.000 OA
ATOM     10  N   UNL     1       0.206  14.361  20.473  0.00  0.00    +0.000 N 
ENDROOT
BRANCH  10  11
ATOM     11  C   UNL     1      -0.840  14.169  21.425  0.00  0.00    +0.000 A 
ATOM     12  C   UNL     1      -2.155  13.937  20.990  0.00  0.00    +0.000 A 
ATOM     13  C   UNL     1      -3.195  13.819  21.910  0.00  0.00    +0.000 A 
ATOM     14  C   UNL     1      -2.937  13.948  23.273  0.00  0.00    +0.000 A 
ATOM     15  C   UNL     1      -1.636  14.190  23.717  0.00  0.00    +0.000 A 
ATOM     16  C   UNL     1      -0.589  14.296  22.800  0.00  0.00    +0.000 A 
ENDBRANCH  10  11
BRANCH   1  17
ATOM     17  S   UNL     1       0.753  11.688  20.626  0.00  0.00    +0.000 S 
BRANCH  17  18
ATOM     18  C   UNL     1       0.509  10.774  19.069  0.00  0.00    +0.000 C 
BRANCH  18  19
ATOM     19  C   UNL     1       1.277   9.462  18.979  0.00  0.00    +0.000 A 
ATOM     20  C   UNL     1       2.011   9.163  17.816  0.00  0.00    +0.000 A 
ATOM     21  C   UNL     1       2.738   7.975  17.708  0.00  0.00    +0.000 A 
ATOM     22  C   UNL     1       2.754   7.069  18.764  0.00  0.00    +0.000 A 
ATOM     23  C   UNL     1       2.046   7.354  19.928  0.00  0.00    +0.000 A 
ATOM     24  C   UNL     1       1.308   8.536  20.033  0.00  0.00    +0.000 A 
ENDBRANCH  18  19
BRANCH  18  26
ATOM     25  O   UNL     1      -1.909  11.086  19.347  0.00  0.00    +0.000 OA
ATOM     26  C   UNL     1      -0.972  10.720  18.642  0.00  0.00    +0.000 C 
ATOM     27  N   UNL     1      -1.164  10.246  17.341  0.00  0.00    +0.000 N 
ATOM     28  H   UNL     1      -0.376   9.841  16.847  0.00  0.00    +0.000 HD
BRANCH  27  29
ATOM     29  C   UNL     1      -2.471  10.058  16.786  0.00  0.00    +0.000 C 
ATOM     30  C   UNL     1      -2.653   9.734  15.327  0.00  0.00    +0.000 C 
ATOM     31  C   UNL     1      -3.082  11.071  15.856  0.00  0.00    +0.000 C 
ENDBRANCH  27  29
ENDBRANCH  18  26
ENDBRANCH  17  18
ENDBRANCH   1  17
TORSDOF 6
ENDMDL
MODEL 8
REMARK VINA RESULT:      -6.7      4.088      8.563
REMARK  Name = 
REMARK  6 active torsions:
REMARK  status: ('A' for Active; 'I' for Inactive)
REMARK    1  A    between atoms: C_2  and  C_7
REMARK    2  A    between atoms: N_3  and  C_4
REMARK    3  A    between atoms: C_7  and  S_8
REMARK    4  A    between atoms: C_7  and  C_25
REMARK    5  A    between atoms: S_8  and  C_9
REMARK    6  A    between atoms: N_18  and  C_19
REMARK                            x       y       z     vdW  Elec       q    Type
REMARK                         _______ _______ _______ _____ _____    ______ ____
ROOT
ATOM      1  C   UNL     1       0.412  10.628  18.142  0.00  0.00    +0.000 A 
ATOM      2  N   UNL     1      -0.596   9.907  17.762  0.00  0.00    +0.000 NA
ATOM      3  C   UNL     1      -1.813  10.461  17.950  0.00  0.00    +0.000 A 
ATOM      4  S   UNL     1      -3.250   9.650  17.507  0.00  0.00    +0.000 S 
ATOM      5  C   UNL     1      -4.229  10.925  18.110  0.00  0.00    +0.000 A 
ATOM      6  C   UNL     1      -3.472  11.952  18.625  0.00  0.00    +0.000 A 
ATOM      7  C   UNL     1      -2.075  11.673  18.538  0.00  0.00    +0.000 A 
ATOM      8  C   UNL     1      -0.961  12.481  18.975  0.00  0.00    +0.000 A 
ATOM      9  O   UNL     1      -1.161  13.570  19.502  0.00  0.00    +0.000 OA
ATOM     10  N   UNL     1       0.302  11.908  18.728  0.00  0.00    +0.000 N 
ENDROOT
BRANCH  10  11
ATOM     11  C   UNL     1       1.434  12.706  19.072  0.00  0.00    +0.000 A 
ATOM     12  C   UNL     1       1.815  12.846  20.416  0.00  0.00    +0.000 A 
ATOM     13  C   UNL     1       2.876  13.678  20.769  0.00  0.00    +0.000 A 
ATOM     14  C   UNL     1       3.556  14.394  19.787  0.00  0.00    +0.000 A 
ATOM     15  C   UNL     1       3.180  14.272  18.449  0.00  0.00    +0.000 A 
ATOM     16  C   UNL     1       2.127  13.429  18.089  0.00  0.00    +0.000 A 
ENDBRANCH  10  11
BRANCH   1  17
ATOM     17  S   UNL     1       2.006   9.862  18.116  0.00  0.00    +0.000 S 
BRANCH  17  18
ATOM     18  C   UNL     1       1.707   8.179  18.749  0.00  0.00    +0.000 C 
BRANCH  18  19
ATOM     19  C   UNL     1       2.632   7.114  18.175  0.00  0.00    +0.000 A 
ATOM     20  C   UNL     1       2.245   5.761  18.215  0.00  0.00    +0.000 A 
ATOM     21  C   UNL     1       3.065   4.762  17.682  0.00  0.00    +0.000 A 
ATOM     22  C   UNL     1       4.279   5.097  17.091  0.00  0.00    +0.000 A 
ATOM     23  C   UNL     1       4.671   6.431  17.028  0.00  0.00    +0.000 A 
ATOM     24  C   UNL     1       3.859   7.431  17.572  0.00  0.00    +0.000 A 
ENDBRANCH  18  19
BRANCH  18  26
ATOM     25  O   UNL     1       1.802   7.194  20.995  0.00  0.00    +0.000 OA
ATOM     26  C   UNL     1       1.513   8.150  20.279  0.00  0.00    +0.000 C 
ATOM     27  N   UNL     1       1.007   9.343  20.802  0.00  0.00    +0.000 N 
ATOM     28  H   UNL     1       0.669  10.054  20.163  0.00  0.00    +0.000 HD
BRANCH  27  29
ATOM     29  C   UNL     1       0.695   9.490  22.193  0.00  0.00    +0.000 C 
ATOM     30  C   UNL     1      -0.652   9.084  22.731  0.00  0.00    +0.000 C 
ATOM     31  C   UNL     1      -0.275  10.535  22.673  0.00  0.00    +0.000 C 
ENDBRANCH  27  29
ENDBRANCH  18  26
ENDBRANCH  17  18
ENDBRANCH   1  17
TORSDOF 6
ENDMDL
MODEL 9
REMARK VINA RESULT:      -6.7      6.860     10.296
REMARK  Name = 
REMARK  6 active torsions:
REMARK  status: ('A' for Active; 'I' for Inactive)
REMARK    1  A    between atoms: C_2  and  C_7
REMARK    2  A    between atoms: N_3  and  C_4
REMARK    3  A    between atoms: C_7  and  S_8
REMARK    4  A    between atoms: C_7  and  C_25
REMARK    5  A    between atoms: S_8  and  C_9
REMARK    6  A    between atoms: N_18  and  C_19
REMARK                            x       y       z     vdW  Elec       q    Type
REMARK                         _______ _______ _______ _____ _____    ______ ____
ROOT
ATOM      1  C   UNL     1      -2.632  12.361  19.547  0.00  0.00    +0.000 A 
ATOM      2  N   UNL     1      -2.761  12.943  20.698  0.00  0.00    +0.000 NA
ATOM      3  C   UNL     1      -4.009  12.946  21.214  0.00  0.00    +0.000 A 
ATOM      4  S   UNL     1      -4.360  13.668  22.723  0.00  0.00    +0.000 S 
ATOM      5  C   UNL     1      -6.032  13.308  22.577  0.00  0.00    +0.000 A 
ATOM      6  C   UNL     1      -6.312  12.639  21.407  0.00  0.00    +0.000 A 
ATOM      7  C   UNL     1      -5.138  12.440  20.620  0.00  0.00    +0.000 A 
ATOM      8  C   UNL     1      -5.010  11.800  19.332  0.00  0.00    +0.000 A 
ATOM      9  O   UNL     1      -5.999  11.336  18.774  0.00  0.00    +0.000 OA
ATOM     10  N   UNL     1      -3.694  11.764  18.832  0.00  0.00    +0.000 N 
ENDROOT
BRANCH  10  11
ATOM     11  C   UNL     1      -3.506  11.071  17.598  0.00  0.00    +0.000 A 
ATOM     12  C   UNL     1      -2.735   9.899  17.559  0.00  0.00    +0.000 A 
ATOM     13  C   UNL     1      -2.488   9.253  16.348  0.00  0.00    +0.000 A 
ATOM     14  C   UNL     1      -2.993   9.782  15.162  0.00  0.00    +0.000 A 
ATOM     15  C   UNL     1      -3.751  10.952  15.187  0.00  0.00    +0.000 A 
ATOM     16  C   UNL     1      -4.013  11.595  16.398  0.00  0.00    +0.000 A 
ENDBRANCH  10  11
BRANCH   1  17
ATOM     17  S   UNL     1      -1.069  12.521  18.735  0.00  0.00    +0.000 S 
BRANCH  17  18
ATOM     18  C   UNL     1       0.137  11.911  19.957  0.00  0.00    +0.000 C 
BRANCH  18  19
ATOM     19  C   UNL     1       0.757  10.562  19.615  0.00  0.00    +0.000 A 
ATOM     20  C   UNL     1       1.229  10.324  18.310  0.00  0.00    +0.000 A 
ATOM     21  C   UNL     1       1.816   9.102  17.969  0.00  0.00    +0.000 A 
ATOM     22  C   UNL     1       1.952   8.102  18.926  0.00  0.00    +0.000 A 
ATOM     23  C   UNL     1       1.505   8.325  20.225  0.00  0.00    +0.000 A 
ATOM     24  C   UNL     1       0.905   9.541  20.565  0.00  0.00    +0.000 A 
ENDBRANCH  18  19
BRANCH  18  26
ATOM     25  O   UNL     1       1.919  12.880  21.338  0.00  0.00    +0.000 OA
ATOM     26  C   UNL     1       1.121  13.008  20.413  0.00  0.00    +0.000 C 
ATOM     27  N   UNL     1       1.057  14.173  19.644  0.00  0.00    +0.000 N 
ATOM     28  H   UNL     1       0.302  14.277  18.975  0.00  0.00    +0.000 HD
BRANCH  27  29
ATOM     29  C   UNL     1       1.844  15.330  19.951  0.00  0.00    +0.000 C 
ATOM     30  C   UNL     1       2.022  16.436  18.944  0.00  0.00    +0.000 C 
ATOM     31  C   UNL     1       3.184  15.561  19.310  0.00  0.00    +0.000 C 
ENDBRANCH  27  29
ENDBRANCH  18  26
ENDBRANCH  17  18
ENDBRANCH   1  17
TORSDOF 6
ENDMDL
