MODEL 1
REMARK VINA RESULT:      -9.0      0.000      0.000
REMARK  Name = 
REMARK  2 active torsions:
REMARK  status: ('A' for Active; 'I' for Inactive)
REMARK    1  A    between atoms: C_7  and  C_8
REMARK    2  A    between atoms: C_14  and  C_15
REMARK                            x       y       z     vdW  Elec       q    Type
REMARK                         _______ _______ _______ _____ _____    ______ ____
ROOT
ATOM      1  C   UNL     1       3.619   6.043  19.200  0.00  0.00    +0.000 C 
ATOM      2  O   UNL     1       4.608   6.130  19.932  0.00  0.00    +0.000 OA
ATOM      3  N   UNL     1       3.420   4.921  18.405  0.00  0.00    +0.000 N 
ATOM      4  C   UNL     1       2.264   4.555  17.602  0.00  0.00    +0.000 C 
ATOM      5  C   UNL     1       2.159   3.050  17.743  0.00  0.00    +0.000 C 
ATOM      6  C   UNL     1       3.602   2.594  17.878  0.00  0.00    +0.000 C 
ATOM      7  C   UNL     1       4.333   3.782  18.530  0.00  0.00    +0.000 C 
ENDROOT
BRANCH   1  14
ATOM      8  O   UNL     1      -1.383  11.840  20.511  0.00  0.00    +0.000 OA
ATOM      9  C   UNL     1      -0.600  10.894  20.541  0.00  0.00    +0.000 C 
ATOM     10  C   UNL     1      -0.142  10.266  21.836  0.00  0.00    +0.000 C 
ATOM     11  C   UNL     1       0.122   8.776  21.679  0.00  0.00    +0.000 C 
ATOM     12  C   UNL     1       0.966   8.498  20.467  0.00  0.00    +0.000 A 
ATOM     13  C   UNL     1       1.793   7.366  20.405  0.00  0.00    +0.000 A 
ATOM     14  C   UNL     1       2.598   7.133  19.286  0.00  0.00    +0.000 A 
ATOM     15  C   UNL     1       2.449   7.969  18.165  0.00  0.00    +0.000 A 
ATOM     16  C   UNL     1       1.570   9.055  18.190  0.00  0.00    +0.000 A 
ATOM     17  C   UNL     1       0.857   9.335  19.352  0.00  0.00    +0.000 A 
ATOM     18  N   UNL     1       0.005  10.441  19.398  0.00  0.00    +0.000 N 
ATOM     19  H   UNL     1      -0.202  10.963  18.556  0.00  0.00    +0.000 HD
ENDBRANCH   1  14
BRANCH   7  20
ATOM     20  C   UNL     1       5.634   4.046  17.843  0.00  0.00    +0.000 A 
ATOM     21  N   UNL     1       6.798   4.277  18.429  0.00  0.00    +0.000 NA
ATOM     22  N   UNL     1       7.716   4.608  17.461  0.00  0.00    +0.000 NA
ATOM     23  C   UNL     1       7.108   4.563  16.299  0.00  0.00    +0.000 A 
ATOM     24  C   UNL     1       7.546   4.834  14.973  0.00  0.00    +0.000 A 
ATOM     25  C   UNL     1       6.680   4.717  13.947  0.00  0.00    +0.000 A 
ATOM     26  C   UNL     1       5.300   4.305  14.163  0.00  0.00    +0.000 A 
ATOM     27  C   UNL     1       4.884   4.052  15.415  0.00  0.00    +0.000 A 
ATOM     28  N   UNL     1       5.781   4.186  16.477  0.00  0.00    +0.000 N 
ENDBRANCH   7  20
TORSDOF 2
ENDMDL
MODEL 2
REMARK VINA RESULT:      -8.8      1.584      2.324
REMARK  Name = 
REMARK  2 active torsions:
REMARK  status: ('A' for Active; 'I' for Inactive)
REMARK    1  A    between atoms: C_7  and  C_8
REMARK    2  A    between atoms: C_14  and  C_15
REMARK                            x       y       z     vdW  Elec       q    Type
REMARK                         _______ _______ _______ _____ _____    ______ ____
ROOT
ATOM      1  C   UNL     1       2.677   6.721  19.671  0.00  0.00    +0.000 C 
ATOM      2  O   UNL     1       3.812   7.054  19.322  0.00  0.00    +0.000 OA
ATOM      3  N   UNL     1       2.360   5.383  19.875  0.00  0.00    +0.000 N 
ATOM      4  C   UNL     1       1.148   4.798  20.428  0.00  0.00    +0.000 C 
ATOM      5  C   UNL     1       1.631   3.613  21.239  0.00  0.00    +0.000 C 
ATOM      6  C   UNL     1       2.850   3.121  20.478  0.00  0.00    +0.000 C 
ATOM      7  C   UNL     1       3.418   4.374  19.788  0.00  0.00    +0.000 C 
ENDROOT
BRANCH   1  14
ATOM      8  O   UNL     1      -2.018  12.425  22.072  0.00  0.00    +0.000 OA
ATOM      9  C   UNL     1      -1.261  11.469  21.924  0.00  0.00    +0.000 C 
ATOM     10  C   UNL     1      -0.699  10.697  23.094  0.00  0.00    +0.000 C 
ATOM     11  C   UNL     1      -0.492   9.229  22.756  0.00  0.00    +0.000 C 
ATOM     12  C   UNL     1       0.225   9.069  21.444  0.00  0.00    +0.000 A 
ATOM     13  C   UNL     1       1.011   7.937  21.182  0.00  0.00    +0.000 A 
ATOM     14  C   UNL     1       1.699   7.812  19.972  0.00  0.00    +0.000 A 
ATOM     15  C   UNL     1       1.466   8.767  18.965  0.00  0.00    +0.000 A 
ATOM     16  C   UNL     1       0.622   9.858  19.190  0.00  0.00    +0.000 A 
ATOM     17  C   UNL     1       0.032  10.023  20.440  0.00  0.00    +0.000 A 
ATOM     18  N   UNL     1      -0.781  11.131  20.686  0.00  0.00    +0.000 N 
ATOM     19  H   UNL     1      -1.054  11.744  19.929  0.00  0.00    +0.000 HD
ENDBRANCH   1  14
BRANCH   7  20
ATOM     20  C   UNL     1       3.778   4.080  18.367  0.00  0.00    +0.000 A 
ATOM     21  N   UNL     1       3.016   3.466  17.476  0.00  0.00    +0.000 NA
ATOM     22  N   UNL     1       3.753   3.268  16.333  0.00  0.00    +0.000 NA
ATOM     23  C   UNL     1       4.949   3.771  16.535  0.00  0.00    +0.000 A 
ATOM     24  C   UNL     1       6.118   3.827  15.726  0.00  0.00    +0.000 A 
ATOM     25  C   UNL     1       7.235   4.407  16.207  0.00  0.00    +0.000 A 
ATOM     26  C   UNL     1       7.271   4.993  17.540  0.00  0.00    +0.000 A 
ATOM     27  C   UNL     1       6.169   4.939  18.305  0.00  0.00    +0.000 A 
ATOM     28  N   UNL     1       5.016   4.326  17.808  0.00  0.00    +0.000 N 
ENDBRANCH   7  20
TORSDOF 2
ENDMDL
MODEL 3
REMARK VINA RESULT:      -8.2      2.943      8.589
REMARK  Name = 
REMARK  2 active torsions:
REMARK  status: ('A' for Active; 'I' for Inactive)
REMARK    1  A    between atoms: C_7  and  C_8
REMARK    2  A    between atoms: C_14  and  C_15
REMARK                            x       y       z     vdW  Elec       q    Type
REMARK                         _______ _______ _______ _____ _____    ______ ____
ROOT
ATOM      1  C   UNL     1       1.348   9.271  19.573  0.00  0.00    +0.000 C 
ATOM      2  O   UNL     1       1.169   9.940  18.552  0.00  0.00    +0.000 OA
ATOM      3  N   UNL     1       0.936   9.743  20.813  0.00  0.00    +0.000 N 
ATOM      4  C   UNL     1       0.912   9.060  22.098  0.00  0.00    +0.000 C 
ATOM      5  C   UNL     1      -0.345   9.564  22.776  0.00  0.00    +0.000 C 
ATOM      6  C   UNL     1      -0.480  10.994  22.281  0.00  0.00    +0.000 C 
ATOM      7  C   UNL     1       0.177  10.995  20.889  0.00  0.00    +0.000 C 
ENDROOT
BRANCH   1  14
ATOM      8  O   UNL     1       3.509   1.828  19.061  0.00  0.00    +0.000 OA
ATOM      9  C   UNL     1       3.026   2.927  19.318  0.00  0.00    +0.000 C 
ATOM     10  C   UNL     1       1.936   3.109  20.348  0.00  0.00    +0.000 C 
ATOM     11  C   UNL     1       2.038   4.455  21.048  0.00  0.00    +0.000 C 
ATOM     12  C   UNL     1       2.213   5.572  20.056  0.00  0.00    +0.000 A 
ATOM     13  C   UNL     1       1.780   6.874  20.349  0.00  0.00    +0.000 A 
ATOM     14  C   UNL     1       1.918   7.898  19.407  0.00  0.00    +0.000 A 
ATOM     15  C   UNL     1       2.635   7.634  18.227  0.00  0.00    +0.000 A 
ATOM     16  C   UNL     1       3.138   6.357  17.961  0.00  0.00    +0.000 A 
ATOM     17  C   UNL     1       2.895   5.323  18.861  0.00  0.00    +0.000 A 
ATOM     18  N   UNL     1       3.361   4.035  18.585  0.00  0.00    +0.000 N 
ATOM     19  H   UNL     1       3.986   3.873  17.806  0.00  0.00    +0.000 HD
ENDBRANCH   1  14
BRANCH   7  20
ATOM     20  C   UNL     1       1.067  12.184  20.723  0.00  0.00    +0.000 A 
ATOM     21  N   UNL     1       2.271  12.343  21.249  0.00  0.00    +0.000 NA
ATOM     22  N   UNL     1       2.701  13.620  20.977  0.00  0.00    +0.000 NA
ATOM     23  C   UNL     1       1.764  14.220  20.280  0.00  0.00    +0.000 A 
ATOM     24  C   UNL     1       1.649  15.537  19.754  0.00  0.00    +0.000 A 
ATOM     25  C   UNL     1       0.541  15.889  19.074  0.00  0.00    +0.000 A 
ATOM     26  C   UNL     1      -0.545  14.946  18.853  0.00  0.00    +0.000 A 
ATOM     27  C   UNL     1      -0.440  13.702  19.351  0.00  0.00    +0.000 A 
ATOM     28  N   UNL     1       0.705  13.343  20.065  0.00  0.00    +0.000 N 
ENDBRANCH   7  20
TORSDOF 2
ENDMDL
MODEL 4
REMARK VINA RESULT:      -8.2      0.741      1.515
REMARK  Name = 
REMARK  2 active torsions:
REMARK  status: ('A' for Active; 'I' for Inactive)
REMARK    1  A    between atoms: C_7  and  C_8
REMARK    2  A    between atoms: C_14  and  C_15
REMARK                            x       y       z     vdW  Elec       q    Type
REMARK                         _______ _______ _______ _____ _____    ______ ____
ROOT
ATOM      1  C   UNL     1       3.714   5.844  19.345  0.00  0.00    +0.000 C 
ATOM      2  O   UNL     1       4.726   5.837  20.051  0.00  0.00    +0.000 OA
ATOM      3  N   UNL     1       3.472   4.817  18.441  0.00  0.00    +0.000 N 
ATOM      4  C   UNL     1       2.286   4.555  17.640  0.00  0.00    +0.000 C 
ATOM      5  C   UNL     1       2.159   3.046  17.622  0.00  0.00    +0.000 C 
ATOM      6  C   UNL     1       3.598   2.558  17.662  0.00  0.00    +0.000 C 
ATOM      7  C   UNL     1       4.368   3.658  18.414  0.00  0.00    +0.000 C 
ENDROOT
BRANCH   1  14
ATOM      8  O   UNL     1      -1.749  11.355  19.691  0.00  0.00    +0.000 OA
ATOM      9  C   UNL     1      -0.887  10.530  19.402  0.00  0.00    +0.000 C 
ATOM     10  C   UNL     1      -0.476  10.258  17.974  0.00  0.00    +0.000 C 
ATOM     11  C   UNL     1       0.993   9.877  17.871  0.00  0.00    +0.000 C 
ATOM     12  C   UNL     1       1.354   8.824  18.882  0.00  0.00    +0.000 A 
ATOM     13  C   UNL     1       2.408   7.928  18.648  0.00  0.00    +0.000 A 
ATOM     14  C   UNL     1       2.715   6.933  19.580  0.00  0.00    +0.000 A 
ATOM     15  C   UNL     1       2.050   6.943  20.819  0.00  0.00    +0.000 A 
ATOM     16  C   UNL     1       1.051   7.882  21.091  0.00  0.00    +0.000 A 
ATOM     17  C   UNL     1       0.683   8.797  20.108  0.00  0.00    +0.000 A 
ATOM     18  N   UNL     1      -0.341   9.713  20.357  0.00  0.00    +0.000 N 
ATOM     19  H   UNL     1      -0.728   9.808  21.288  0.00  0.00    +0.000 HD
ENDBRANCH   1  14
BRANCH   7  20
ATOM     20  C   UNL     1       5.653   3.977  17.719  0.00  0.00    +0.000 A 
ATOM     21  N   UNL     1       6.810   4.253  18.297  0.00  0.00    +0.000 NA
ATOM     22  N   UNL     1       7.708   4.623  17.324  0.00  0.00    +0.000 NA
ATOM     23  C   UNL     1       7.093   4.556  16.165  0.00  0.00    +0.000 A 
ATOM     24  C   UNL     1       7.510   4.847  14.837  0.00  0.00    +0.000 A 
ATOM     25  C   UNL     1       6.643   4.697  13.817  0.00  0.00    +0.000 A 
ATOM     26  C   UNL     1       5.283   4.229  14.042  0.00  0.00    +0.000 A 
ATOM     27  C   UNL     1       4.886   3.957  15.296  0.00  0.00    +0.000 A 
ATOM     28  N   UNL     1       5.784   4.125  16.353  0.00  0.00    +0.000 N 
ENDBRANCH   7  20
TORSDOF 2
ENDMDL
MODEL 5
REMARK VINA RESULT:      -8.1      1.601      2.663
REMARK  Name = 
REMARK  2 active torsions:
REMARK  status: ('A' for Active; 'I' for Inactive)
REMARK    1  A    between atoms: C_7  and  C_8
REMARK    2  A    between atoms: C_14  and  C_15
REMARK                            x       y       z     vdW  Elec       q    Type
REMARK                         _______ _______ _______ _____ _____    ______ ____
ROOT
ATOM      1  C   UNL     1       2.742   6.708  19.691  0.00  0.00    +0.000 C 
ATOM      2  O   UNL     1       3.899   6.976  19.359  0.00  0.00    +0.000 OA
ATOM      3  N   UNL     1       2.333   5.388  19.841  0.00  0.00    +0.000 N 
ATOM      4  C   UNL     1       1.082   4.865  20.367  0.00  0.00    +0.000 C 
ATOM      5  C   UNL     1       1.478   3.619  21.131  0.00  0.00    +0.000 C 
ATOM      6  C   UNL     1       2.665   3.075  20.354  0.00  0.00    +0.000 C 
ATOM      7  C   UNL     1       3.321   4.312  19.716  0.00  0.00    +0.000 C 
ENDROOT
BRANCH   1  14
ATOM      8  O   UNL     1      -2.344  12.502  20.641  0.00  0.00    +0.000 OA
ATOM      9  C   UNL     1      -1.570  11.629  20.258  0.00  0.00    +0.000 C 
ATOM     10  C   UNL     1      -1.366  11.316  18.794  0.00  0.00    +0.000 C 
ATOM     11  C   UNL     1       0.054  10.858  18.506  0.00  0.00    +0.000 C 
ATOM     12  C   UNL     1       0.493   9.801  19.482  0.00  0.00    +0.000 A 
ATOM     13  C   UNL     1       1.461   8.848  19.130  0.00  0.00    +0.000 A 
ATOM     14  C   UNL     1       1.839   7.850  20.033  0.00  0.00    +0.000 A 
ATOM     15  C   UNL     1       1.345   7.913  21.349  0.00  0.00    +0.000 A 
ATOM     16  C   UNL     1       0.439   8.906  21.731  0.00  0.00    +0.000 A 
ATOM     17  C   UNL     1      -0.009   9.826  20.786  0.00  0.00    +0.000 A 
ATOM     18  N   UNL     1      -0.944  10.798  21.150  0.00  0.00    +0.000 N 
ATOM     19  H   UNL     1      -1.199  10.926  22.121  0.00  0.00    +0.000 HD
ENDBRANCH   1  14
BRANCH   7  20
ATOM     20  C   UNL     1       3.666   4.052  18.285  0.00  0.00    +0.000 A 
ATOM     21  N   UNL     1       2.877   3.505  17.374  0.00  0.00    +0.000 NA
ATOM     22  N   UNL     1       3.605   3.312  16.224  0.00  0.00    +0.000 NA
ATOM     23  C   UNL     1       4.822   3.752  16.441  0.00  0.00    +0.000 A 
ATOM     24  C   UNL     1       5.993   3.782  15.634  0.00  0.00    +0.000 A 
ATOM     25  C   UNL     1       7.135   4.294  16.133  0.00  0.00    +0.000 A 
ATOM     26  C   UNL     1       7.198   4.831  17.484  0.00  0.00    +0.000 A 
ATOM     27  C   UNL     1       6.094   4.801  18.249  0.00  0.00    +0.000 A 
ATOM     28  N   UNL     1       4.915   4.260  17.733  0.00  0.00    +0.000 N 
ENDBRANCH   7  20
TORSDOF 2
ENDMDL
MODEL 6
REMARK VINA RESULT:      -8.0      3.115      9.098
REMARK  Name = 
REMARK  2 active torsions:
REMARK  status: ('A' for Active; 'I' for Inactive)
REMARK    1  A    between atoms: C_7  and  C_8
REMARK    2  A    between atoms: C_14  and  C_15
REMARK                            x       y       z     vdW  Elec       q    Type
REMARK                         _______ _______ _______ _____ _____    ______ ____
ROOT
ATOM      1  C   UNL     1       1.222   9.004  20.197  0.00  0.00    +0.000 C 
ATOM      2  O   UNL     1       0.798   9.186  21.340  0.00  0.00    +0.000 OA
ATOM      3  N   UNL     1       1.301  10.057  19.293  0.00  0.00    +0.000 N 
ATOM      4  C   UNL     1       1.905  10.092  17.970  0.00  0.00    +0.000 C 
ATOM      5  C   UNL     1       2.519  11.473  17.865  0.00  0.00    +0.000 C 
ATOM      6  C   UNL     1       1.583  12.352  18.678  0.00  0.00    +0.000 C 
ATOM      7  C   UNL     1       0.988  11.416  19.745  0.00  0.00    +0.000 C 
ENDROOT
BRANCH   1  14
ATOM      8  O   UNL     1       3.132   1.615  18.748  0.00  0.00    +0.000 OA
ATOM      9  C   UNL     1       2.682   2.689  19.140  0.00  0.00    +0.000 C 
ATOM     10  C   UNL     1       1.580   2.776  20.169  0.00  0.00    +0.000 C 
ATOM     11  C   UNL     1       1.715   4.015  21.040  0.00  0.00    +0.000 C 
ATOM     12  C   UNL     1       1.948   5.244  20.205  0.00  0.00    +0.000 A 
ATOM     13  C   UNL     1       1.555   6.512  20.659  0.00  0.00    +0.000 A 
ATOM     14  C   UNL     1       1.747   7.644  19.862  0.00  0.00    +0.000 A 
ATOM     15  C   UNL     1       2.476   7.509  18.667  0.00  0.00    +0.000 A 
ATOM     16  C   UNL     1       2.939   6.260  18.244  0.00  0.00    +0.000 A 
ATOM     17  C   UNL     1       2.644   5.128  18.998  0.00  0.00    +0.000 A 
ATOM     18  N   UNL     1       3.069   3.870  18.563  0.00  0.00    +0.000 N 
ATOM     19  H   UNL     1       3.703   3.788  17.778  0.00  0.00    +0.000 HD
ENDBRANCH   1  14
BRANCH   7  20
ATOM     20  C   UNL     1      -0.487  11.624  19.870  0.00  0.00    +0.000 A 
ATOM     21  N   UNL     1      -1.380  11.511  18.900  0.00  0.00    +0.000 NA
ATOM     22  N   UNL     1      -2.603  11.914  19.383  0.00  0.00    +0.000 NA
ATOM     23  C   UNL     1      -2.445  12.254  20.641  0.00  0.00    +0.000 A 
ATOM     24  C   UNL     1      -3.342  12.765  21.619  0.00  0.00    +0.000 A 
ATOM     25  C   UNL     1      -2.891  13.044  22.857  0.00  0.00    +0.000 A 
ATOM     26  C   UNL     1      -1.500  12.824  23.224  0.00  0.00    +0.000 A 
ATOM     27  C   UNL     1      -0.650  12.344  22.301  0.00  0.00    +0.000 A 
ATOM     28  N   UNL     1      -1.119  12.066  21.015  0.00  0.00    +0.000 N 
ENDBRANCH   7  20
TORSDOF 2
ENDMDL
MODEL 7
REMARK VINA RESULT:      -8.0      3.022      9.501
REMARK  Name = 
REMARK  2 active torsions:
REMARK  status: ('A' for Active; 'I' for Inactive)
REMARK    1  A    between atoms: C_7  and  C_8
REMARK    2  A    between atoms: C_14  and  C_15
REMARK                            x       y       z     vdW  Elec       q    Type
REMARK                         _______ _______ _______ _____ _____    ______ ____
ROOT
ATOM      1  C   UNL     1       0.652  10.565  18.946  0.00  0.00    +0.000 C 
ATOM      2  O   UNL     1       1.354  11.570  19.078  0.00  0.00    +0.000 OA
ATOM      3  N   UNL     1      -0.675  10.673  18.547  0.00  0.00    +0.000 N 
ATOM      4  C   UNL     1      -1.618   9.624  18.188  0.00  0.00    +0.000 C 
ATOM      5  C   UNL     1      -2.433  10.213  17.055  0.00  0.00    +0.000 C 
ATOM      6  C   UNL     1      -2.499  11.695  17.383  0.00  0.00    +0.000 C 
ATOM      7  C   UNL     1      -1.206  11.985  18.166  0.00  0.00    +0.000 C 
ENDROOT
BRANCH   1  14
ATOM      8  O   UNL     1       4.798   4.014  19.425  0.00  0.00    +0.000 OA
ATOM      9  C   UNL     1       4.277   5.093  19.156  0.00  0.00    +0.000 C 
ATOM     10  C   UNL     1       4.764   5.965  18.023  0.00  0.00    +0.000 C 
ATOM     11  C   UNL     1       3.628   6.750  17.386  0.00  0.00    +0.000 C 
ATOM     12  C   UNL     1       2.779   7.423  18.429  0.00  0.00    +0.000 A 
ATOM     13  C   UNL     1       2.071   8.599  18.137  0.00  0.00    +0.000 A 
ATOM     14  C   UNL     1       1.310   9.234  19.123  0.00  0.00    +0.000 A 
ATOM     15  C   UNL     1       1.146   8.591  20.364  0.00  0.00    +0.000 A 
ATOM     16  C   UNL     1       1.787   7.380  20.636  0.00  0.00    +0.000 A 
ATOM     17  C   UNL     1       2.628   6.818  19.680  0.00  0.00    +0.000 A 
ATOM     18  N   UNL     1       3.303   5.627  19.959  0.00  0.00    +0.000 N 
ATOM     19  H   UNL     1       3.085   5.099  20.794  0.00  0.00    +0.000 HD
ENDBRANCH   1  14
BRANCH   7  20
ATOM     20  C   UNL     1      -1.490  12.829  19.367  0.00  0.00    +0.000 A 
ATOM     21  N   UNL     1      -2.322  12.536  20.352  0.00  0.00    +0.000 NA
ATOM     22  N   UNL     1      -2.406  13.622  21.191  0.00  0.00    +0.000 NA
ATOM     23  C   UNL     1      -1.618  14.558  20.716  0.00  0.00    +0.000 A 
ATOM     24  C   UNL     1      -1.330  15.883  21.145  0.00  0.00    +0.000 A 
ATOM     25  C   UNL     1      -0.469  16.641  20.439  0.00  0.00    +0.000 A 
ATOM     26  C   UNL     1       0.188  16.129  19.245  0.00  0.00    +0.000 A 
ATOM     27  C   UNL     1      -0.084  14.879  18.837  0.00  0.00    +0.000 A 
ATOM     28  N   UNL     1      -0.986  14.099  19.565  0.00  0.00    +0.000 N 
ENDBRANCH   7  20
TORSDOF 2
ENDMDL
MODEL 8
REMARK VINA RESULT:      -7.9      2.915     10.044
REMARK  Name = 
REMARK  2 active torsions:
REMARK  status: ('A' for Active; 'I' for Inactive)
REMARK    1  A    between atoms: C_7  and  C_8
REMARK    2  A    between atoms: C_14  and  C_15
REMARK                            x       y       z     vdW  Elec       q    Type
REMARK                         _______ _______ _______ _____ _____    ______ ____
ROOT
ATOM      1  C   UNL     1       0.266   9.985  20.703  0.00  0.00    +0.000 C 
ATOM      2  O   UNL     1      -0.538   9.485  21.494  0.00  0.00    +0.000 OA
ATOM      3  N   UNL     1       0.420  11.364  20.622  0.00  0.00    +0.000 N 
ATOM      4  C   UNL     1       1.404  12.140  19.883  0.00  0.00    +0.000 C 
ATOM      5  C   UNL     1       1.721  13.315  20.784  0.00  0.00    +0.000 C 
ATOM      6  C   UNL     1       0.410  13.588  21.504  0.00  0.00    +0.000 C 
ATOM      7  C   UNL     1      -0.297  12.222  21.569  0.00  0.00    +0.000 C 
ENDROOT
BRANCH   1  14
ATOM      8  O   UNL     1       4.309   4.459  17.033  0.00  0.00    +0.000 OA
ATOM      9  C   UNL     1       3.628   5.162  17.775  0.00  0.00    +0.000 C 
ATOM     10  C   UNL     1       2.953   4.615  19.011  0.00  0.00    +0.000 C 
ATOM     11  C   UNL     1       2.867   5.656  20.116  0.00  0.00    +0.000 C 
ATOM     12  C   UNL     1       2.341   6.963  19.592  0.00  0.00    +0.000 A 
ATOM     13  C   UNL     1       1.653   7.854  20.429  0.00  0.00    +0.000 A 
ATOM     14  C   UNL     1       1.140   9.053  19.925  0.00  0.00    +0.000 A 
ATOM     15  C   UNL     1       1.457   9.416  18.604  0.00  0.00    +0.000 A 
ATOM     16  C   UNL     1       2.207   8.568  17.785  0.00  0.00    +0.000 A 
ATOM     17  C   UNL     1       2.617   7.330  18.271  0.00  0.00    +0.000 A 
ATOM     18  N   UNL     1       3.334   6.459  17.447  0.00  0.00    +0.000 N 
ATOM     19  H   UNL     1       3.674   6.771  16.546  0.00  0.00    +0.000 HD
ENDBRANCH   1  14
BRANCH   7  20
ATOM     20  C   UNL     1      -1.740  12.354  21.204  0.00  0.00    +0.000 A 
ATOM     21  N   UNL     1      -2.232  12.475  19.981  0.00  0.00    +0.000 NA
ATOM     22  N   UNL     1      -3.584  12.707  20.075  0.00  0.00    +0.000 NA
ATOM     23  C   UNL     1      -3.902  12.713  21.349  0.00  0.00    +0.000 A 
ATOM     24  C   UNL     1      -5.131  12.929  22.032  0.00  0.00    +0.000 A 
ATOM     25  C   UNL     1      -5.162  12.888  23.378  0.00  0.00    +0.000 A 
ATOM     26  C   UNL     1      -3.962  12.614  24.156  0.00  0.00    +0.000 A 
ATOM     27  C   UNL     1      -2.800  12.413  23.512  0.00  0.00    +0.000 A 
ATOM     28  N   UNL     1      -2.769  12.467  22.117  0.00  0.00    +0.000 N 
ENDBRANCH   7  20
TORSDOF 2
ENDMDL
MODEL 9
REMARK VINA RESULT:      -7.9      2.986      9.220
REMARK  Name = 
REMARK  2 active torsions:
REMARK  status: ('A' for Active; 'I' for Inactive)
REMARK    1  A    between atoms: C_7  and  C_8
REMARK    2  A    between atoms: C_14  and  C_15
REMARK                            x       y       z     vdW  Elec       q    Type
REMARK                         _______ _______ _______ _____ _____    ______ ____
ROOT
ATOM      1  C   UNL     1       0.875   9.365  19.922  0.00  0.00    +0.000 C 
ATOM      2  O   UNL     1       0.144   9.415  20.915  0.00  0.00    +0.000 OA
ATOM      3  N   UNL     1       1.065  10.486  19.123  0.00  0.00    +0.000 N 
ATOM      4  C   UNL     1       1.990  10.684  18.017  0.00  0.00    +0.000 C 
ATOM      5  C   UNL     1       2.441  12.124  18.147  0.00  0.00    +0.000 C 
ATOM      6  C   UNL     1       1.226  12.838  18.714  0.00  0.00    +0.000 C 
ATOM      7  C   UNL     1       0.484  11.767  19.535  0.00  0.00    +0.000 C 
ENDROOT
BRANCH   1  14
ATOM      8  O   UNL     1       4.038   2.331  18.996  0.00  0.00    +0.000 OA
ATOM      9  C   UNL     1       3.409   3.337  19.314  0.00  0.00    +0.000 C 
ATOM     10  C   UNL     1       2.311   3.309  20.350  0.00  0.00    +0.000 C 
ATOM     11  C   UNL     1       2.231   4.615  21.125  0.00  0.00    +0.000 C 
ATOM     12  C   UNL     1       2.244   5.799  20.198  0.00  0.00    +0.000 A 
ATOM     13  C   UNL     1       1.638   7.010  20.563  0.00  0.00    +0.000 A 
ATOM     14  C   UNL     1       1.628   8.095  19.681  0.00  0.00    +0.000 A 
ATOM     15  C   UNL     1       2.367   7.999  18.488  0.00  0.00    +0.000 A 
ATOM     16  C   UNL     1       3.039   6.820  18.152  0.00  0.00    +0.000 A 
ATOM     17  C   UNL     1       2.947   5.714  18.992  0.00  0.00    +0.000 A 
ATOM     18  N   UNL     1       3.583   4.520  18.645  0.00  0.00    +0.000 N 
ATOM     19  H   UNL     1       4.220   4.490  17.859  0.00  0.00    +0.000 HD
ENDBRANCH   1  14
BRANCH   7  20
ATOM     20  C   UNL     1      -0.985  11.814  19.263  0.00  0.00    +0.000 A 
ATOM     21  N   UNL     1      -1.571  11.652  18.087  0.00  0.00    +0.000 NA
ATOM     22  N   UNL     1      -2.915  11.902  18.231  0.00  0.00    +0.000 NA
ATOM     23  C   UNL     1      -3.135  12.200  19.491  0.00  0.00    +0.000 A 
ATOM     24  C   UNL     1      -4.311  12.569  20.200  0.00  0.00    +0.000 A 
ATOM     25  C   UNL     1      -4.238  12.838  21.518  0.00  0.00    +0.000 A 
ATOM     26  C   UNL     1      -2.978  12.749  22.241  0.00  0.00    +0.000 A 
ATOM     27  C   UNL     1      -1.866  12.403  21.572  0.00  0.00    +0.000 A 
ATOM     28  N   UNL     1      -1.943  12.135  20.204  0.00  0.00    +0.000 N 
ENDBRANCH   7  20
TORSDOF 2
ENDMDL
