MODEL 1
REMARK VINA RESULT:      -8.7      0.000      0.000
REMARK  Name = 
REMARK  4 active torsions:
REMARK  status: ('A' for Active; 'I' for Inactive)
REMARK    1  A    between atoms: C_2  and  C_3
REMARK    2  A    between atoms: C_3  and  C_4
REMARK    3  A    between atoms: C_4  and  C_5
REMARK    4  A    between atoms: N_14  and  C_15
REMARK                            x       y       z     vdW  Elec       q    Type
REMARK                         _______ _______ _______ _____ _____    ______ ____
ROOT
ATOM      1  O   UNL     1       8.412   6.870  19.077  0.00  0.00    +0.000 OA
ATOM      2  C   UNL     1       7.949   7.343  18.044  0.00  0.00    +0.000 C 
ATOM      3  N   UNL     1       7.482   6.599  16.992  0.00  0.00    +0.000 N 
ATOM      4  H   UNL     1       7.057   7.104  16.233  0.00  0.00    +0.000 HD
ENDROOT
BRANCH   3   5
ATOM      5  C   UNL     1       7.202   5.161  16.949  0.00  0.00    +0.000 C 
ATOM      6  C   UNL     1       7.292   4.444  15.598  0.00  0.00    +0.000 C 
ATOM      7  C   UNL     1       6.174   4.861  14.650  0.00  0.00    +0.000 C 
ATOM      8  C   UNL     1       4.784   4.675  15.252  0.00  0.00    +0.000 C 
ATOM      9  C   UNL     1       4.685   4.857  16.747  0.00  0.00    +0.000 A 
ATOM     10  C   UNL     1       3.413   4.849  17.342  0.00  0.00    +0.000 A 
ATOM     11  C   UNL     1       3.271   4.924  18.727  0.00  0.00    +0.000 A 
ATOM     12  C   UNL     1       4.401   4.978  19.538  0.00  0.00    +0.000 A 
ATOM     13  C   UNL     1       5.670   5.000  18.962  0.00  0.00    +0.000 A 
ATOM     14  C   UNL     1       5.825   4.965  17.565  0.00  0.00    +0.000 A 
ENDBRANCH   3   5
BRANCH   2  15
ATOM     15  C   UNL     1       7.993   8.850  17.818  0.00  0.00    +0.000 C 
BRANCH  15  16
ATOM     16  C   UNL     1       8.843   9.655  18.801  0.00  0.00    +0.000 C 
BRANCH  16  17
ATOM     17  C   UNL     1       9.073  11.065  18.354  0.00  0.00    +0.000 A 
ATOM     18  C   UNL     1       8.236  11.793  17.529  0.00  0.00    +0.000 A 
ATOM     19  N   UNL     1       8.801  13.010  17.306  0.00  0.00    +0.000 N 
ATOM     20  C   UNL     1      10.002  13.108  17.968  0.00  0.00    +0.000 A 
ATOM     21  C   UNL     1      10.925  14.158  18.008  0.00  0.00    +0.000 A 
ATOM     22  C   UNL     1      12.088  13.976  18.758  0.00  0.00    +0.000 A 
ATOM     23  C   UNL     1      12.315  12.788  19.450  0.00  0.00    +0.000 A 
ATOM     24  C   UNL     1      11.375  11.753  19.411  0.00  0.00    +0.000 A 
ATOM     25  C   UNL     1      10.198  11.904  18.648  0.00  0.00    +0.000 A 
ATOM     26  H   UNL     1       8.409  13.740  16.719  0.00  0.00    +0.000 HD
ENDBRANCH  16  17
ENDBRANCH  15  16
ENDBRANCH   2  15
TORSDOF 4
ENDMDL
MODEL 2
REMARK VINA RESULT:      -8.6      6.109      8.393
REMARK  Name = 
REMARK  4 active torsions:
REMARK  status: ('A' for Active; 'I' for Inactive)
REMARK    1  A    between atoms: C_2  and  C_3
REMARK    2  A    between atoms: C_3  and  C_4
REMARK    3  A    between atoms: C_4  and  C_5
REMARK    4  A    between atoms: N_14  and  C_15
REMARK                            x       y       z     vdW  Elec       q    Type
REMARK                         _______ _______ _______ _____ _____    ______ ____
ROOT
ATOM      1  O   UNL     1       2.046   7.867  20.197  0.00  0.00    +0.000 OA
ATOM      2  C   UNL     1       2.197   7.644  19.000  0.00  0.00    +0.000 C 
ATOM      3  N   UNL     1       3.043   6.694  18.490  0.00  0.00    +0.000 N 
ATOM      4  H   UNL     1       3.022   6.557  17.494  0.00  0.00    +0.000 HD
ENDROOT
BRANCH   3   5
ATOM      5  C   UNL     1       3.734   5.615  19.202  0.00  0.00    +0.000 C 
ATOM      6  C   UNL     1       5.155   5.249  18.762  0.00  0.00    +0.000 C 
ATOM      7  C   UNL     1       5.181   4.588  17.389  0.00  0.00    +0.000 C 
ATOM      8  C   UNL     1       4.272   3.364  17.302  0.00  0.00    +0.000 C 
ATOM      9  C   UNL     1       3.027   3.407  18.155  0.00  0.00    +0.000 A 
ATOM     10  C   UNL     1       2.077   2.386  18.007  0.00  0.00    +0.000 A 
ATOM     11  C   UNL     1       0.953   2.329  18.832  0.00  0.00    +0.000 A 
ATOM     12  C   UNL     1       0.781   3.278  19.836  0.00  0.00    +0.000 A 
ATOM     13  C   UNL     1       1.710   4.307  19.986  0.00  0.00    +0.000 A 
ATOM     14  C   UNL     1       2.826   4.397  19.135  0.00  0.00    +0.000 A 
ENDBRANCH   3   5
BRANCH   2  15
ATOM     15  C   UNL     1       1.516   8.541  17.974  0.00  0.00    +0.000 C 
BRANCH  15  16
ATOM     16  C   UNL     1       1.731  10.045  18.143  0.00  0.00    +0.000 C 
BRANCH  16  17
ATOM     17  C   UNL     1       0.511  10.757  18.634  0.00  0.00    +0.000 A 
ATOM     18  C   UNL     1       0.476  11.667  19.674  0.00  0.00    +0.000 A 
ATOM     19  N   UNL     1      -0.813  12.060  19.861  0.00  0.00    +0.000 N 
ATOM     20  C   UNL     1      -1.640  11.430  18.962  0.00  0.00    +0.000 A 
ATOM     21  C   UNL     1      -3.027  11.516  18.801  0.00  0.00    +0.000 A 
ATOM     22  C   UNL     1      -3.617  10.739  17.803  0.00  0.00    +0.000 A 
ATOM     23  C   UNL     1      -2.845   9.912  16.990  0.00  0.00    +0.000 A 
ATOM     24  C   UNL     1      -1.457   9.848  17.154  0.00  0.00    +0.000 A 
ATOM     25  C   UNL     1      -0.836  10.611  18.166  0.00  0.00    +0.000 A 
ATOM     26  H   UNL     1      -1.131  12.712  20.573  0.00  0.00    +0.000 HD
ENDBRANCH  16  17
ENDBRANCH  15  16
ENDBRANCH   2  15
TORSDOF 4
ENDMDL
MODEL 3
REMARK VINA RESULT:      -8.3      4.923      7.311
REMARK  Name = 
REMARK  4 active torsions:
REMARK  status: ('A' for Active; 'I' for Inactive)
REMARK    1  A    between atoms: C_2  and  C_3
REMARK    2  A    between atoms: C_3  and  C_4
REMARK    3  A    between atoms: C_4  and  C_5
REMARK    4  A    between atoms: N_14  and  C_15
REMARK                            x       y       z     vdW  Elec       q    Type
REMARK                         _______ _______ _______ _____ _____    ______ ____
ROOT
ATOM      1  O   UNL     1       4.971   7.127  15.784  0.00  0.00    +0.000 OA
ATOM      2  C   UNL     1       5.254   6.762  16.921  0.00  0.00    +0.000 C 
ATOM      3  N   UNL     1       4.339   6.570  17.923  0.00  0.00    +0.000 N 
ATOM      4  H   UNL     1       4.688   6.197  18.790  0.00  0.00    +0.000 HD
ENDROOT
BRANCH   3   5
ATOM      5  C   UNL     1       2.878   6.508  17.821  0.00  0.00    +0.000 C 
ATOM      6  C   UNL     1       2.054   7.564  18.565  0.00  0.00    +0.000 C 
ATOM      7  C   UNL     1       2.124   7.390  20.077  0.00  0.00    +0.000 C 
ATOM      8  C   UNL     1       1.720   5.989  20.533  0.00  0.00    +0.000 C 
ATOM      9  C   UNL     1       2.038   4.868  19.575  0.00  0.00    +0.000 A 
ATOM     10  C   UNL     1       1.831   3.546  19.997  0.00  0.00    +0.000 A 
ATOM     11  C   UNL     1       2.025   2.477  19.121  0.00  0.00    +0.000 A 
ATOM     12  C   UNL     1       2.400   2.720  17.803  0.00  0.00    +0.000 A 
ATOM     13  C   UNL     1       2.622   4.027  17.373  0.00  0.00    +0.000 A 
ATOM     14  C   UNL     1       2.469   5.109  18.257  0.00  0.00    +0.000 A 
ENDBRANCH   3   5
BRANCH   2  15
ATOM     15  C   UNL     1       6.717   6.624  17.327  0.00  0.00    +0.000 C 
BRANCH  15  16
ATOM     16  C   UNL     1       7.350   5.250  17.115  0.00  0.00    +0.000 C 
BRANCH  16  17
ATOM     17  C   UNL     1       6.747   4.500  15.969  0.00  0.00    +0.000 A 
ATOM     18  C   UNL     1       5.831   3.471  16.076  0.00  0.00    +0.000 A 
ATOM     19  N   UNL     1       5.556   3.006  14.826  0.00  0.00    +0.000 N 
ATOM     20  C   UNL     1       6.272   3.710  13.887  0.00  0.00    +0.000 A 
ATOM     21  C   UNL     1       6.317   3.565  12.496  0.00  0.00    +0.000 A 
ATOM     22  C   UNL     1       7.159   4.417  11.779  0.00  0.00    +0.000 A 
ATOM     23  C   UNL     1       7.922   5.384  12.431  0.00  0.00    +0.000 A 
ATOM     24  C   UNL     1       7.855   5.525  13.821  0.00  0.00    +0.000 A 
ATOM     25  C   UNL     1       7.023   4.667  14.572  0.00  0.00    +0.000 A 
ATOM     26  H   UNL     1       4.927   2.238  14.612  0.00  0.00    +0.000 HD
ENDBRANCH  16  17
ENDBRANCH  15  16
ENDBRANCH   2  15
TORSDOF 4
ENDMDL
MODEL 4
REMARK VINA RESULT:      -8.3      5.363      7.661
REMARK  Name = 
REMARK  4 active torsions:
REMARK  status: ('A' for Active; 'I' for Inactive)
REMARK    1  A    between atoms: C_2  and  C_3
REMARK    2  A    between atoms: C_3  and  C_4
REMARK    3  A    between atoms: C_4  and  C_5
REMARK    4  A    between atoms: N_14  and  C_15
REMARK                            x       y       z     vdW  Elec       q    Type
REMARK                         _______ _______ _______ _____ _____    ______ ____
ROOT
ATOM      1  O   UNL     1       2.457   6.705  19.501  0.00  0.00    +0.000 OA
ATOM      2  C   UNL     1       3.001   7.143  18.492  0.00  0.00    +0.000 C 
ATOM      3  N   UNL     1       4.038   6.527  17.841  0.00  0.00    +0.000 N 
ATOM      4  H   UNL     1       4.348   6.948  16.982  0.00  0.00    +0.000 HD
ENDROOT
BRANCH   3   5
ATOM      5  C   UNL     1       4.546   5.165  18.027  0.00  0.00    +0.000 C 
ATOM      6  C   UNL     1       5.350   4.856  19.293  0.00  0.00    +0.000 C 
ATOM      7  C   UNL     1       6.710   5.545  19.295  0.00  0.00    +0.000 C 
ATOM      8  C   UNL     1       7.540   5.223  18.055  0.00  0.00    +0.000 C 
ATOM      9  C   UNL     1       6.760   4.979  16.786  0.00  0.00    +0.000 A 
ATOM     10  C   UNL     1       7.465   4.829  15.583  0.00  0.00    +0.000 A 
ATOM     11  C   UNL     1       6.800   4.513  14.398  0.00  0.00    +0.000 A 
ATOM     12  C   UNL     1       5.422   4.314  14.408  0.00  0.00    +0.000 A 
ATOM     13  C   UNL     1       4.706   4.473  15.594  0.00  0.00    +0.000 A 
ATOM     14  C   UNL     1       5.360   4.830  16.785  0.00  0.00    +0.000 A 
ENDBRANCH   3   5
BRANCH   2  15
ATOM     15  C   UNL     1       2.617   8.521  17.966  0.00  0.00    +0.000 C 
BRANCH  15  16
ATOM     16  C   UNL     1       1.127   8.861  17.986  0.00  0.00    +0.000 C 
BRANCH  16  17
ATOM     17  C   UNL     1       0.789   9.946  18.959  0.00  0.00    +0.000 A 
ATOM     18  C   UNL     1       0.936  11.301  18.733  0.00  0.00    +0.000 A 
ATOM     19  N   UNL     1       0.575  11.969  19.862  0.00  0.00    +0.000 N 
ATOM     20  C   UNL     1       0.187  11.082  20.838  0.00  0.00    +0.000 A 
ATOM     21  C   UNL     1      -0.240  11.317  22.149  0.00  0.00    +0.000 A 
ATOM     22  C   UNL     1      -0.559  10.211  22.939  0.00  0.00    +0.000 A 
ATOM     23  C   UNL     1      -0.460   8.917  22.432  0.00  0.00    +0.000 A 
ATOM     24  C   UNL     1      -0.044   8.700  21.114  0.00  0.00    +0.000 A 
ATOM     25  C   UNL     1       0.299   9.799  20.298  0.00  0.00    +0.000 A 
ATOM     26  H   UNL     1       0.603  12.977  19.981  0.00  0.00    +0.000 HD
ENDBRANCH  16  17
ENDBRANCH  15  16
ENDBRANCH   2  15
TORSDOF 4
ENDMDL
MODEL 5
REMARK VINA RESULT:      -8.2      5.366      8.311
REMARK  Name = 
REMARK  4 active torsions:
REMARK  status: ('A' for Active; 'I' for Inactive)
REMARK    1  A    between atoms: C_2  and  C_3
REMARK    2  A    between atoms: C_3  and  C_4
REMARK    3  A    between atoms: C_4  and  C_5
REMARK    4  A    between atoms: N_14  and  C_15
REMARK                            x       y       z     vdW  Elec       q    Type
REMARK                         _______ _______ _______ _____ _____    ______ ____
ROOT
ATOM      1  O   UNL     1       2.478   6.735  19.526  0.00  0.00    +0.000 OA
ATOM      2  C   UNL     1       3.018   7.168  18.513  0.00  0.00    +0.000 C 
ATOM      3  N   UNL     1       4.044   6.541  17.854  0.00  0.00    +0.000 N 
ATOM      4  H   UNL     1       4.351   6.959  16.992  0.00  0.00    +0.000 HD
ENDROOT
BRANCH   3   5
ATOM      5  C   UNL     1       4.542   5.175  18.037  0.00  0.00    +0.000 C 
ATOM      6  C   UNL     1       5.343   4.857  19.303  0.00  0.00    +0.000 C 
ATOM      7  C   UNL     1       6.707   5.535  19.307  0.00  0.00    +0.000 C 
ATOM      8  C   UNL     1       7.536   5.210  18.066  0.00  0.00    +0.000 C 
ATOM      9  C   UNL     1       6.754   4.974  16.797  0.00  0.00    +0.000 A 
ATOM     10  C   UNL     1       7.459   4.821  15.593  0.00  0.00    +0.000 A 
ATOM     11  C   UNL     1       6.791   4.513  14.408  0.00  0.00    +0.000 A 
ATOM     12  C   UNL     1       5.412   4.325  14.417  0.00  0.00    +0.000 A 
ATOM     13  C   UNL     1       4.697   4.487  15.602  0.00  0.00    +0.000 A 
ATOM     14  C   UNL     1       5.354   4.837  16.795  0.00  0.00    +0.000 A 
ENDBRANCH   3   5
BRANCH   2  15
ATOM     15  C   UNL     1       2.642   8.548  17.988  0.00  0.00    +0.000 C 
BRANCH  15  16
ATOM     16  C   UNL     1       1.195   8.726  17.531  0.00  0.00    +0.000 C 
BRANCH  16  17
ATOM     17  C   UNL     1       0.475   9.804  18.279  0.00  0.00    +0.000 A 
ATOM     18  C   UNL     1       0.994  10.535  19.331  0.00  0.00    +0.000 A 
ATOM     19  N   UNL     1       0.030  11.382  19.785  0.00  0.00    +0.000 N 
ATOM     20  C   UNL     1      -1.123  11.229  19.053  0.00  0.00    +0.000 A 
ATOM     21  C   UNL     1      -2.360  11.871  19.179  0.00  0.00    +0.000 A 
ATOM     22  C   UNL     1      -3.378  11.501  18.298  0.00  0.00    +0.000 A 
ATOM     23  C   UNL     1      -3.163  10.530  17.323  0.00  0.00    +0.000 A 
ATOM     24  C   UNL     1      -1.916   9.908  17.201  0.00  0.00    +0.000 A 
ATOM     25  C   UNL     1      -0.873  10.251  18.088  0.00  0.00    +0.000 A 
ATOM     26  H   UNL     1       0.134  12.024  20.565  0.00  0.00    +0.000 HD
ENDBRANCH  16  17
ENDBRANCH  15  16
ENDBRANCH   2  15
TORSDOF 4
ENDMDL
MODEL 6
REMARK VINA RESULT:      -8.2      6.101      8.249
REMARK  Name = 
REMARK  4 active torsions:
REMARK  status: ('A' for Active; 'I' for Inactive)
REMARK    1  A    between atoms: C_2  and  C_3
REMARK    2  A    between atoms: C_3  and  C_4
REMARK    3  A    between atoms: C_4  and  C_5
REMARK    4  A    between atoms: N_14  and  C_15
REMARK                            x       y       z     vdW  Elec       q    Type
REMARK                         _______ _______ _______ _____ _____    ______ ____
ROOT
ATOM      1  O   UNL     1       1.887   8.251  20.504  0.00  0.00    +0.000 OA
ATOM      2  C   UNL     1       1.855   8.139  19.283  0.00  0.00    +0.000 C 
ATOM      3  N   UNL     1       2.654   7.291  18.561  0.00  0.00    +0.000 N 
ATOM      4  H   UNL     1       2.480   7.237  17.572  0.00  0.00    +0.000 HD
ENDROOT
BRANCH   3   5
ATOM      5  C   UNL     1       3.503   6.202  19.053  0.00  0.00    +0.000 C 
ATOM      6  C   UNL     1       4.785   5.877  18.281  0.00  0.00    +0.000 C 
ATOM      7  C   UNL     1       4.497   5.262  16.918  0.00  0.00    +0.000 C 
ATOM      8  C   UNL     1       3.605   4.025  17.000  0.00  0.00    +0.000 C 
ATOM      9  C   UNL     1       2.594   4.017  18.120  0.00  0.00    +0.000 A 
ATOM     10  C   UNL     1       1.645   2.984  18.160  0.00  0.00    +0.000 A 
ATOM     11  C   UNL     1       0.746   2.880  19.221  0.00  0.00    +0.000 A 
ATOM     12  C   UNL     1       0.803   3.792  20.271  0.00  0.00    +0.000 A 
ATOM     13  C   UNL     1       1.731   4.832  20.238  0.00  0.00    +0.000 A 
ATOM     14  C   UNL     1       2.616   4.970  19.155  0.00  0.00    +0.000 A 
ENDBRANCH   3   5
BRANCH   2  15
ATOM     15  C   UNL     1       0.975   9.075  18.463  0.00  0.00    +0.000 C 
BRANCH  15  16
ATOM     16  C   UNL     1       1.190  10.571  18.684  0.00  0.00    +0.000 C 
BRANCH  16  17
ATOM     17  C   UNL     1      -0.044  11.275  19.154  0.00  0.00    +0.000 A 
ATOM     18  C   UNL     1      -0.877  12.049  18.368  0.00  0.00    +0.000 A 
ATOM     19  N   UNL     1      -1.860  12.563  19.156  0.00  0.00    +0.000 N 
ATOM     20  C   UNL     1      -1.699  12.144  20.455  0.00  0.00    +0.000 A 
ATOM     21  C   UNL     1      -2.454  12.438  21.595  0.00  0.00    +0.000 A 
ATOM     22  C   UNL     1      -2.045  11.882  22.809  0.00  0.00    +0.000 A 
ATOM     23  C   UNL     1      -0.926  11.056  22.876  0.00  0.00    +0.000 A 
ATOM     24  C   UNL     1      -0.189  10.761  21.724  0.00  0.00    +0.000 A 
ATOM     25  C   UNL     1      -0.570  11.322  20.487  0.00  0.00    +0.000 A 
ATOM     26  H   UNL     1      -2.600  13.183  18.840  0.00  0.00    +0.000 HD
ENDBRANCH  16  17
ENDBRANCH  15  16
ENDBRANCH   2  15
TORSDOF 4
ENDMDL
MODEL 7
REMARK VINA RESULT:      -8.1      6.274      7.691
REMARK  Name = 
REMARK  4 active torsions:
REMARK  status: ('A' for Active; 'I' for Inactive)
REMARK    1  A    between atoms: C_2  and  C_3
REMARK    2  A    between atoms: C_3  and  C_4
REMARK    3  A    between atoms: C_4  and  C_5
REMARK    4  A    between atoms: N_14  and  C_15
REMARK                            x       y       z     vdW  Elec       q    Type
REMARK                         _______ _______ _______ _____ _____    ______ ____
ROOT
ATOM      1  O   UNL     1       3.837   8.327  17.678  0.00  0.00    +0.000 OA
ATOM      2  C   UNL     1       2.759   7.852  18.021  0.00  0.00    +0.000 C 
ATOM      3  N   UNL     1       2.581   6.560  18.443  0.00  0.00    +0.000 N 
ATOM      4  H   UNL     1       1.662   6.312  18.769  0.00  0.00    +0.000 HD
ENDROOT
BRANCH   3   5
ATOM      5  C   UNL     1       3.601   5.572  18.805  0.00  0.00    +0.000 C 
ATOM      6  C   UNL     1       4.499   5.015  17.695  0.00  0.00    +0.000 C 
ATOM      7  C   UNL     1       3.733   4.119  16.730  0.00  0.00    +0.000 C 
ATOM      8  C   UNL     1       2.998   2.980  17.433  0.00  0.00    +0.000 C 
ATOM      9  C   UNL     1       2.500   3.279  18.826  0.00  0.00    +0.000 A 
ATOM     10  C   UNL     1       1.689   2.330  19.466  0.00  0.00    +0.000 A 
ATOM     11  C   UNL     1       1.275   2.517  20.786  0.00  0.00    +0.000 A 
ATOM     12  C   UNL     1       1.694   3.641  21.491  0.00  0.00    +0.000 A 
ATOM     13  C   UNL     1       2.489   4.599  20.864  0.00  0.00    +0.000 A 
ATOM     14  C   UNL     1       2.879   4.441  19.522  0.00  0.00    +0.000 A 
ENDBRANCH   3   5
BRANCH   2  15
ATOM     15  C   UNL     1       1.487   8.677  17.866  0.00  0.00    +0.000 C 
BRANCH  15  16
ATOM     16  C   UNL     1       1.619  10.177  18.129  0.00  0.00    +0.000 C 
BRANCH  16  17
ATOM     17  C   UNL     1       0.623  10.683  19.125  0.00  0.00    +0.000 A 
ATOM     18  C   UNL     1      -0.277  11.710  18.909  0.00  0.00    +0.000 A 
ATOM     19  N   UNL     1      -0.978  11.918  20.057  0.00  0.00    +0.000 N 
ATOM     20  C   UNL     1      -0.562  11.047  21.035  0.00  0.00    +0.000 A 
ATOM     21  C   UNL     1      -0.986  10.915  22.362  0.00  0.00    +0.000 A 
ATOM     22  C   UNL     1      -0.368   9.942  23.149  0.00  0.00    +0.000 A 
ATOM     23  C   UNL     1       0.631   9.125  22.625  0.00  0.00    +0.000 A 
ATOM     24  C   UNL     1       1.034   9.260  21.292  0.00  0.00    +0.000 A 
ATOM     25  C   UNL     1       0.437  10.246  20.477  0.00  0.00    +0.000 A 
ATOM     26  H   UNL     1      -1.694  12.626  20.186  0.00  0.00    +0.000 HD
ENDBRANCH  16  17
ENDBRANCH  15  16
ENDBRANCH   2  15
TORSDOF 4
ENDMDL
MODEL 8
REMARK VINA RESULT:      -8.1      5.851      7.392
REMARK  Name = 
REMARK  4 active torsions:
REMARK  status: ('A' for Active; 'I' for Inactive)
REMARK    1  A    between atoms: C_2  and  C_3
REMARK    2  A    between atoms: C_3  and  C_4
REMARK    3  A    between atoms: C_4  and  C_5
REMARK    4  A    between atoms: N_14  and  C_15
REMARK                            x       y       z     vdW  Elec       q    Type
REMARK                         _______ _______ _______ _____ _____    ______ ____
ROOT
ATOM      1  O   UNL     1       4.910   7.227  17.156  0.00  0.00    +0.000 OA
ATOM      2  C   UNL     1       3.876   7.263  17.815  0.00  0.00    +0.000 C 
ATOM      3  N   UNL     1       3.435   6.245  18.619  0.00  0.00    +0.000 N 
ATOM      4  H   UNL     1       2.610   6.425  19.167  0.00  0.00    +0.000 HD
ENDROOT
BRANCH   3   5
ATOM      5  C   UNL     1       4.163   5.051  19.059  0.00  0.00    +0.000 C 
ATOM      6  C   UNL     1       5.063   4.337  18.045  0.00  0.00    +0.000 C 
ATOM      7  C   UNL     1       4.261   3.649  16.947  0.00  0.00    +0.000 C 
ATOM      8  C   UNL     1       3.213   2.682  17.493  0.00  0.00    +0.000 C 
ATOM      9  C   UNL     1       2.607   3.053  18.825  0.00  0.00    +0.000 A 
ATOM     10  C   UNL     1       1.533   2.290  19.308  0.00  0.00    +0.000 A 
ATOM     11  C   UNL     1       0.995   2.533  20.572  0.00  0.00    +0.000 A 
ATOM     12  C   UNL     1       1.544   3.525  21.380  0.00  0.00    +0.000 A 
ATOM     13  C   UNL     1       2.602   4.299  20.908  0.00  0.00    +0.000 A 
ATOM     14  C   UNL     1       3.127   4.090  19.621  0.00  0.00    +0.000 A 
ENDBRANCH   3   5
BRANCH   2  15
ATOM     15  C   UNL     1       2.926   8.444  17.664  0.00  0.00    +0.000 C 
BRANCH  15  16
ATOM     16  C   UNL     1       1.556   8.298  18.326  0.00  0.00    +0.000 C 
BRANCH  16  17
ATOM     17  C   UNL     1       1.138   9.523  19.078  0.00  0.00    +0.000 A 
ATOM     18  C   UNL     1       1.305  10.826  18.647  0.00  0.00    +0.000 A 
ATOM     19  N   UNL     1       0.850  11.663  19.619  0.00  0.00    +0.000 N 
ATOM     20  C   UNL     1       0.382  10.941  20.691  0.00  0.00    +0.000 A 
ATOM     21  C   UNL     1      -0.154  11.380  21.906  0.00  0.00    +0.000 A 
ATOM     22  C   UNL     1      -0.538  10.413  22.837  0.00  0.00    +0.000 A 
ATOM     23  C   UNL     1      -0.398   9.056  22.557  0.00  0.00    +0.000 A 
ATOM     24  C   UNL     1       0.127   8.633  21.331  0.00  0.00    +0.000 A 
ATOM     25  C   UNL     1       0.537   9.589  20.378  0.00  0.00    +0.000 A 
ATOM     26  H   UNL     1       0.869  12.677  19.574  0.00  0.00    +0.000 HD
ENDBRANCH  16  17
ENDBRANCH  15  16
ENDBRANCH   2  15
TORSDOF 4
ENDMDL
MODEL 9
REMARK VINA RESULT:      -8.1      6.134      8.569
REMARK  Name = 
REMARK  4 active torsions:
REMARK  status: ('A' for Active; 'I' for Inactive)
REMARK    1  A    between atoms: C_2  and  C_3
REMARK    2  A    between atoms: C_3  and  C_4
REMARK    3  A    between atoms: C_4  and  C_5
REMARK    4  A    between atoms: N_14  and  C_15
REMARK                            x       y       z     vdW  Elec       q    Type
REMARK                         _______ _______ _______ _____ _____    ______ ____
ROOT
ATOM      1  O   UNL     1       1.972   7.953  20.241  0.00  0.00    +0.000 OA
ATOM      2  C   UNL     1       2.139   7.778  19.038  0.00  0.00    +0.000 C 
ATOM      3  N   UNL     1       3.011   6.867  18.502  0.00  0.00    +0.000 N 
ATOM      4  H   UNL     1       3.003   6.766  17.501  0.00  0.00    +0.000 HD
ENDROOT
BRANCH   3   5
ATOM      5  C   UNL     1       3.719   5.777  19.180  0.00  0.00    +0.000 C 
ATOM      6  C   UNL     1       5.129   5.419  18.701  0.00  0.00    +0.000 C 
ATOM      7  C   UNL     1       5.124   4.781  17.318  0.00  0.00    +0.000 C 
ATOM      8  C   UNL     1       4.214   3.558  17.231  0.00  0.00    +0.000 C 
ATOM      9  C   UNL     1       2.989   3.586  18.112  0.00  0.00    +0.000 A 
ATOM     10  C   UNL     1       2.036   2.566  17.969  0.00  0.00    +0.000 A 
ATOM     11  C   UNL     1       0.932   2.495  18.819  0.00  0.00    +0.000 A 
ATOM     12  C   UNL     1       0.782   3.427  19.841  0.00  0.00    +0.000 A 
ATOM     13  C   UNL     1       1.714   4.453  19.988  0.00  0.00    +0.000 A 
ATOM     14  C   UNL     1       2.809   4.559  19.113  0.00  0.00    +0.000 A 
ENDBRANCH   3   5
BRANCH   2  15
ATOM     15  C   UNL     1       1.449   8.699  18.039  0.00  0.00    +0.000 C 
BRANCH  15  16
ATOM     16  C   UNL     1       1.021  10.068  18.566  0.00  0.00    +0.000 C 
BRANCH  16  17
ATOM     17  C   UNL     1      -0.438  10.337  18.373  0.00  0.00    +0.000 A 
ATOM     18  C   UNL     1      -1.224   9.818  17.361  0.00  0.00    +0.000 A 
ATOM     19  N   UNL     1      -2.479  10.328  17.484  0.00  0.00    +0.000 N 
ATOM     20  C   UNL     1      -2.546  11.178  18.562  0.00  0.00    +0.000 A 
ATOM     21  C   UNL     1      -3.619  11.932  19.049  0.00  0.00    +0.000 A 
ATOM     22  C   UNL     1      -3.397  12.736  20.167  0.00  0.00    +0.000 A 
ATOM     23  C   UNL     1      -2.147  12.778  20.781  0.00  0.00    +0.000 A 
ATOM     24  C   UNL     1      -1.087  12.008  20.290  0.00  0.00    +0.000 A 
ATOM     25  C   UNL     1      -1.280  11.197  19.151  0.00  0.00    +0.000 A 
ATOM     26  H   UNL     1      -3.256  10.129  16.861  0.00  0.00    +0.000 HD
ENDBRANCH  16  17
ENDBRANCH  15  16
ENDBRANCH   2  15
TORSDOF 4
ENDMDL
