MODEL 1
REMARK VINA RESULT:      -8.1      0.000      0.000
REMARK  Name = 
REMARK  3 active torsions:
REMARK  status: ('A' for Active; 'I' for Inactive)
REMARK    1  A    between atoms: C_2  and  C_16
REMARK    2  A    between atoms: N_3  and  C_4
REMARK    3  A    between atoms: C_10  and  N_11
REMARK                            x       y       z     vdW  Elec       q    Type
REMARK                         _______ _______ _______ _____ _____    ______ ____
ROOT
ATOM      1  O   UNL     1       1.875   6.472  17.837  0.00  0.00    +0.000 OA
ATOM      2  C   UNL     1       2.260   7.063  18.851  0.00  0.00    +0.000 C 
ATOM      3  N   UNL     1       2.940   6.429  19.897  0.00  0.00    +0.000 N 
ATOM      4  H   UNL     1       3.194   6.916  20.746  0.00  0.00    +0.000 HD
ENDROOT
BRANCH   2   5
ATOM      5  C   UNL     1       1.888   8.539  19.026  0.00  0.00    +0.000 A 
ATOM      6  C   UNL     1       2.354   9.420  18.008  0.00  0.00    +0.000 A 
ATOM      7  C   UNL     1       2.046  10.772  18.118  0.00  0.00    +0.000 A 
ATOM      8  F   UNL     1       2.436  11.635  17.174  0.00  0.00    +0.000 F 
ATOM      9  C   UNL     1       1.330  11.272  19.182  0.00  0.00    +0.000 A 
ATOM     10  C   UNL     1       0.919  10.433  20.186  0.00  0.00    +0.000 A 
ATOM     11  C   UNL     1       0.242  11.021  21.200  0.00  0.00    +0.000 A 
ATOM     12  C   UNL     1      -0.143  10.113  22.130  0.00  0.00    +0.000 A 
ATOM     13  C   UNL     1      -0.518   9.323  23.013  0.00  0.00    +0.000 A 
ATOM     14  N   UNL     1       0.396   8.657  21.575  0.00  0.00    +0.000 NA
ATOM     15  C   UNL     1       1.110   9.071  20.240  0.00  0.00    +0.000 A 
ENDBRANCH   2   5
BRANCH   3  16
ATOM     16  C   UNL     1       3.241   5.028  19.864  0.00  0.00    +0.000 A 
ATOM     17  C   UNL     1       2.297   4.129  20.380  0.00  0.00    +0.000 A 
ATOM     18  F   UNL     1       1.126   4.580  20.850  0.00  0.00    +0.000 F 
ATOM     19  C   UNL     1       2.509   2.762  20.391  0.00  0.00    +0.000 A 
ATOM     20  C   UNL     1       3.692   2.257  19.891  0.00  0.00    +0.000 A 
ATOM     21  C   UNL     1       4.638   3.129  19.341  0.00  0.00    +0.000 A 
ATOM     22  C   UNL     1       4.442   4.530  19.292  0.00  0.00    +0.000 A 
BRANCH  22  23
ATOM     23  N   UNL     1       5.413   5.347  18.745  0.00  0.00    +0.000 N 
ATOM     24  C   UNL     1       5.357   5.958  17.423  0.00  0.00    +0.000 C 
ATOM     25  C   UNL     1       6.816   5.890  16.982  0.00  0.00    +0.000 C 
ATOM     26  C   UNL     1       7.570   6.241  18.264  0.00  0.00    +0.000 C 
ATOM     27  C   UNL     1       6.678   5.690  19.399  0.00  0.00    +0.000 C 
ENDBRANCH  22  23
ENDBRANCH   3  16
TORSDOF 3
ENDMDL
MODEL 2
REMARK VINA RESULT:      -8.1      1.410      1.410
REMARK  Name = 
REMARK  3 active torsions:
REMARK  status: ('A' for Active; 'I' for Inactive)
REMARK    1  A    between atoms: C_2  and  C_16
REMARK    2  A    between atoms: N_3  and  C_4
REMARK    3  A    between atoms: C_10  and  N_11
REMARK                            x       y       z     vdW  Elec       q    Type
REMARK                         _______ _______ _______ _____ _____    ______ ____
ROOT
ATOM      1  O   UNL     1       2.046   6.240  20.244  0.00  0.00    +0.000 OA
ATOM      2  C   UNL     1       2.145   6.901  19.206  0.00  0.00    +0.000 C 
ATOM      3  N   UNL     1       2.633   6.373  18.004  0.00  0.00    +0.000 N 
ATOM      4  H   UNL     1       2.764   6.945  17.180  0.00  0.00    +0.000 HD
ENDROOT
BRANCH   2   5
ATOM      5  C   UNL     1       1.819   8.398  19.253  0.00  0.00    +0.000 A 
ATOM      6  C   UNL     1       2.298   9.171  18.156  0.00  0.00    +0.000 A 
ATOM      7  C   UNL     1       2.031  10.535  18.149  0.00  0.00    +0.000 A 
ATOM      8  F   UNL     1       2.434  11.300  17.128  0.00  0.00    +0.000 F 
ATOM      9  C   UNL     1       1.344  11.149  19.171  0.00  0.00    +0.000 A 
ATOM     10  C   UNL     1       0.921  10.416  20.250  0.00  0.00    +0.000 A 
ATOM     11  C   UNL     1       0.275  11.111  21.214  0.00  0.00    +0.000 A 
ATOM     12  C   UNL     1      -0.125  10.300  22.226  0.00  0.00    +0.000 A 
ATOM     13  C   UNL     1      -0.511   9.604  23.179  0.00  0.00    +0.000 A 
ATOM     14  N   UNL     1       0.364   8.785  21.796  0.00  0.00    +0.000 NA
ATOM     15  C   UNL     1       1.072   9.058  20.422  0.00  0.00    +0.000 A 
ENDBRANCH   2   5
BRANCH   3  16
ATOM     16  C   UNL     1       3.057   5.009  17.894  0.00  0.00    +0.000 A 
ATOM     17  C   UNL     1       2.083   4.019  17.703  0.00  0.00    +0.000 A 
ATOM     18  F   UNL     1       0.793   4.359  17.583  0.00  0.00    +0.000 F 
ATOM     19  C   UNL     1       2.406   2.678  17.591  0.00  0.00    +0.000 A 
ATOM     20  C   UNL     1       3.727   2.291  17.682  0.00  0.00    +0.000 A 
ATOM     21  C   UNL     1       4.723   3.261  17.841  0.00  0.00    +0.000 A 
ATOM     22  C   UNL     1       4.429   4.642  17.935  0.00  0.00    +0.000 A 
BRANCH  22  23
ATOM     23  N   UNL     1       5.450   5.558  18.100  0.00  0.00    +0.000 N 
ATOM     24  C   UNL     1       5.715   6.695  17.227  0.00  0.00    +0.000 C 
ATOM     25  C   UNL     1       7.241   6.744  17.228  0.00  0.00    +0.000 C 
ATOM     26  C   UNL     1       7.585   6.444  18.686  0.00  0.00    +0.000 C 
ATOM     27  C   UNL     1       6.458   5.500  19.162  0.00  0.00    +0.000 C 
ENDBRANCH  22  23
ENDBRANCH   3  16
TORSDOF 3
ENDMDL
MODEL 3
REMARK VINA RESULT:      -7.8      2.201      4.085
REMARK  Name = 
REMARK  3 active torsions:
REMARK  status: ('A' for Active; 'I' for Inactive)
REMARK    1  A    between atoms: C_2  and  C_16
REMARK    2  A    between atoms: N_3  and  C_4
REMARK    3  A    between atoms: C_10  and  N_11
REMARK                            x       y       z     vdW  Elec       q    Type
REMARK                         _______ _______ _______ _____ _____    ______ ____
ROOT
ATOM      1  O   UNL     1       1.922   7.811  17.448  0.00  0.00    +0.000 OA
ATOM      2  C   UNL     1       2.216   7.691  18.641  0.00  0.00    +0.000 C 
ATOM      3  N   UNL     1       3.127   6.739  19.114  0.00  0.00    +0.000 N 
ATOM      4  H   UNL     1       3.310   6.614  20.101  0.00  0.00    +0.000 HD
ENDROOT
BRANCH   2   5
ATOM      5  C   UNL     1       1.475   8.550  19.671  0.00  0.00    +0.000 A 
ATOM      6  C   UNL     1       1.814   8.313  21.034  0.00  0.00    +0.000 A 
ATOM      7  C   UNL     1       1.171   9.065  22.011  0.00  0.00    +0.000 A 
ATOM      8  F   UNL     1       1.474   8.900  23.302  0.00  0.00    +0.000 F 
ATOM      9  C   UNL     1       0.213  10.002  21.696  0.00  0.00    +0.000 A 
ATOM     10  C   UNL     1      -0.148  10.201  20.388  0.00  0.00    +0.000 A 
ATOM     11  C   UNL     1      -1.113  11.127  20.181  0.00  0.00    +0.000 A 
ATOM     12  C   UNL     1      -1.385  11.271  18.860  0.00  0.00    +0.000 A 
ATOM     13  C   UNL     1      -1.675  11.440  17.664  0.00  0.00    +0.000 A 
ATOM     14  N   UNL     1      -0.372  10.226  18.084  0.00  0.00    +0.000 NA
ATOM     15  C   UNL     1       0.392   9.571  19.289  0.00  0.00    +0.000 A 
ENDBRANCH   2   5
BRANCH   3  16
ATOM     16  C   UNL     1       3.792   5.825  18.233  0.00  0.00    +0.000 A 
ATOM     17  C   UNL     1       4.726   6.336  17.321  0.00  0.00    +0.000 A 
ATOM     18  F   UNL     1       5.014   7.644  17.314  0.00  0.00    +0.000 F 
ATOM     19  C   UNL     1       5.409   5.524  16.432  0.00  0.00    +0.000 A 
ATOM     20  C   UNL     1       5.161   4.167  16.428  0.00  0.00    +0.000 A 
ATOM     21  C   UNL     1       4.257   3.626  17.349  0.00  0.00    +0.000 A 
ATOM     22  C   UNL     1       3.560   4.425  18.287  0.00  0.00    +0.000 A 
BRANCH  22  23
ATOM     23  N   UNL     1       2.671   3.841  19.169  0.00  0.00    +0.000 N 
ATOM     24  C   UNL     1       1.224   3.789  19.003  0.00  0.00    +0.000 C 
ATOM     25  C   UNL     1       0.735   3.960  20.438  0.00  0.00    +0.000 C 
ATOM     26  C   UNL     1       1.726   3.110  21.233  0.00  0.00    +0.000 C 
ATOM     27  C   UNL     1       3.049   3.219  20.442  0.00  0.00    +0.000 C 
ENDBRANCH  22  23
ENDBRANCH   3  16
TORSDOF 3
ENDMDL
MODEL 4
REMARK VINA RESULT:      -7.7      1.426      1.661
REMARK  Name = 
REMARK  3 active torsions:
REMARK  status: ('A' for Active; 'I' for Inactive)
REMARK    1  A    between atoms: C_2  and  C_16
REMARK    2  A    between atoms: N_3  and  C_4
REMARK    3  A    between atoms: C_10  and  N_11
REMARK                            x       y       z     vdW  Elec       q    Type
REMARK                         _______ _______ _______ _____ _____    ______ ____
ROOT
ATOM      1  O   UNL     1       2.398   5.973  20.773  0.00  0.00    +0.000 OA
ATOM      2  C   UNL     1       2.084   6.409  19.662  0.00  0.00    +0.000 C 
ATOM      3  N   UNL     1       2.099   5.629  18.499  0.00  0.00    +0.000 N 
ATOM      4  H   UNL     1       1.897   6.019  17.588  0.00  0.00    +0.000 HD
ENDROOT
BRANCH   2   5
ATOM      5  C   UNL     1       1.760   7.900  19.523  0.00  0.00    +0.000 A 
ATOM      6  C   UNL     1       2.200   8.520  18.318  0.00  0.00    +0.000 A 
ATOM      7  C   UNL     1       1.933   9.873  18.140  0.00  0.00    +0.000 A 
ATOM      8  F   UNL     1       2.300  10.494  17.014  0.00  0.00    +0.000 F 
ATOM      9  C   UNL     1       1.283  10.619  19.096  0.00  0.00    +0.000 A 
ATOM     10  C   UNL     1       0.898  10.036  20.276  0.00  0.00    +0.000 A 
ATOM     11  C   UNL     1       0.286  10.856  21.162  0.00  0.00    +0.000 A 
ATOM     12  C   UNL     1      -0.079  10.187  22.285  0.00  0.00    +0.000 A 
ATOM     13  C   UNL     1      -0.431   9.624  23.334  0.00  0.00    +0.000 A 
ATOM     14  N   UNL     1       0.395   8.627  22.042  0.00  0.00    +0.000 NA
ATOM     15  C   UNL     1       1.055   8.712  20.620  0.00  0.00    +0.000 A 
ENDBRANCH   2   5
BRANCH   3  16
ATOM     16  C   UNL     1       2.487   4.250  18.519  0.00  0.00    +0.000 A 
ATOM     17  C   UNL     1       1.620   3.319  19.108  0.00  0.00    +0.000 A 
ATOM     18  F   UNL     1       0.438   3.718  19.598  0.00  0.00    +0.000 F 
ATOM     19  C   UNL     1       1.919   1.970  19.173  0.00  0.00    +0.000 A 
ATOM     20  C   UNL     1       3.114   1.517  18.654  0.00  0.00    +0.000 A 
ATOM     21  C   UNL     1       3.985   2.418  18.032  0.00  0.00    +0.000 A 
ATOM     22  C   UNL     1       3.699   3.801  17.928  0.00  0.00    +0.000 A 
BRANCH  22  23
ATOM     23  N   UNL     1       4.597   4.650  17.311  0.00  0.00    +0.000 N 
ATOM     24  C   UNL     1       5.325   5.730  17.964  0.00  0.00    +0.000 C 
ATOM     25  C   UNL     1       5.350   6.798  16.874  0.00  0.00    +0.000 C 
ATOM     26  C   UNL     1       5.608   5.980  15.609  0.00  0.00    +0.000 C 
ATOM     27  C   UNL     1       4.923   4.623  15.882  0.00  0.00    +0.000 C 
ENDBRANCH  22  23
ENDBRANCH   3  16
TORSDOF 3
ENDMDL
MODEL 5
REMARK VINA RESULT:      -7.6      0.619      1.029
REMARK  Name = 
REMARK  3 active torsions:
REMARK  status: ('A' for Active; 'I' for Inactive)
REMARK    1  A    between atoms: C_2  and  C_16
REMARK    2  A    between atoms: N_3  and  C_4
REMARK    3  A    between atoms: C_10  and  N_11
REMARK                            x       y       z     vdW  Elec       q    Type
REMARK                         _______ _______ _______ _____ _____    ______ ____
ROOT
ATOM      1  O   UNL     1       1.640   6.192  18.035  0.00  0.00    +0.000 OA
ATOM      2  C   UNL     1       2.222   6.864  18.892  0.00  0.00    +0.000 C 
ATOM      3  N   UNL     1       3.121   6.316  19.815  0.00  0.00    +0.000 N 
ATOM      4  H   UNL     1       3.542   6.870  20.549  0.00  0.00    +0.000 HD
ENDROOT
BRANCH   2   5
ATOM      5  C   UNL     1       1.872   8.349  19.025  0.00  0.00    +0.000 A 
ATOM      6  C   UNL     1       2.360   9.196  17.988  0.00  0.00    +0.000 A 
ATOM      7  C   UNL     1       2.072  10.554  18.059  0.00  0.00    +0.000 A 
ATOM      8  F   UNL     1       2.483  11.386  17.096  0.00  0.00    +0.000 F 
ATOM      9  C   UNL     1       1.356  11.093  19.103  0.00  0.00    +0.000 A 
ATOM     10  C   UNL     1       0.923  10.289  20.125  0.00  0.00    +0.000 A 
ATOM     11  C   UNL     1       0.247  10.914  21.117  0.00  0.00    +0.000 A 
ATOM     12  C   UNL     1      -0.160  10.036  22.068  0.00  0.00    +0.000 A 
ATOM     13  C   UNL     1      -0.554   9.276  22.968  0.00  0.00    +0.000 A 
ATOM     14  N   UNL     1       0.361   8.558  21.556  0.00  0.00    +0.000 NA
ATOM     15  C   UNL     1       1.092   8.925  20.217  0.00  0.00    +0.000 A 
ENDBRANCH   2   5
BRANCH   3  16
ATOM     16  C   UNL     1       3.432   4.917  19.831  0.00  0.00    +0.000 A 
ATOM     17  C   UNL     1       2.739   4.088  20.725  0.00  0.00    +0.000 A 
ATOM     18  F   UNL     1       1.780   4.598  21.509  0.00  0.00    +0.000 F 
ATOM     19  C   UNL     1       2.979   2.728  20.807  0.00  0.00    +0.000 A 
ATOM     20  C   UNL     1       3.939   2.161  19.995  0.00  0.00    +0.000 A 
ATOM     21  C   UNL     1       4.624   2.958  19.072  0.00  0.00    +0.000 A 
ATOM     22  C   UNL     1       4.385   4.348  18.945  0.00  0.00    +0.000 A 
BRANCH  22  23
ATOM     23  N   UNL     1       5.095   5.092  18.022  0.00  0.00    +0.000 N 
ATOM     24  C   UNL     1       6.320   5.833  18.295  0.00  0.00    +0.000 C 
ATOM     25  C   UNL     1       6.142   7.070  17.419  0.00  0.00    +0.000 C 
ATOM     26  C   UNL     1       5.533   6.492  16.142  0.00  0.00    +0.000 C 
ATOM     27  C   UNL     1       4.695   5.287  16.626  0.00  0.00    +0.000 C 
ENDBRANCH  22  23
ENDBRANCH   3  16
TORSDOF 3
ENDMDL
MODEL 6
REMARK VINA RESULT:      -7.4      2.096      4.150
REMARK  Name = 
REMARK  3 active torsions:
REMARK  status: ('A' for Active; 'I' for Inactive)
REMARK    1  A    between atoms: C_2  and  C_16
REMARK    2  A    between atoms: N_3  and  C_4
REMARK    3  A    between atoms: C_10  and  N_11
REMARK                            x       y       z     vdW  Elec       q    Type
REMARK                         _______ _______ _______ _____ _____    ______ ____
ROOT
ATOM      1  O   UNL     1       1.891   7.618  17.377  0.00  0.00    +0.000 OA
ATOM      2  C   UNL     1       2.311   7.659  18.537  0.00  0.00    +0.000 C 
ATOM      3  N   UNL     1       3.330   6.825  19.014  0.00  0.00    +0.000 N 
ATOM      4  H   UNL     1       3.619   6.830  19.983  0.00  0.00    +0.000 HD
ENDROOT
BRANCH   2   5
ATOM      5  C   UNL     1       1.619   8.592  19.536  0.00  0.00    +0.000 A 
ATOM      6  C   UNL     1       1.008   7.957  20.656  0.00  0.00    +0.000 A 
ATOM      7  C   UNL     1       0.365   8.757  21.594  0.00  0.00    +0.000 A 
ATOM      8  F   UNL     1      -0.200   8.212  22.676  0.00  0.00    +0.000 F 
ATOM      9  C   UNL     1       0.289  10.124  21.456  0.00  0.00    +0.000 A 
ATOM     10  C   UNL     1       0.837  10.734  20.357  0.00  0.00    +0.000 A 
ATOM     11  C   UNL     1       0.692  12.078  20.299  0.00  0.00    +0.000 A 
ATOM     12  C   UNL     1       1.285  12.593  19.193  0.00  0.00    +0.000 A 
ATOM     13  C   UNL     1       1.809  13.116  18.196  0.00  0.00    +0.000 A 
ATOM     14  N   UNL     1       1.945  11.304  18.406  0.00  0.00    +0.000 NA
ATOM     15  C   UNL     1       1.529  10.113  19.341  0.00  0.00    +0.000 A 
ENDBRANCH   2   5
BRANCH   3  16
ATOM     16  C   UNL     1       3.964   5.851  18.176  0.00  0.00    +0.000 A 
ATOM     17  C   UNL     1       4.932   6.287  17.259  0.00  0.00    +0.000 A 
ATOM     18  F   UNL     1       5.277   7.580  17.209  0.00  0.00    +0.000 F 
ATOM     19  C   UNL     1       5.590   5.414  16.410  0.00  0.00    +0.000 A 
ATOM     20  C   UNL     1       5.281   4.070  16.452  0.00  0.00    +0.000 A 
ATOM     21  C   UNL     1       4.343   3.603  17.378  0.00  0.00    +0.000 A 
ATOM     22  C   UNL     1       3.669   4.465  18.276  0.00  0.00    +0.000 A 
BRANCH  22  23
ATOM     23  N   UNL     1       2.745   3.954  19.167  0.00  0.00    +0.000 N 
ATOM     24  C   UNL     1       1.300   3.948  18.975  0.00  0.00    +0.000 C 
ATOM     25  C   UNL     1       0.793   4.199  20.393  0.00  0.00    +0.000 C 
ATOM     26  C   UNL     1       1.738   3.349  21.242  0.00  0.00    +0.000 C 
ATOM     27  C   UNL     1       3.077   3.375  20.471  0.00  0.00    +0.000 C 
ENDBRANCH  22  23
ENDBRANCH   3  16
TORSDOF 3
ENDMDL
MODEL 7
REMARK VINA RESULT:      -7.4      2.197      4.316
REMARK  Name = 
REMARK  3 active torsions:
REMARK  status: ('A' for Active; 'I' for Inactive)
REMARK    1  A    between atoms: C_2  and  C_16
REMARK    2  A    between atoms: N_3  and  C_4
REMARK    3  A    between atoms: C_10  and  N_11
REMARK                            x       y       z     vdW  Elec       q    Type
REMARK                         _______ _______ _______ _____ _____    ______ ____
ROOT
ATOM      1  O   UNL     1       1.557   8.276  17.633  0.00  0.00    +0.000 OA
ATOM      2  C   UNL     1       1.928   8.214  18.808  0.00  0.00    +0.000 C 
ATOM      3  N   UNL     1       2.840   7.260  19.275  0.00  0.00    +0.000 N 
ATOM      4  H   UNL     1       3.086   7.185  20.253  0.00  0.00    +0.000 HD
ENDROOT
BRANCH   2   5
ATOM      5  C   UNL     1       1.287   9.156  19.832  0.00  0.00    +0.000 A 
ATOM      6  C   UNL     1       0.714   8.530  20.977  0.00  0.00    +0.000 A 
ATOM      7  C   UNL     1       0.118   9.338  21.938  0.00  0.00    +0.000 A 
ATOM      8  F   UNL     1      -0.409   8.801  23.044  0.00  0.00    +0.000 F 
ATOM      9  C   UNL     1       0.050  10.706  21.801  0.00  0.00    +0.000 A 
ATOM     10  C   UNL     1       0.561  11.307  20.679  0.00  0.00    +0.000 A 
ATOM     11  C   UNL     1       0.427  12.653  20.624  0.00  0.00    +0.000 A 
ATOM     12  C   UNL     1       0.981  13.160  19.494  0.00  0.00    +0.000 A 
ATOM     13  C   UNL     1       1.470  13.675  18.475  0.00  0.00    +0.000 A 
ATOM     14  N   UNL     1       1.595  11.862  18.683  0.00  0.00    +0.000 NA
ATOM     15  C   UNL     1       1.204  10.678  19.637  0.00  0.00    +0.000 A 
ENDBRANCH   2   5
BRANCH   3  16
ATOM     16  C   UNL     1       3.414   6.274  18.407  0.00  0.00    +0.000 A 
ATOM     17  C   UNL     1       4.307   6.697  17.413  0.00  0.00    +0.000 A 
ATOM     18  F   UNL     1       4.642   7.990  17.316  0.00  0.00    +0.000 F 
ATOM     19  C   UNL     1       4.902   5.812  16.531  0.00  0.00    +0.000 A 
ATOM     20  C   UNL     1       4.604   4.468  16.618  0.00  0.00    +0.000 A 
ATOM     21  C   UNL     1       3.740   4.014  17.620  0.00  0.00    +0.000 A 
ATOM     22  C   UNL     1       3.133   4.889  18.553  0.00  0.00    +0.000 A 
BRANCH  22  23
ATOM     23  N   UNL     1       2.281   4.389  19.519  0.00  0.00    +0.000 N 
ATOM     24  C   UNL     1       2.416   4.598  20.955  0.00  0.00    +0.000 C 
ATOM     25  C   UNL     1       1.957   3.253  21.513  0.00  0.00    +0.000 C 
ATOM     26  C   UNL     1       0.770   2.906  20.615  0.00  0.00    +0.000 C 
ATOM     27  C   UNL     1       1.126   3.529  19.247  0.00  0.00    +0.000 C 
ENDBRANCH  22  23
ENDBRANCH   3  16
TORSDOF 3
ENDMDL
MODEL 8
REMARK VINA RESULT:      -7.4      2.775      6.800
REMARK  Name = 
REMARK  3 active torsions:
REMARK  status: ('A' for Active; 'I' for Inactive)
REMARK    1  A    between atoms: C_2  and  C_16
REMARK    2  A    between atoms: N_3  and  C_4
REMARK    3  A    between atoms: C_10  and  N_11
REMARK                            x       y       z     vdW  Elec       q    Type
REMARK                         _______ _______ _______ _____ _____    ______ ____
ROOT
ATOM      1  O   UNL     1       3.702   3.345  17.203  0.00  0.00    +0.000 OA
ATOM      2  C   UNL     1       4.512   4.061  17.799  0.00  0.00    +0.000 C 
ATOM      3  N   UNL     1       4.412   4.362  19.163  0.00  0.00    +0.000 N 
ATOM      4  H   UNL     1       5.050   4.999  19.621  0.00  0.00    +0.000 HD
ENDROOT
BRANCH   2   5
ATOM      5  C   UNL     1       5.626   4.739  16.993  0.00  0.00    +0.000 A 
ATOM      6  C   UNL     1       6.365   5.742  17.683  0.00  0.00    +0.000 A 
ATOM      7  C   UNL     1       7.387   6.391  16.998  0.00  0.00    +0.000 A 
ATOM      8  F   UNL     1       8.129   7.320  17.609  0.00  0.00    +0.000 F 
ATOM      9  C   UNL     1       7.681   6.105  15.685  0.00  0.00    +0.000 A 
ATOM     10  C   UNL     1       6.941   5.171  15.005  0.00  0.00    +0.000 A 
ATOM     11  C   UNL     1       7.290   4.975  13.712  0.00  0.00    +0.000 A 
ATOM     12  C   UNL     1       6.522   4.020  13.131  0.00  0.00    +0.000 A 
ATOM     13  C   UNL     1       5.845   3.156  12.550  0.00  0.00    +0.000 A 
ATOM     14  N   UNL     1       5.488   3.509  14.309  0.00  0.00    +0.000 NA
ATOM     15  C   UNL     1       5.912   4.415  15.519  0.00  0.00    +0.000 A 
ENDBRANCH   2   5
BRANCH   3  16
ATOM     16  C   UNL     1       3.345   3.853  19.973  0.00  0.00    +0.000 A 
ATOM     17  C   UNL     1       3.511   2.606  20.591  0.00  0.00    +0.000 A 
ATOM     18  F   UNL     1       4.663   1.936  20.455  0.00  0.00    +0.000 F 
ATOM     19  C   UNL     1       2.530   2.041  21.386  0.00  0.00    +0.000 A 
ATOM     20  C   UNL     1       1.340   2.714  21.573  0.00  0.00    +0.000 A 
ATOM     21  C   UNL     1       1.159   3.974  20.994  0.00  0.00    +0.000 A 
ATOM     22  C   UNL     1       2.152   4.591  20.195  0.00  0.00    +0.000 A 
BRANCH  22  23
ATOM     23  N   UNL     1       1.920   5.835  19.639  0.00  0.00    +0.000 N 
ATOM     24  C   UNL     1       1.815   6.118  18.213  0.00  0.00    +0.000 C 
ATOM     25  C   UNL     1       2.483   7.486  18.113  0.00  0.00    +0.000 C 
ATOM     26  C   UNL     1       1.968   8.203  19.361  0.00  0.00    +0.000 C 
ATOM     27  C   UNL     1       1.787   7.078  20.404  0.00  0.00    +0.000 C 
ENDBRANCH  22  23
ENDBRANCH   3  16
TORSDOF 3
ENDMDL
MODEL 9
REMARK VINA RESULT:      -7.1      2.999      5.717
REMARK  Name = 
REMARK  3 active torsions:
REMARK  status: ('A' for Active; 'I' for Inactive)
REMARK    1  A    between atoms: C_2  and  C_16
REMARK    2  A    between atoms: N_3  and  C_4
REMARK    3  A    between atoms: C_10  and  N_11
REMARK                            x       y       z     vdW  Elec       q    Type
REMARK                         _______ _______ _______ _____ _____    ______ ____
ROOT
ATOM      1  O   UNL     1       4.291   6.136  16.609  0.00  0.00    +0.000 OA
ATOM      2  C   UNL     1       4.240   4.934  16.889  0.00  0.00    +0.000 C 
ATOM      3  N   UNL     1       4.974   3.956  16.207  0.00  0.00    +0.000 N 
ATOM      4  H   UNL     1       4.873   2.970  16.409  0.00  0.00    +0.000 HD
ENDROOT
BRANCH   2   5
ATOM      5  C   UNL     1       3.250   4.471  17.963  0.00  0.00    +0.000 A 
ATOM      6  C   UNL     1       2.929   3.083  17.952  0.00  0.00    +0.000 A 
ATOM      7  C   UNL     1       2.035   2.609  18.905  0.00  0.00    +0.000 A 
ATOM      8  F   UNL     1       1.722   1.310  18.955  0.00  0.00    +0.000 F 
ATOM      9  C   UNL     1       1.447   3.441  19.831  0.00  0.00    +0.000 A 
ATOM     10  C   UNL     1       1.719   4.784  19.815  0.00  0.00    +0.000 A 
ATOM     11  C   UNL     1       1.076   5.524  20.748  0.00  0.00    +0.000 A 
ATOM     12  C   UNL     1       1.426   6.832  20.672  0.00  0.00    +0.000 A 
ATOM     13  C   UNL     1       1.710   8.041  20.643  0.00  0.00    +0.000 A 
ATOM     14  N   UNL     1       2.522   6.924  19.443  0.00  0.00    +0.000 NA
ATOM     15  C   UNL     1       2.590   5.430  18.966  0.00  0.00    +0.000 A 
ENDBRANCH   2   5
BRANCH   3  16
ATOM     16  C   UNL     1       5.848   4.287  15.120  0.00  0.00    +0.000 A 
ATOM     17  C   UNL     1       5.472   3.911  13.822  0.00  0.00    +0.000 A 
ATOM     18  F   UNL     1       4.300   3.297  13.612  0.00  0.00    +0.000 F 
ATOM     19  C   UNL     1       6.259   4.187  12.718  0.00  0.00    +0.000 A 
ATOM     20  C   UNL     1       7.460   4.843  12.891  0.00  0.00    +0.000 A 
ATOM     21  C   UNL     1       7.845   5.258  14.170  0.00  0.00    +0.000 A 
ATOM     22  C   UNL     1       7.053   5.012  15.318  0.00  0.00    +0.000 A 
BRANCH  22  23
ATOM     23  N   UNL     1       7.483   5.436  16.560  0.00  0.00    +0.000 N 
ATOM     24  C   UNL     1       7.838   4.566  17.674  0.00  0.00    +0.000 C 
ATOM     25  C   UNL     1       7.322   5.359  18.871  0.00  0.00    +0.000 C 
ATOM     26  C   UNL     1       7.696   6.796  18.508  0.00  0.00    +0.000 C 
ATOM     27  C   UNL     1       7.605   6.839  16.966  0.00  0.00    +0.000 C 
ENDBRANCH  22  23
ENDBRANCH   3  16
TORSDOF 3
ENDMDL
