MODEL 1
REMARK VINA RESULT:      -8.8      0.000      0.000
REMARK  Name = 
REMARK  6 active torsions:
REMARK  status: ('A' for Active; 'I' for Inactive)
REMARK    1  A    between atoms: C_1  and  N_2
REMARK    2  A    between atoms: C_6  and  C_7
REMARK    3  A    between atoms: C_11  and  N_12
REMARK    4  A    between atoms: C_17  and  C_18
REMARK    5  A    between atoms: C_18  and  C_19
REMARK    6  A    between atoms: C_22  and  C_23
REMARK                            x       y       z     vdW  Elec       q    Type
REMARK                         _______ _______ _______ _____ _____    ______ ____
ROOT
ATOM      1  N   UNL     1       3.694   4.969  19.299  0.00  0.00    +0.000 N 
ATOM      2  C   UNL     1       5.078   5.511  19.381  0.00  0.00    +0.000 C 
ATOM      3  C   UNL     1       5.620   5.202  18.017  0.00  0.00    +0.000 A 
ATOM      4  C   UNL     1       4.917   4.100  17.523  0.00  0.00    +0.000 A 
ATOM      5  C   UNL     1       5.074   3.619  16.235  0.00  0.00    +0.000 A 
ATOM      6  C   UNL     1       5.980   4.279  15.397  0.00  0.00    +0.000 A 
ATOM      7  C   UNL     1       6.681   5.408  15.888  0.00  0.00    +0.000 A 
ATOM      8  C   UNL     1       6.515   5.889  17.206  0.00  0.00    +0.000 A 
ATOM      9  C   UNL     1       3.778   3.849  18.430  0.00  0.00    +0.000 C 
ATOM     10  O   UNL     1       2.970   2.947  18.270  0.00  0.00    +0.000 OA
ENDROOT
BRANCH   1  15
ATOM     11  C   UNL     1       1.842   8.083  19.767  0.00  0.00    +0.000 A 
ATOM     12  C   UNL     1       2.359   8.726  18.636  0.00  0.00    +0.000 A 
ATOM     13  C   UNL     1       2.830   8.002  17.546  0.00  0.00    +0.000 A 
ATOM     14  C   UNL     1       2.949   6.626  17.643  0.00  0.00    +0.000 A 
ATOM     15  C   UNL     1       2.762   6.014  18.889  0.00  0.00    +0.000 A 
ATOM     16  C   UNL     1       2.050   6.701  19.884  0.00  0.00    +0.000 A 
BRANCH  11  22
ATOM     17  C   UNL     1      -0.618  10.060  19.617  0.00  0.00    +0.000 C 
ATOM     18  N   UNL     1       0.168   9.714  20.770  0.00  0.00    +0.000 N 
ATOM     19  C   UNL     1      -0.067  10.174  22.032  0.00  0.00    +0.000 A 
ATOM     20  N   UNL     1       0.757   9.597  22.870  0.00  0.00    +0.000 NA
ATOM     21  N   UNL     1       1.558   8.746  22.143  0.00  0.00    +0.000 NA
ATOM     22  C   UNL     1       1.218   8.832  20.863  0.00  0.00    +0.000 A 
ENDBRANCH  11  22
ENDBRANCH   1  15
BRANCH   8  23
ATOM     23  C   UNL     1       7.227   7.150  17.625  0.00  0.00    +0.000 C 
ATOM     24  F   UNL     1       8.117   7.617  16.711  0.00  0.00    +0.000 F 
ATOM     25  F   UNL     1       6.361   8.175  17.853  0.00  0.00    +0.000 F 
ATOM     26  F   UNL     1       7.928   6.989  18.781  0.00  0.00    +0.000 F 
ENDBRANCH   8  23
BRANCH   6  27
ATOM     27  C   UNL     1       6.168   3.840  13.962  0.00  0.00    +0.000 C 
BRANCH  27  28
ATOM     28  C   UNL     1       7.168   4.691  13.191  0.00  0.00    +0.000 C 
ATOM     29  F   UNL     1       7.244   4.257  11.904  0.00  0.00    +0.000 F 
ENDBRANCH  27  28
ENDBRANCH   6  27
TORSDOF 5
ENDMDL
MODEL 2
REMARK VINA RESULT:      -7.7      4.161      8.088
REMARK  Name = 
REMARK  6 active torsions:
REMARK  status: ('A' for Active; 'I' for Inactive)
REMARK    1  A    between atoms: C_1  and  N_2
REMARK    2  A    between atoms: C_6  and  C_7
REMARK    3  A    between atoms: C_11  and  N_12
REMARK    4  A    between atoms: C_17  and  C_18
REMARK    5  A    between atoms: C_18  and  C_19
REMARK    6  A    between atoms: C_22  and  C_23
REMARK                            x       y       z     vdW  Elec       q    Type
REMARK                         _______ _______ _______ _____ _____    ______ ____
ROOT
ATOM      1  N   UNL     1       0.758   8.267  21.214  0.00  0.00    +0.000 N 
ATOM      2  C   UNL     1      -0.476   8.608  20.455  0.00  0.00    +0.000 C 
ATOM      3  C   UNL     1      -0.252  10.051  20.117  0.00  0.00    +0.000 A 
ATOM      4  C   UNL     1       0.605  10.583  21.085  0.00  0.00    +0.000 A 
ATOM      5  C   UNL     1       1.123  11.865  21.014  0.00  0.00    +0.000 A 
ATOM      6  C   UNL     1       0.766  12.654  19.913  0.00  0.00    +0.000 A 
ATOM      7  C   UNL     1      -0.087  12.111  18.921  0.00  0.00    +0.000 A 
ATOM      8  C   UNL     1      -0.612  10.802  19.005  0.00  0.00    +0.000 A 
ATOM      9  C   UNL     1       1.127   9.460  21.891  0.00  0.00    +0.000 C 
ATOM     10  O   UNL     1       1.905   9.599  22.823  0.00  0.00    +0.000 OA
ENDROOT
BRANCH   1  15
ATOM     11  C   UNL     1       2.236   5.633  19.160  0.00  0.00    +0.000 A 
ATOM     12  C   UNL     1       2.223   6.361  17.965  0.00  0.00    +0.000 A 
ATOM     13  C   UNL     1       2.245   7.752  17.967  0.00  0.00    +0.000 A 
ATOM     14  C   UNL     1       2.105   8.433  19.165  0.00  0.00    +0.000 A 
ATOM     15  C   UNL     1       1.770   7.715  20.319  0.00  0.00    +0.000 A 
ATOM     16  C   UNL     1       2.008   6.332  20.354  0.00  0.00    +0.000 A 
BRANCH  11  22
ATOM     17  C   UNL     1       4.871   3.890  19.077  0.00  0.00    +0.000 C 
ATOM     18  N   UNL     1       3.509   3.431  19.100  0.00  0.00    +0.000 N 
ATOM     19  C   UNL     1       3.135   2.120  19.135  0.00  0.00    +0.000 A 
ATOM     20  N   UNL     1       1.833   2.037  19.252  0.00  0.00    +0.000 NA
ATOM     21  N   UNL     1       1.338   3.321  19.287  0.00  0.00    +0.000 NA
ATOM     22  C   UNL     1       2.351   4.170  19.171  0.00  0.00    +0.000 A 
ENDBRANCH  11  22
ENDBRANCH   1  15
BRANCH   8  23
ATOM     23  C   UNL     1      -1.438  10.265  17.864  0.00  0.00    +0.000 C 
ATOM     24  F   UNL     1      -2.588   9.653  18.249  0.00  0.00    +0.000 F 
ATOM     25  F   UNL     1      -1.815  11.246  16.999  0.00  0.00    +0.000 F 
ATOM     26  F   UNL     1      -0.759   9.350  17.118  0.00  0.00    +0.000 F 
ENDBRANCH   8  23
BRANCH   6  27
ATOM     27  C   UNL     1       1.331  14.046  19.744  0.00  0.00    +0.000 C 
BRANCH  27  28
ATOM     28  C   UNL     1       2.813  14.062  19.392  0.00  0.00    +0.000 C 
ATOM     29  F   UNL     1       3.074  13.103  18.462  0.00  0.00    +0.000 F 
ENDBRANCH  27  28
ENDBRANCH   6  27
TORSDOF 5
ENDMDL
MODEL 3
REMARK VINA RESULT:      -7.6      7.147      9.955
REMARK  Name = 
REMARK  6 active torsions:
REMARK  status: ('A' for Active; 'I' for Inactive)
REMARK    1  A    between atoms: C_1  and  N_2
REMARK    2  A    between atoms: C_6  and  C_7
REMARK    3  A    between atoms: C_11  and  N_12
REMARK    4  A    between atoms: C_17  and  C_18
REMARK    5  A    between atoms: C_18  and  C_19
REMARK    6  A    between atoms: C_22  and  C_23
REMARK                            x       y       z     vdW  Elec       q    Type
REMARK                         _______ _______ _______ _____ _____    ______ ____
ROOT
ATOM      1  N   UNL     1      -0.471  11.127  18.268  0.00  0.00    +0.000 N 
ATOM      2  C   UNL     1       0.262  10.317  19.279  0.00  0.00    +0.000 C 
ATOM      3  C   UNL     1      -0.090  11.014  20.559  0.00  0.00    +0.000 A 
ATOM      4  C   UNL     1      -0.389  12.343  20.247  0.00  0.00    +0.000 A 
ATOM      5  C   UNL     1      -0.876  13.246  21.177  0.00  0.00    +0.000 A 
ATOM      6  C   UNL     1      -1.076  12.792  22.486  0.00  0.00    +0.000 A 
ATOM      7  C   UNL     1      -0.791  11.441  22.801  0.00  0.00    +0.000 A 
ATOM      8  C   UNL     1      -0.293  10.528  21.845  0.00  0.00    +0.000 A 
ATOM      9  C   UNL     1      -0.475  12.452  18.777  0.00  0.00    +0.000 C 
ATOM     10  O   UNL     1      -0.723  13.494  18.188  0.00  0.00    +0.000 OA
ENDROOT
BRANCH   1  15
ATOM     11  C   UNL     1      -4.120  11.213  18.109  0.00  0.00    +0.000 A 
ATOM     12  C   UNL     1      -4.210  10.892  16.749  0.00  0.00    +0.000 A 
ATOM     13  C   UNL     1      -3.202  10.180  16.108  0.00  0.00    +0.000 A 
ATOM     14  C   UNL     1      -2.014   9.930  16.775  0.00  0.00    +0.000 A 
ATOM     15  C   UNL     1      -1.786  10.549  18.011  0.00  0.00    +0.000 A 
ATOM     16  C   UNL     1      -2.882  11.031  18.743  0.00  0.00    +0.000 A 
BRANCH  11  22
ATOM     17  C   UNL     1      -6.802   9.868  19.099  0.00  0.00    +0.000 C 
ATOM     18  N   UNL     1      -6.407  11.245  19.221  0.00  0.00    +0.000 N 
ATOM     19  C   UNL     1      -7.143  12.207  19.846  0.00  0.00    +0.000 A 
ATOM     20  N   UNL     1      -6.467  13.328  19.875  0.00  0.00    +0.000 NA
ATOM     21  N   UNL     1      -5.262  13.101  19.248  0.00  0.00    +0.000 NA
ATOM     22  C   UNL     1      -5.233  11.842  18.829  0.00  0.00    +0.000 A 
ENDBRANCH  11  22
ENDBRANCH   1  15
BRANCH   8  23
ATOM     23  C   UNL     1      -0.101   9.085  22.235  0.00  0.00    +0.000 C 
ATOM     24  F   UNL     1      -0.940   8.221  21.605  0.00  0.00    +0.000 F 
ATOM     25  F   UNL     1       1.157   8.642  21.959  0.00  0.00    +0.000 F 
ATOM     26  F   UNL     1      -0.286   8.879  23.568  0.00  0.00    +0.000 F 
ENDBRANCH   8  23
BRANCH   6  27
ATOM     27  C   UNL     1      -1.651  13.709  23.543  0.00  0.00    +0.000 C 
BRANCH  27  28
ATOM     28  C   UNL     1      -3.169  13.645  23.643  0.00  0.00    +0.000 C 
ATOM     29  F   UNL     1      -3.538  12.528  24.327  0.00  0.00    +0.000 F 
ENDBRANCH  27  28
ENDBRANCH   6  27
TORSDOF 5
ENDMDL
MODEL 4
REMARK VINA RESULT:      -7.5      6.768     11.096
REMARK  Name = 
REMARK  6 active torsions:
REMARK  status: ('A' for Active; 'I' for Inactive)
REMARK    1  A    between atoms: C_1  and  N_2
REMARK    2  A    between atoms: C_6  and  C_7
REMARK    3  A    between atoms: C_11  and  N_12
REMARK    4  A    between atoms: C_17  and  C_18
REMARK    5  A    between atoms: C_18  and  C_19
REMARK    6  A    between atoms: C_22  and  C_23
REMARK                            x       y       z     vdW  Elec       q    Type
REMARK                         _______ _______ _______ _____ _____    ______ ____
ROOT
ATOM      1  N   UNL     1      -1.131  12.356  21.066  0.00  0.00    +0.000 N 
ATOM      2  C   UNL     1      -1.817  13.076  22.173  0.00  0.00    +0.000 C 
ATOM      3  C   UNL     1      -3.259  12.960  21.781  0.00  0.00    +0.000 A 
ATOM      4  C   UNL     1      -3.308  12.811  20.392  0.00  0.00    +0.000 A 
ATOM      5  C   UNL     1      -4.479  12.552  19.700  0.00  0.00    +0.000 A 
ATOM      6  C   UNL     1      -5.662  12.433  20.439  0.00  0.00    +0.000 A 
ATOM      7  C   UNL     1      -5.613  12.564  21.849  0.00  0.00    +0.000 A 
ATOM      8  C   UNL     1      -4.413  12.831  22.545  0.00  0.00    +0.000 A 
ATOM      9  C   UNL     1      -1.928  12.586  19.915  0.00  0.00    +0.000 C 
ATOM     10  O   UNL     1      -1.636  12.420  18.740  0.00  0.00    +0.000 OA
ENDROOT
BRANCH   1  15
ATOM     11  C   UNL     1       0.662   9.174  20.972  0.00  0.00    +0.000 A 
ATOM     12  C   UNL     1       0.866   9.086  22.355  0.00  0.00    +0.000 A 
ATOM     13  C   UNL     1       0.017   9.724  23.252  0.00  0.00    +0.000 A 
ATOM     14  C   UNL     1      -0.945  10.598  22.775  0.00  0.00    +0.000 A 
ATOM     15  C   UNL     1      -0.927  10.955  21.421  0.00  0.00    +0.000 A 
ATOM     16  C   UNL     1      -0.257  10.126  20.508  0.00  0.00    +0.000 A 
BRANCH  11  22
ATOM     17  C   UNL     1       1.647  10.040  18.097  0.00  0.00    +0.000 C 
ATOM     18  N   UNL     1       1.855   8.782  18.760  0.00  0.00    +0.000 N 
ATOM     19  C   UNL     1       2.575   7.745  18.244  0.00  0.00    +0.000 A 
ATOM     20  N   UNL     1       2.662   6.785  19.131  0.00  0.00    +0.000 NA
ATOM     21  N   UNL     1       1.977   7.195  20.252  0.00  0.00    +0.000 NA
ATOM     22  C   UNL     1       1.466   8.397  20.022  0.00  0.00    +0.000 A 
ENDBRANCH  11  22
ENDBRANCH   1  15
BRANCH   8  23
ATOM     23  C   UNL     1      -4.428  12.865  24.052  0.00  0.00    +0.000 C 
ATOM     24  F   UNL     1      -3.894  13.993  24.588  0.00  0.00    +0.000 F 
ATOM     25  F   UNL     1      -5.690  12.780  24.554  0.00  0.00    +0.000 F 
ATOM     26  F   UNL     1      -3.737  11.828  24.600  0.00  0.00    +0.000 F 
ENDBRANCH   8  23
BRANCH   6  27
ATOM     27  C   UNL     1      -6.970  12.103  19.756  0.00  0.00    +0.000 C 
BRANCH  27  28
ATOM     28  C   UNL     1      -7.685  10.901  20.359  0.00  0.00    +0.000 C 
ATOM     29  F   UNL     1      -6.877   9.808  20.298  0.00  0.00    +0.000 F 
ENDBRANCH  27  28
ENDBRANCH   6  27
TORSDOF 5
ENDMDL
MODEL 5
REMARK VINA RESULT:      -7.5      7.416     10.309
REMARK  Name = 
REMARK  6 active torsions:
REMARK  status: ('A' for Active; 'I' for Inactive)
REMARK    1  A    between atoms: C_1  and  N_2
REMARK    2  A    between atoms: C_6  and  C_7
REMARK    3  A    between atoms: C_11  and  N_12
REMARK    4  A    between atoms: C_17  and  C_18
REMARK    5  A    between atoms: C_18  and  C_19
REMARK    6  A    between atoms: C_22  and  C_23
REMARK                            x       y       z     vdW  Elec       q    Type
REMARK                         _______ _______ _______ _____ _____    ______ ____
ROOT
ATOM      1  N   UNL     1      -0.602  11.572  18.594  0.00  0.00    +0.000 N 
ATOM      2  C   UNL     1       0.202  10.830  19.603  0.00  0.00    +0.000 C 
ATOM      3  C   UNL     1      -0.377  11.323  20.895  0.00  0.00    +0.000 A 
ATOM      4  C   UNL     1      -0.915  12.592  20.659  0.00  0.00    +0.000 A 
ATOM      5  C   UNL     1      -1.642  13.292  21.607  0.00  0.00    +0.000 A 
ATOM      6  C   UNL     1      -1.843  12.689  22.854  0.00  0.00    +0.000 A 
ATOM      7  C   UNL     1      -1.315  11.395  23.089  0.00  0.00    +0.000 A 
ATOM      8  C   UNL     1      -0.573  10.690  22.116  0.00  0.00    +0.000 A 
ATOM      9  C   UNL     1      -0.910  12.818  19.200  0.00  0.00    +0.000 C 
ATOM     10  O   UNL     1      -1.319  13.842  18.672  0.00  0.00    +0.000 OA
ENDROOT
BRANCH   1  15
ATOM     11  C   UNL     1      -4.029  11.125  17.412  0.00  0.00    +0.000 A 
ATOM     12  C   UNL     1      -3.688  10.424  16.249  0.00  0.00    +0.000 A 
ATOM     13  C   UNL     1      -2.504   9.701  16.165  0.00  0.00    +0.000 A 
ATOM     14  C   UNL     1      -1.566   9.809  17.178  0.00  0.00    +0.000 A 
ATOM     15  C   UNL     1      -1.751  10.776  18.174  0.00  0.00    +0.000 A 
ATOM     16  C   UNL     1      -3.037  11.295  18.387  0.00  0.00    +0.000 A 
BRANCH  11  22
ATOM     17  C   UNL     1      -6.538  10.101  19.038  0.00  0.00    +0.000 C 
ATOM     18  N   UNL     1      -6.425  11.298  18.250  0.00  0.00    +0.000 N 
ATOM     19  C   UNL     1      -7.410  12.231  18.115  0.00  0.00    +0.000 A 
ATOM     20  N   UNL     1      -6.963  13.246  17.419  0.00  0.00    +0.000 NA
ATOM     21  N   UNL     1      -5.657  12.972  17.081  0.00  0.00    +0.000 NA
ATOM     22  C   UNL     1      -5.334  11.779  17.564  0.00  0.00    +0.000 A 
ENDBRANCH  11  22
ENDBRANCH   1  15
BRANCH   8  23
ATOM     23  C   UNL     1      -0.124   9.281  22.410  0.00  0.00    +0.000 C 
ATOM     24  F   UNL     1      -0.216   8.928  23.719  0.00  0.00    +0.000 F 
ATOM     25  F   UNL     1      -0.856   8.357  21.727  0.00  0.00    +0.000 F 
ATOM     26  F   UNL     1       1.173   9.066  22.055  0.00  0.00    +0.000 F 
ENDBRANCH   8  23
BRANCH   6  27
ATOM     27  C   UNL     1      -2.667  13.373  23.920  0.00  0.00    +0.000 C 
BRANCH  27  28
ATOM     28  C   UNL     1      -3.937  12.616  24.288  0.00  0.00    +0.000 C 
ATOM     29  F   UNL     1      -4.821  12.675  23.255  0.00  0.00    +0.000 F 
ENDBRANCH  27  28
ENDBRANCH   6  27
TORSDOF 5
ENDMDL
MODEL 6
REMARK VINA RESULT:      -7.4      4.695      8.362
REMARK  Name = 
REMARK  6 active torsions:
REMARK  status: ('A' for Active; 'I' for Inactive)
REMARK    1  A    between atoms: C_1  and  N_2
REMARK    2  A    between atoms: C_6  and  C_7
REMARK    3  A    between atoms: C_11  and  N_12
REMARK    4  A    between atoms: C_17  and  C_18
REMARK    5  A    between atoms: C_18  and  C_19
REMARK    6  A    between atoms: C_22  and  C_23
REMARK                            x       y       z     vdW  Elec       q    Type
REMARK                         _______ _______ _______ _____ _____    ______ ____
ROOT
ATOM      1  N   UNL     1       0.662   8.387  21.130  0.00  0.00    +0.000 N 
ATOM      2  C   UNL     1      -0.571   8.672  20.345  0.00  0.00    +0.000 C 
ATOM      3  C   UNL     1      -0.497  10.159  20.170  0.00  0.00    +0.000 A 
ATOM      4  C   UNL     1       0.254  10.673  21.231  0.00  0.00    +0.000 A 
ATOM      5  C   UNL     1       0.626  12.003  21.319  0.00  0.00    +0.000 A 
ATOM      6  C   UNL     1       0.228  12.863  20.289  0.00  0.00    +0.000 A 
ATOM      7  C   UNL     1      -0.517  12.342  19.202  0.00  0.00    +0.000 A 
ATOM      8  C   UNL     1      -0.894  10.983  19.123  0.00  0.00    +0.000 A 
ATOM      9  C   UNL     1       0.865   9.532  21.943  0.00  0.00    +0.000 C 
ATOM     10  O   UNL     1       1.584   9.652  22.925  0.00  0.00    +0.000 OA
ENDROOT
BRANCH   1  15
ATOM     11  C   UNL     1       2.797   6.063  19.289  0.00  0.00    +0.000 A 
ATOM     12  C   UNL     1       2.532   6.599  18.024  0.00  0.00    +0.000 A 
ATOM     13  C   UNL     1       2.137   7.924  17.869  0.00  0.00    +0.000 A 
ATOM     14  C   UNL     1       1.836   8.679  18.990  0.00  0.00    +0.000 A 
ATOM     15  C   UNL     1       1.765   8.046  20.237  0.00  0.00    +0.000 A 
ATOM     16  C   UNL     1       2.406   6.810  20.410  0.00  0.00    +0.000 A 
BRANCH  11  22
ATOM     17  C   UNL     1       1.215   3.369  19.764  0.00  0.00    +0.000 C 
ATOM     18  N   UNL     1       2.638   3.557  19.695  0.00  0.00    +0.000 N 
ATOM     19  C   UNL     1       3.556   2.553  19.786  0.00  0.00    +0.000 A 
ATOM     20  N   UNL     1       4.757   3.034  19.586  0.00  0.00    +0.000 NA
ATOM     21  N   UNL     1       4.628   4.388  19.367  0.00  0.00    +0.000 NA
ATOM     22  C   UNL     1       3.345   4.712  19.456  0.00  0.00    +0.000 A 
ENDBRANCH  11  22
ENDBRANCH   1  15
BRANCH   8  23
ATOM     23  C   UNL     1      -1.607  10.486  17.891  0.00  0.00    +0.000 C 
ATOM     24  F   UNL     1      -0.901   9.580  17.166  0.00  0.00    +0.000 F 
ATOM     25  F   UNL     1      -2.786   9.877  18.193  0.00  0.00    +0.000 F 
ATOM     26  F   UNL     1      -1.917  11.495  17.030  0.00  0.00    +0.000 F 
ENDBRANCH   8  23
BRANCH   6  27
ATOM     27  C   UNL     1       0.639  14.318  20.293  0.00  0.00    +0.000 C 
BRANCH  27  28
ATOM     28  C   UNL     1       0.582  14.971  18.918  0.00  0.00    +0.000 C 
ATOM     29  F   UNL     1       1.795  14.866  18.309  0.00  0.00    +0.000 F 
ENDBRANCH  27  28
ENDBRANCH   6  27
TORSDOF 5
ENDMDL
MODEL 7
REMARK VINA RESULT:      -7.4      4.386      8.447
REMARK  Name = 
REMARK  6 active torsions:
REMARK  status: ('A' for Active; 'I' for Inactive)
REMARK    1  A    between atoms: C_1  and  N_2
REMARK    2  A    between atoms: C_6  and  C_7
REMARK    3  A    between atoms: C_11  and  N_12
REMARK    4  A    between atoms: C_17  and  C_18
REMARK    5  A    between atoms: C_18  and  C_19
REMARK    6  A    between atoms: C_22  and  C_23
REMARK                            x       y       z     vdW  Elec       q    Type
REMARK                         _______ _______ _______ _____ _____    ______ ____
ROOT
ATOM      1  N   UNL     1       0.712   8.287  21.185  0.00  0.00    +0.000 N 
ATOM      2  C   UNL     1      -0.524   8.594  20.416  0.00  0.00    +0.000 C 
ATOM      3  C   UNL     1      -0.356  10.054  20.115  0.00  0.00    +0.000 A 
ATOM      4  C   UNL     1       0.465  10.597  21.107  0.00  0.00    +0.000 A 
ATOM      5  C   UNL     1       0.930  11.901  21.073  0.00  0.00    +0.000 A 
ATOM      6  C   UNL     1       0.556  12.700  19.986  0.00  0.00    +0.000 A 
ATOM      7  C   UNL     1      -0.260  12.146  18.969  0.00  0.00    +0.000 A 
ATOM      8  C   UNL     1      -0.732  10.815  19.014  0.00  0.00    +0.000 A 
ATOM      9  C   UNL     1       1.021   9.478  21.894  0.00  0.00    +0.000 C 
ATOM     10  O   UNL     1       1.780   9.627  22.841  0.00  0.00    +0.000 OA
ENDROOT
BRANCH   1  15
ATOM     11  C   UNL     1       2.369   5.741  19.156  0.00  0.00    +0.000 A 
ATOM     12  C   UNL     1       2.300   6.453  17.952  0.00  0.00    +0.000 A 
ATOM     13  C   UNL     1       2.222   7.841  17.939  0.00  0.00    +0.000 A 
ATOM     14  C   UNL     1       2.038   8.525  19.129  0.00  0.00    +0.000 A 
ATOM     15  C   UNL     1       1.758   7.798  20.293  0.00  0.00    +0.000 A 
ATOM     16  C   UNL     1       2.095   6.437  20.342  0.00  0.00    +0.000 A 
BRANCH  11  22
ATOM     17  C   UNL     1       5.121   4.190  19.077  0.00  0.00    +0.000 C 
ATOM     18  N   UNL     1       3.795   3.636  19.114  0.00  0.00    +0.000 N 
ATOM     19  C   UNL     1       3.517   2.302  19.166  0.00  0.00    +0.000 A 
ATOM     20  N   UNL     1       2.225   2.127  19.291  0.00  0.00    +0.000 NA
ATOM     21  N   UNL     1       1.639   3.373  19.314  0.00  0.00    +0.000 NA
ATOM     22  C   UNL     1       2.589   4.291  19.183  0.00  0.00    +0.000 A 
ENDBRANCH  11  22
ENDBRANCH   1  15
BRANCH   8  23
ATOM     23  C   UNL     1      -1.519  10.272  17.850  0.00  0.00    +0.000 C 
ATOM     24  F   UNL     1      -1.923  11.216  16.961  0.00  0.00    +0.000 F 
ATOM     25  F   UNL     1      -0.804   9.367  17.126  0.00  0.00    +0.000 F 
ATOM     26  F   UNL     1      -2.649   9.623  18.246  0.00  0.00    +0.000 F 
ENDBRANCH   8  23
BRANCH   6  27
ATOM     27  C   UNL     1       1.065  14.117  19.857  0.00  0.00    +0.000 C 
BRANCH  27  28
ATOM     28  C   UNL     1       0.271  14.962  18.868  0.00  0.00    +0.000 C 
ATOM     29  F   UNL     1      -0.871  15.406  19.459  0.00  0.00    +0.000 F 
ENDBRANCH  27  28
ENDBRANCH   6  27
TORSDOF 5
ENDMDL
MODEL 8
REMARK VINA RESULT:      -7.4      2.878      4.347
REMARK  Name = 
REMARK  6 active torsions:
REMARK  status: ('A' for Active; 'I' for Inactive)
REMARK    1  A    between atoms: C_1  and  N_2
REMARK    2  A    between atoms: C_6  and  C_7
REMARK    3  A    between atoms: C_11  and  N_12
REMARK    4  A    between atoms: C_17  and  C_18
REMARK    5  A    between atoms: C_18  and  C_19
REMARK    6  A    between atoms: C_22  and  C_23
REMARK                            x       y       z     vdW  Elec       q    Type
REMARK                         _______ _______ _______ _____ _____    ______ ____
ROOT
ATOM      1  N   UNL     1       1.983   7.063  18.148  0.00  0.00    +0.000 N 
ATOM      2  C   UNL     1       1.864   5.594  18.358  0.00  0.00    +0.000 C 
ATOM      3  C   UNL     1       3.299   5.163  18.400  0.00  0.00    +0.000 A 
ATOM      4  C   UNL     1       4.041   6.095  17.670  0.00  0.00    +0.000 A 
ATOM      5  C   UNL     1       5.424   6.075  17.603  0.00  0.00    +0.000 A 
ATOM      6  C   UNL     1       6.098   5.069  18.306  0.00  0.00    +0.000 A 
ATOM      7  C   UNL     1       5.349   4.134  19.062  0.00  0.00    +0.000 A 
ATOM      8  C   UNL     1       3.938   4.162  19.123  0.00  0.00    +0.000 A 
ATOM      9  C   UNL     1       3.156   7.239  17.369  0.00  0.00    +0.000 C 
ATOM     10  O   UNL     1       3.512   8.224  16.738  0.00  0.00    +0.000 OA
ENDROOT
BRANCH   1  15
ATOM     11  C   UNL     1       0.884   9.683  20.444  0.00  0.00    +0.000 A 
ATOM     12  C   UNL     1       0.389   8.814  21.425  0.00  0.00    +0.000 A 
ATOM     13  C   UNL     1       0.878   7.519  21.553  0.00  0.00    +0.000 A 
ATOM     14  C   UNL     1       1.744   7.019  20.594  0.00  0.00    +0.000 A 
ATOM     15  C   UNL     1       1.968   7.763  19.429  0.00  0.00    +0.000 A 
ATOM     16  C   UNL     1       1.690   9.138  19.435  0.00  0.00    +0.000 A 
BRANCH  11  22
ATOM     17  C   UNL     1      -1.483  10.954  18.780  0.00  0.00    +0.000 C 
ATOM     18  N   UNL     1      -0.537  11.628  19.627  0.00  0.00    +0.000 N 
ATOM     19  C   UNL     1      -0.546  12.967  19.883  0.00  0.00    +0.000 A 
ATOM     20  N   UNL     1       0.378  13.253  20.767  0.00  0.00    +0.000 NA
ATOM     21  N   UNL     1       1.014  12.076  21.093  0.00  0.00    +0.000 NA
ATOM     22  C   UNL     1       0.477  11.091  20.385  0.00  0.00    +0.000 A 
ENDBRANCH  11  22
ENDBRANCH   1  15
BRANCH   8  23
ATOM     23  C   UNL     1       3.219   3.190  20.022  0.00  0.00    +0.000 C 
ATOM     24  F   UNL     1       2.268   2.449  19.395  0.00  0.00    +0.000 F 
ATOM     25  F   UNL     1       4.071   2.292  20.590  0.00  0.00    +0.000 F 
ATOM     26  F   UNL     1       2.587   3.811  21.057  0.00  0.00    +0.000 F 
ENDBRANCH   8  23
BRANCH   6  27
ATOM     27  C   UNL     1       7.609   5.013  18.318  0.00  0.00    +0.000 C 
BRANCH  27  28
ATOM     28  C   UNL     1       8.244   5.932  19.354  0.00  0.00    +0.000 C 
ATOM     29  F   UNL     1       8.469   7.157  18.805  0.00  0.00    +0.000 F 
ENDBRANCH  27  28
ENDBRANCH   6  27
TORSDOF 5
ENDMDL
MODEL 9
REMARK VINA RESULT:      -7.2      7.138      9.943
REMARK  Name = 
REMARK  6 active torsions:
REMARK  status: ('A' for Active; 'I' for Inactive)
REMARK    1  A    between atoms: C_1  and  N_2
REMARK    2  A    between atoms: C_6  and  C_7
REMARK    3  A    between atoms: C_11  and  N_12
REMARK    4  A    between atoms: C_17  and  C_18
REMARK    5  A    between atoms: C_18  and  C_19
REMARK    6  A    between atoms: C_22  and  C_23
REMARK                            x       y       z     vdW  Elec       q    Type
REMARK                         _______ _______ _______ _____ _____    ______ ____
ROOT
ATOM      1  N   UNL     1      -0.460  11.115  18.250  0.00  0.00    +0.000 N 
ATOM      2  C   UNL     1       0.267  10.300  19.262  0.00  0.00    +0.000 C 
ATOM      3  C   UNL     1      -0.070  11.008  20.540  0.00  0.00    +0.000 A 
ATOM      4  C   UNL     1      -0.353  12.340  20.222  0.00  0.00    +0.000 A 
ATOM      5  C   UNL     1      -0.824  13.254  21.149  0.00  0.00    +0.000 A 
ATOM      6  C   UNL     1      -1.025  12.810  22.461  0.00  0.00    +0.000 A 
ATOM      7  C   UNL     1      -0.757  11.457  22.782  0.00  0.00    +0.000 A 
ATOM      8  C   UNL     1      -0.275  10.532  21.829  0.00  0.00    +0.000 A 
ATOM      9  C   UNL     1      -0.443  12.443  18.751  0.00  0.00    +0.000 C 
ATOM     10  O   UNL     1      -0.680  13.485  18.158  0.00  0.00    +0.000 OA
ENDROOT
BRANCH   1  15
ATOM     11  C   UNL     1      -4.109  11.243  18.128  0.00  0.00    +0.000 A 
ATOM     12  C   UNL     1      -4.216  10.934  16.767  0.00  0.00    +0.000 A 
ATOM     13  C   UNL     1      -3.223  10.217  16.110  0.00  0.00    +0.000 A 
ATOM     14  C   UNL     1      -2.031   9.948  16.762  0.00  0.00    +0.000 A 
ATOM     15  C   UNL     1      -1.784  10.554  18.001  0.00  0.00    +0.000 A 
ATOM     16  C   UNL     1      -2.867  11.041  18.748  0.00  0.00    +0.000 A 
BRANCH  11  22
ATOM     17  C   UNL     1      -6.807   9.924  19.113  0.00  0.00    +0.000 C 
ATOM     18  N   UNL     1      -6.389  11.292  19.254  0.00  0.00    +0.000 N 
ATOM     19  C   UNL     1      -7.106  12.256  19.899  0.00  0.00    +0.000 A 
ATOM     20  N   UNL     1      -6.412  13.366  19.942  0.00  0.00    +0.000 NA
ATOM     21  N   UNL     1      -5.215  13.129  19.304  0.00  0.00    +0.000 NA
ATOM     22  C   UNL     1      -5.208  11.877  18.865  0.00  0.00    +0.000 A 
ENDBRANCH  11  22
ENDBRANCH   1  15
BRANCH   8  23
ATOM     23  C   UNL     1      -0.101   9.088  22.225  0.00  0.00    +0.000 C 
ATOM     24  F   UNL     1       1.139   8.589  21.983  0.00  0.00    +0.000 F 
ATOM     25  F   UNL     1      -0.325   8.891  23.554  0.00  0.00    +0.000 F 
ATOM     26  F   UNL     1      -0.969   8.265  21.575  0.00  0.00    +0.000 F 
ENDBRANCH   8  23
BRANCH   6  27
ATOM     27  C   UNL     1      -1.582  13.740  23.516  0.00  0.00    +0.000 C 
BRANCH  27  28
ATOM     28  C   UNL     1      -1.301  15.211  23.240  0.00  0.00    +0.000 C 
ATOM     29  F   UNL     1      -2.472  15.870  23.027  0.00  0.00    +0.000 F 
ENDBRANCH  27  28
ENDBRANCH   6  27
TORSDOF 5
ENDMDL
