MODEL 1
REMARK VINA RESULT:      -8.8      0.000      0.000
REMARK  Name = 
REMARK  4 active torsions:
REMARK  status: ('A' for Active; 'I' for Inactive)
REMARK    1  A    between atoms: C_5  and  C_7
REMARK    2  A    between atoms: C_7  and  O_8
REMARK    3  A    between atoms: O_8  and  C_9
REMARK    4  A    between atoms: C_9  and  C_11
REMARK                            x       y       z     vdW  Elec       q    Type
REMARK                         _______ _______ _______ _____ _____    ______ ____
ROOT
ATOM      1  C   UNL     1       2.745   8.118  17.834  0.00  0.00    +0.000 C 
ENDROOT
BRANCH   1   6
ATOM      2  O   UNL     1       1.510  12.849  18.199  0.00  0.00    +0.000 OA
ATOM      3  C   UNL     1       1.189  11.889  18.898  0.00  0.00    +0.000 C 
ATOM      4  C   UNL     1       1.061  10.483  18.340  0.00  0.00    +0.000 C 
ATOM      5  N   UNL     1       1.199   9.409  19.339  0.00  0.00    +0.000 N 
ATOM      6  C   UNL     1       1.949   8.242  19.140  0.00  0.00    +0.000 C 
ATOM      7  O   UNL     1       2.053   7.340  19.976  0.00  0.00    +0.000 OA
ATOM      8  C   UNL     1       0.515   9.669  20.579  0.00  0.00    +0.000 A 
ATOM      9  C   UNL     1       0.057   8.655  21.428  0.00  0.00    +0.000 A 
ATOM     10  C   UNL     1      -0.550   8.963  22.649  0.00  0.00    +0.000 A 
ATOM     11  C   UNL     1      -0.694  10.289  23.049  0.00  0.00    +0.000 A 
ATOM     12  C   UNL     1      -0.252  11.314  22.216  0.00  0.00    +0.000 A 
ATOM     13  C   UNL     1       0.326  11.005  20.983  0.00  0.00    +0.000 A 
ATOM     14  N   UNL     1       0.757  12.066  20.179  0.00  0.00    +0.000 N 
ATOM     15  H   UNL     1       0.735  13.017  20.519  0.00  0.00    +0.000 HD
ENDBRANCH   1   6
BRANCH   1  16
ATOM     16  O   UNL     1       4.053   7.592  18.075  0.00  0.00    +0.000 OA
BRANCH  16  17
ATOM     17  C   UNL     1       4.385   6.523  17.329  0.00  0.00    +0.000 C 
ATOM     18  O   UNL     1       4.634   6.512  16.136  0.00  0.00    +0.000 OA
BRANCH  17  19
ATOM     19  C   UNL     1       4.455   5.263  18.184  0.00  0.00    +0.000 A 
ATOM     20  N   UNL     1       5.607   4.982  18.726  0.00  0.00    +0.000 NA
ATOM     21  N   UNL     1       5.718   3.831  19.442  0.00  0.00    +0.000 N 
ATOM     22  C   UNL     1       4.742   2.874  19.586  0.00  0.00    +0.000 A 
ATOM     23  O   UNL     1       4.933   1.826  20.192  0.00  0.00    +0.000 OA
ATOM     24  C   UNL     1       3.437   3.183  18.979  0.00  0.00    +0.000 A 
ATOM     25  C   UNL     1       2.376   2.276  19.093  0.00  0.00    +0.000 A 
ATOM     26  C   UNL     1       1.130   2.590  18.552  0.00  0.00    +0.000 A 
ATOM     27  C   UNL     1       0.941   3.812  17.910  0.00  0.00    +0.000 A 
ATOM     28  C   UNL     1       2.001   4.715  17.795  0.00  0.00    +0.000 A 
ATOM     29  C   UNL     1       3.262   4.395  18.314  0.00  0.00    +0.000 A 
ATOM     30  H   UNL     1       6.623   3.642  19.864  0.00  0.00    +0.000 HD
ENDBRANCH  17  19
ENDBRANCH  16  17
ENDBRANCH   1  16
TORSDOF 4
ENDMDL
MODEL 2
REMARK VINA RESULT:      -8.3      2.080      2.860
REMARK  Name = 
REMARK  4 active torsions:
REMARK  status: ('A' for Active; 'I' for Inactive)
REMARK    1  A    between atoms: C_5  and  C_7
REMARK    2  A    between atoms: C_7  and  O_8
REMARK    3  A    between atoms: O_8  and  C_9
REMARK    4  A    between atoms: C_9  and  C_11
REMARK                            x       y       z     vdW  Elec       q    Type
REMARK                         _______ _______ _______ _____ _____    ______ ____
ROOT
ATOM      1  C   UNL     1       2.927   7.022  18.490  0.00  0.00    +0.000 C 
ENDROOT
BRANCH   1   6
ATOM      2  O   UNL     1       2.367  11.833  17.733  0.00  0.00    +0.000 OA
ATOM      3  C   UNL     1       1.846  11.096  18.568  0.00  0.00    +0.000 C 
ATOM      4  C   UNL     1       1.566   9.629  18.297  0.00  0.00    +0.000 C 
ATOM      5  N   UNL     1       1.454   8.790  19.504  0.00  0.00    +0.000 N 
ATOM      6  C   UNL     1       2.042   7.524  19.638  0.00  0.00    +0.000 C 
ATOM      7  O   UNL     1       1.936   6.821  20.647  0.00  0.00    +0.000 OA
ATOM      8  C   UNL     1       0.704   9.396  20.572  0.00  0.00    +0.000 A 
ATOM      9  C   UNL     1       0.028   8.656  21.549  0.00  0.00    +0.000 A 
ATOM     10  C   UNL     1      -0.637   9.295  22.599  0.00  0.00    +0.000 A 
ATOM     11  C   UNL     1      -0.622  10.684  22.700  0.00  0.00    +0.000 A 
ATOM     12  C   UNL     1       0.039  11.440  21.736  0.00  0.00    +0.000 A 
ATOM     13  C   UNL     1       0.676  10.801  20.670  0.00  0.00    +0.000 A 
ATOM     14  N   UNL     1       1.329  11.599  19.725  0.00  0.00    +0.000 N 
ATOM     15  H   UNL     1       1.415  12.597  19.859  0.00  0.00    +0.000 HD
ENDBRANCH   1   6
BRANCH   1  16
ATOM     16  O   UNL     1       2.260   6.010  17.730  0.00  0.00    +0.000 OA
BRANCH  16  17
ATOM     17  C   UNL     1       2.681   4.753  17.959  0.00  0.00    +0.000 C 
ATOM     18  O   UNL     1       1.992   3.748  18.007  0.00  0.00    +0.000 OA
BRANCH  17  19
ATOM     19  C   UNL     1       4.195   4.708  18.128  0.00  0.00    +0.000 A 
ATOM     20  N   UNL     1       4.656   4.815  19.343  0.00  0.00    +0.000 NA
ATOM     21  N   UNL     1       6.005   4.842  19.519  0.00  0.00    +0.000 N 
ATOM     22  C   UNL     1       6.948   4.853  18.520  0.00  0.00    +0.000 A 
ATOM     23  O   UNL     1       8.148   4.946  18.751  0.00  0.00    +0.000 OA
ATOM     24  C   UNL     1       6.437   4.731  17.145  0.00  0.00    +0.000 A 
ATOM     25  C   UNL     1       7.327   4.711  16.064  0.00  0.00    +0.000 A 
ATOM     26  C   UNL     1       6.843   4.555  14.766  0.00  0.00    +0.000 A 
ATOM     27  C   UNL     1       5.475   4.405  14.550  0.00  0.00    +0.000 A 
ATOM     28  C   UNL     1       4.587   4.428  15.630  0.00  0.00    +0.000 A 
ATOM     29  C   UNL     1       5.065   4.610  16.934  0.00  0.00    +0.000 A 
ATOM     30  H   UNL     1       6.337   4.914  20.476  0.00  0.00    +0.000 HD
ENDBRANCH  17  19
ENDBRANCH  16  17
ENDBRANCH   1  16
TORSDOF 4
ENDMDL
MODEL 3
REMARK VINA RESULT:      -8.3      2.712      7.805
REMARK  Name = 
REMARK  4 active torsions:
REMARK  status: ('A' for Active; 'I' for Inactive)
REMARK    1  A    between atoms: C_5  and  C_7
REMARK    2  A    between atoms: C_7  and  O_8
REMARK    3  A    between atoms: O_8  and  C_9
REMARK    4  A    between atoms: C_9  and  C_11
REMARK                            x       y       z     vdW  Elec       q    Type
REMARK                         _______ _______ _______ _____ _____    ______ ____
ROOT
ATOM      1  C   UNL     1       4.233   4.040  19.553  0.00  0.00    +0.000 C 
ENDROOT
BRANCH   1   6
ATOM      2  O   UNL     1       8.083   6.944  18.664  0.00  0.00    +0.000 OA
ATOM      3  C   UNL     1       7.505   6.145  17.929  0.00  0.00    +0.000 C 
ATOM      4  C   UNL     1       6.834   4.891  18.457  0.00  0.00    +0.000 C 
ATOM      5  N   UNL     1       5.774   4.347  17.589  0.00  0.00    +0.000 N 
ATOM      6  C   UNL     1       4.535   3.887  18.057  0.00  0.00    +0.000 C 
ATOM      7  O   UNL     1       3.654   3.422  17.327  0.00  0.00    +0.000 OA
ATOM      8  C   UNL     1       6.101   4.354  16.188  0.00  0.00    +0.000 A 
ATOM      9  C   UNL     1       5.545   3.458  15.267  0.00  0.00    +0.000 A 
ATOM     10  C   UNL     1       5.854   3.547  13.906  0.00  0.00    +0.000 A 
ATOM     11  C   UNL     1       6.710   4.542  13.442  0.00  0.00    +0.000 A 
ATOM     12  C   UNL     1       7.279   5.439  14.341  0.00  0.00    +0.000 A 
ATOM     13  C   UNL     1       6.994   5.330  15.704  0.00  0.00    +0.000 A 
ATOM     14  N   UNL     1       7.587   6.253  16.572  0.00  0.00    +0.000 N 
ATOM     15  H   UNL     1       8.129   7.028  16.215  0.00  0.00    +0.000 HD
ENDBRANCH   1   6
BRANCH   1  16
ATOM     16  O   UNL     1       3.896   5.392  19.875  0.00  0.00    +0.000 OA
BRANCH  16  17
ATOM     17  C   UNL     1       2.577   5.662  19.900  0.00  0.00    +0.000 C 
ATOM     18  O   UNL     1       1.698   4.974  20.389  0.00  0.00    +0.000 OA
BRANCH  17  19
ATOM     19  C   UNL     1       2.285   7.007  19.246  0.00  0.00    +0.000 A 
ATOM     20  N   UNL     1       2.737   7.185  18.036  0.00  0.00    +0.000 NA
ATOM     21  N   UNL     1       2.548   8.398  17.449  0.00  0.00    +0.000 N 
ATOM     22  C   UNL     1       1.991   9.503  18.046  0.00  0.00    +0.000 A 
ATOM     23  O   UNL     1       1.913  10.587  17.478  0.00  0.00    +0.000 OA
ATOM     24  C   UNL     1       1.476   9.312  19.412  0.00  0.00    +0.000 A 
ATOM     25  C   UNL     1       0.873  10.378  20.091  0.00  0.00    +0.000 A 
ATOM     26  C   UNL     1       0.350  10.183  21.369  0.00  0.00    +0.000 A 
ATOM     27  C   UNL     1       0.418   8.924  21.960  0.00  0.00    +0.000 A 
ATOM     28  C   UNL     1       1.024   7.861  21.283  0.00  0.00    +0.000 A 
ATOM     29  C   UNL     1       1.573   8.057  20.009  0.00  0.00    +0.000 A 
ATOM     30  H   UNL     1       2.900   8.506  16.502  0.00  0.00    +0.000 HD
ENDBRANCH  17  19
ENDBRANCH  16  17
ENDBRANCH   1  16
TORSDOF 4
ENDMDL
MODEL 4
REMARK VINA RESULT:      -8.3      2.612      2.941
REMARK  Name = 
REMARK  4 active torsions:
REMARK  status: ('A' for Active; 'I' for Inactive)
REMARK    1  A    between atoms: C_5  and  C_7
REMARK    2  A    between atoms: C_7  and  O_8
REMARK    3  A    between atoms: O_8  and  C_9
REMARK    4  A    between atoms: C_9  and  C_11
REMARK                            x       y       z     vdW  Elec       q    Type
REMARK                         _______ _______ _______ _____ _____    ______ ____
ROOT
ATOM      1  C   UNL     1       1.501   9.289  17.684  0.00  0.00    +0.000 C 
ENDROOT
BRANCH   1   6
ATOM      2  O   UNL     1      -2.618  11.153  15.786  0.00  0.00    +0.000 OA
ATOM      3  C   UNL     1      -2.224  11.122  16.951  0.00  0.00    +0.000 C 
ATOM      4  C   UNL     1      -1.352  10.000  17.486  0.00  0.00    +0.000 C 
ATOM      5  N   UNL     1      -0.552  10.354  18.671  0.00  0.00    +0.000 N 
ATOM      6  C   UNL     1       0.796  10.007  18.841  0.00  0.00    +0.000 C 
ATOM      7  O   UNL     1       1.459  10.297  19.842  0.00  0.00    +0.000 OA
ATOM      8  C   UNL     1      -1.265  11.131  19.651  0.00  0.00    +0.000 A 
ATOM      9  C   UNL     1      -0.939  11.132  21.012  0.00  0.00    +0.000 A 
ATOM     10  C   UNL     1      -1.628  11.951  21.912  0.00  0.00    +0.000 A 
ATOM     11  C   UNL     1      -2.642  12.792  21.464  0.00  0.00    +0.000 A 
ATOM     12  C   UNL     1      -2.987  12.803  20.115  0.00  0.00    +0.000 A 
ATOM     13  C   UNL     1      -2.319  11.961  19.223  0.00  0.00    +0.000 A 
ATOM     14  N   UNL     1      -2.697  12.005  17.876  0.00  0.00    +0.000 N 
ATOM     15  H   UNL     1      -3.366  12.686  17.546  0.00  0.00    +0.000 HD
ENDBRANCH   1   6
BRANCH   1  16
ATOM     16  O   UNL     1       1.432   7.869  17.839  0.00  0.00    +0.000 OA
BRANCH  16  17
ATOM     17  C   UNL     1       2.599   7.269  18.137  0.00  0.00    +0.000 C 
ATOM     18  O   UNL     1       3.700   7.547  17.692  0.00  0.00    +0.000 OA
BRANCH  17  19
ATOM     19  C   UNL     1       2.396   6.169  19.171  0.00  0.00    +0.000 A 
ATOM     20  N   UNL     1       2.229   6.546  20.408  0.00  0.00    +0.000 NA
ATOM     21  N   UNL     1       2.109   5.586  21.364  0.00  0.00    +0.000 N 
ATOM     22  C   UNL     1       2.233   4.231  21.165  0.00  0.00    +0.000 A 
ATOM     23  O   UNL     1       2.179   3.425  22.086  0.00  0.00    +0.000 OA
ATOM     24  C   UNL     1       2.420   3.796  19.771  0.00  0.00    +0.000 A 
ATOM     25  C   UNL     1       2.534   2.432  19.471  0.00  0.00    +0.000 A 
ATOM     26  C   UNL     1       2.670   2.020  18.147  0.00  0.00    +0.000 A 
ATOM     27  C   UNL     1       2.680   2.966  17.124  0.00  0.00    +0.000 A 
ATOM     28  C   UNL     1       2.569   4.327  17.425  0.00  0.00    +0.000 A 
ATOM     29  C   UNL     1       2.457   4.749  18.756  0.00  0.00    +0.000 A 
ATOM     30  H   UNL     1       1.968   5.907  22.317  0.00  0.00    +0.000 HD
ENDBRANCH  17  19
ENDBRANCH  16  17
ENDBRANCH   1  16
TORSDOF 4
ENDMDL
MODEL 5
REMARK VINA RESULT:      -8.1      1.586      1.665
REMARK  Name = 
REMARK  4 active torsions:
REMARK  status: ('A' for Active; 'I' for Inactive)
REMARK    1  A    between atoms: C_5  and  C_7
REMARK    2  A    between atoms: C_7  and  O_8
REMARK    3  A    between atoms: O_8  and  C_9
REMARK    4  A    between atoms: C_9  and  C_11
REMARK                            x       y       z     vdW  Elec       q    Type
REMARK                         _______ _______ _______ _____ _____    ______ ____
ROOT
ATOM      1  C   UNL     1       1.995   8.586  18.025  0.00  0.00    +0.000 C 
ENDROOT
BRANCH   1   6
ATOM      2  O   UNL     1      -0.960  12.467  17.526  0.00  0.00    +0.000 OA
ATOM      3  C   UNL     1      -0.771  11.732  18.494  0.00  0.00    +0.000 C 
ATOM      4  C   UNL     1      -0.404  10.267  18.346  0.00  0.00    +0.000 C 
ATOM      5  N   UNL     1       0.288   9.684  19.509  0.00  0.00    +0.000 N 
ATOM      6  C   UNL     1       1.406   8.844  19.418  0.00  0.00    +0.000 C 
ATOM      7  O   UNL     1       1.976   8.349  20.395  0.00  0.00    +0.000 OA
ATOM      8  C   UNL     1      -0.263  10.079  20.779  0.00  0.00    +0.000 A 
ATOM      9  C   UNL     1      -0.155   9.299  21.936  0.00  0.00    +0.000 A 
ATOM     10  C   UNL     1      -0.659   9.757  23.157  0.00  0.00    +0.000 A 
ATOM     11  C   UNL     1      -1.263  11.009  23.245  0.00  0.00    +0.000 A 
ATOM     12  C   UNL     1      -1.386  11.799  22.105  0.00  0.00    +0.000 A 
ATOM     13  C   UNL     1      -0.911  11.326  20.880  0.00  0.00    +0.000 A 
ATOM     14  N   UNL     1      -1.054  12.152  19.760  0.00  0.00    +0.000 N 
ATOM     15  H   UNL     1      -1.406  13.095  19.852  0.00  0.00    +0.000 HD
ENDBRANCH   1   6
BRANCH   1  16
ATOM     16  O   UNL     1       2.200   7.188  17.803  0.00  0.00    +0.000 OA
BRANCH  16  17
ATOM     17  C   UNL     1       3.486   6.792  17.799  0.00  0.00    +0.000 C 
ATOM     18  O   UNL     1       4.471   7.506  17.743  0.00  0.00    +0.000 OA
BRANCH  17  19
ATOM     19  C   UNL     1       3.588   5.275  17.915  0.00  0.00    +0.000 A 
ATOM     20  N   UNL     1       4.388   4.674  17.079  0.00  0.00    +0.000 NA
ATOM     21  N   UNL     1       4.452   3.315  17.114  0.00  0.00    +0.000 N 
ATOM     22  C   UNL     1       3.683   2.492  17.901  0.00  0.00    +0.000 A 
ATOM     23  O   UNL     1       3.747   1.270  17.833  0.00  0.00    +0.000 OA
ATOM     24  C   UNL     1       2.778   3.163  18.850  0.00  0.00    +0.000 A 
ATOM     25  C   UNL     1       1.971   2.404  19.707  0.00  0.00    +0.000 A 
ATOM     26  C   UNL     1       1.146   3.042  20.632  0.00  0.00    +0.000 A 
ATOM     27  C   UNL     1       1.136   4.433  20.709  0.00  0.00    +0.000 A 
ATOM     28  C   UNL     1       1.940   5.189  19.850  0.00  0.00    +0.000 A 
ATOM     29  C   UNL     1       2.753   4.555  18.902  0.00  0.00    +0.000 A 
ATOM     30  H   UNL     1       5.092   2.873  16.461  0.00  0.00    +0.000 HD
ENDBRANCH  17  19
ENDBRANCH  16  17
ENDBRANCH   1  16
TORSDOF 4
ENDMDL
MODEL 6
REMARK VINA RESULT:      -8.1      2.462      3.160
REMARK  Name = 
REMARK  4 active torsions:
REMARK  status: ('A' for Active; 'I' for Inactive)
REMARK    1  A    between atoms: C_5  and  C_7
REMARK    2  A    between atoms: C_7  and  O_8
REMARK    3  A    between atoms: O_8  and  C_9
REMARK    4  A    between atoms: C_9  and  C_11
REMARK                            x       y       z     vdW  Elec       q    Type
REMARK                         _______ _______ _______ _____ _____    ______ ____
ROOT
ATOM      1  C   UNL     1       1.631   9.608  17.838  0.00  0.00    +0.000 C 
ENDROOT
BRANCH   1   6
ATOM      2  O   UNL     1      -2.574  10.918  15.682  0.00  0.00    +0.000 OA
ATOM      3  C   UNL     1      -2.228  10.997  16.860  0.00  0.00    +0.000 C 
ATOM      4  C   UNL     1      -1.269  10.006  17.495  0.00  0.00    +0.000 C 
ATOM      5  N   UNL     1      -0.559  10.511  18.683  0.00  0.00    +0.000 N 
ATOM      6  C   UNL     1       0.809  10.316  18.922  0.00  0.00    +0.000 C 
ATOM      7  O   UNL     1       1.398  10.733  19.925  0.00  0.00    +0.000 OA
ATOM      8  C   UNL     1      -1.387  11.267  19.586  0.00  0.00    +0.000 A 
ATOM      9  C   UNL     1      -1.119  11.383  20.954  0.00  0.00    +0.000 A 
ATOM     10  C   UNL     1      -1.925  12.178  21.776  0.00  0.00    +0.000 A 
ATOM     11  C   UNL     1      -2.999  12.882  21.240  0.00  0.00    +0.000 A 
ATOM     12  C   UNL     1      -3.287  12.776  19.881  0.00  0.00    +0.000 A 
ATOM     13  C   UNL     1      -2.501  11.957  19.069  0.00  0.00    +0.000 A 
ATOM     14  N   UNL     1      -2.825  11.880  17.710  0.00  0.00    +0.000 N 
ATOM     15  H   UNL     1      -3.545  12.468  17.314  0.00  0.00    +0.000 HD
ENDBRANCH   1   6
BRANCH   1  16
ATOM     16  O   UNL     1       1.440   8.191  17.889  0.00  0.00    +0.000 OA
BRANCH  16  17
ATOM     17  C   UNL     1       2.207   7.544  18.785  0.00  0.00    +0.000 C 
ATOM     18  O   UNL     1       2.193   7.682  19.996  0.00  0.00    +0.000 OA
BRANCH  17  19
ATOM     19  C   UNL     1       3.121   6.540  18.093  0.00  0.00    +0.000 A 
ATOM     20  N   UNL     1       4.150   7.022  17.454  0.00  0.00    +0.000 NA
ATOM     21  N   UNL     1       4.949   6.157  16.773  0.00  0.00    +0.000 N 
ATOM     22  C   UNL     1       4.729   4.809  16.618  0.00  0.00    +0.000 A 
ATOM     23  O   UNL     1       5.457   4.100  15.933  0.00  0.00    +0.000 OA
ATOM     24  C   UNL     1       3.570   4.255  17.337  0.00  0.00    +0.000 A 
ATOM     25  C   UNL     1       3.282   2.887  17.255  0.00  0.00    +0.000 A 
ATOM     26  C   UNL     1       2.208   2.358  17.969  0.00  0.00    +0.000 A 
ATOM     27  C   UNL     1       1.433   3.191  18.773  0.00  0.00    +0.000 A 
ATOM     28  C   UNL     1       1.721   4.556  18.852  0.00  0.00    +0.000 A 
ATOM     29  C   UNL     1       2.783   5.098  18.117  0.00  0.00    +0.000 A 
ATOM     30  H   UNL     1       5.750   6.558  16.294  0.00  0.00    +0.000 HD
ENDBRANCH  17  19
ENDBRANCH  16  17
ENDBRANCH   1  16
TORSDOF 4
ENDMDL
MODEL 7
REMARK VINA RESULT:      -8.0      1.276      2.505
REMARK  Name = 
REMARK  4 active torsions:
REMARK  status: ('A' for Active; 'I' for Inactive)
REMARK    1  A    between atoms: C_5  and  C_7
REMARK    2  A    between atoms: C_7  and  O_8
REMARK    3  A    between atoms: O_8  and  C_9
REMARK    4  A    between atoms: C_9  and  C_11
REMARK                            x       y       z     vdW  Elec       q    Type
REMARK                         _______ _______ _______ _____ _____    ______ ____
ROOT
ATOM      1  C   UNL     1       2.320   7.610  18.199  0.00  0.00    +0.000 C 
ENDROOT
BRANCH   1   6
ATOM      2  O   UNL     1      -0.713   8.182  22.009  0.00  0.00    +0.000 OA
ATOM      3  C   UNL     1      -0.197   9.021  21.272  0.00  0.00    +0.000 C 
ATOM      4  C   UNL     1       1.161   8.814  20.627  0.00  0.00    +0.000 C 
ATOM      5  N   UNL     1       1.392   9.610  19.408  0.00  0.00    +0.000 N 
ATOM      6  C   UNL     1       1.978   9.104  18.239  0.00  0.00    +0.000 C 
ATOM      7  O   UNL     1       2.179   9.779  17.224  0.00  0.00    +0.000 OA
ATOM      8  C   UNL     1       0.929  10.970  19.499  0.00  0.00    +0.000 A 
ATOM      9  C   UNL     1       1.476  12.016  18.747  0.00  0.00    +0.000 A 
ATOM     10  C   UNL     1       0.949  13.309  18.831  0.00  0.00    +0.000 A 
ATOM     11  C   UNL     1      -0.142  13.572  19.654  0.00  0.00    +0.000 A 
ATOM     12  C   UNL     1      -0.698  12.547  20.415  0.00  0.00    +0.000 A 
ATOM     13  C   UNL     1      -0.151  11.264  20.354  0.00  0.00    +0.000 A 
ATOM     14  N   UNL     1      -0.741  10.264  21.135  0.00  0.00    +0.000 N 
ATOM     15  H   UNL     1      -1.589  10.443  21.653  0.00  0.00    +0.000 HD
ENDBRANCH   1   6
BRANCH   1  16
ATOM     16  O   UNL     1       3.736   7.405  18.211  0.00  0.00    +0.000 OA
BRANCH  16  17
ATOM     17  C   UNL     1       4.170   6.375  17.460  0.00  0.00    +0.000 C 
ATOM     18  O   UNL     1       4.458   6.403  16.277  0.00  0.00    +0.000 OA
BRANCH  17  19
ATOM     19  C   UNL     1       4.304   5.110  18.299  0.00  0.00    +0.000 A 
ATOM     20  N   UNL     1       5.476   4.868  18.817  0.00  0.00    +0.000 NA
ATOM     21  N   UNL     1       5.644   3.713  19.517  0.00  0.00    +0.000 N 
ATOM     22  C   UNL     1       4.708   2.718  19.667  0.00  0.00    +0.000 A 
ATOM     23  O   UNL     1       4.951   1.672  20.257  0.00  0.00    +0.000 OA
ATOM     24  C   UNL     1       3.381   2.984  19.087  0.00  0.00    +0.000 A 
ATOM     25  C   UNL     1       2.358   2.034  19.209  0.00  0.00    +0.000 A 
ATOM     26  C   UNL     1       1.092   2.306  18.695  0.00  0.00    +0.000 A 
ATOM     27  C   UNL     1       0.844   3.527  18.071  0.00  0.00    +0.000 A 
ATOM     28  C   UNL     1       1.867   4.472  17.947  0.00  0.00    +0.000 A 
ATOM     29  C   UNL     1       3.148   4.195  18.440  0.00  0.00    +0.000 A 
ATOM     30  H   UNL     1       6.563   3.555  19.920  0.00  0.00    +0.000 HD
ENDBRANCH  17  19
ENDBRANCH  16  17
ENDBRANCH   1  16
TORSDOF 4
ENDMDL
MODEL 8
REMARK VINA RESULT:      -8.0      2.342      3.742
REMARK  Name = 
REMARK  4 active torsions:
REMARK  status: ('A' for Active; 'I' for Inactive)
REMARK    1  A    between atoms: C_5  and  C_7
REMARK    2  A    between atoms: C_7  and  O_8
REMARK    3  A    between atoms: O_8  and  C_9
REMARK    4  A    between atoms: C_9  and  C_11
REMARK                            x       y       z     vdW  Elec       q    Type
REMARK                         _______ _______ _______ _____ _____    ______ ____
ROOT
ATOM      1  C   UNL     1       2.175   7.279  18.983  0.00  0.00    +0.000 C 
ENDROOT
BRANCH   1   6
ATOM      2  O   UNL     1      -0.725   8.822  22.623  0.00  0.00    +0.000 OA
ATOM      3  C   UNL     1      -0.196   9.452  21.708  0.00  0.00    +0.000 C 
ATOM      4  C   UNL     1       1.134   9.043  21.101  0.00  0.00    +0.000 C 
ATOM      5  N   UNL     1       1.364   9.538  19.732  0.00  0.00    +0.000 N 
ATOM      6  C   UNL     1       1.896   8.759  18.695  0.00  0.00    +0.000 C 
ATOM      7  O   UNL     1       2.097   9.181  17.552  0.00  0.00    +0.000 OA
ATOM      8  C   UNL     1       0.960  10.904  19.525  0.00  0.00    +0.000 A 
ATOM      9  C   UNL     1       1.529  11.731  18.550  0.00  0.00    +0.000 A 
ATOM     10  C   UNL     1       1.058  13.033  18.353  0.00  0.00    +0.000 A 
ATOM     11  C   UNL     1       0.002  13.523  19.116  0.00  0.00    +0.000 A 
ATOM     12  C   UNL     1      -0.574  12.719  20.096  0.00  0.00    +0.000 A 
ATOM     13  C   UNL     1      -0.082  11.430  20.313  0.00  0.00    +0.000 A 
ATOM     14  N   UNL     1      -0.691  10.657  21.307  0.00  0.00    +0.000 N 
ATOM     15  H   UNL     1      -1.517  10.986  21.788  0.00  0.00    +0.000 HD
ENDBRANCH   1   6
BRANCH   1  16
ATOM     16  O   UNL     1       2.615   6.598  17.804  0.00  0.00    +0.000 OA
BRANCH  16  17
ATOM     17  C   UNL     1       2.857   5.284  17.959  0.00  0.00    +0.000 C 
ATOM     18  O   UNL     1       2.034   4.384  17.971  0.00  0.00    +0.000 OA
BRANCH  17  19
ATOM     19  C   UNL     1       4.352   5.018  18.092  0.00  0.00    +0.000 A 
ATOM     20  N   UNL     1       4.857   5.078  19.293  0.00  0.00    +0.000 NA
ATOM     21  N   UNL     1       6.199   4.908  19.436  0.00  0.00    +0.000 N 
ATOM     22  C   UNL     1       7.106   4.760  18.415  0.00  0.00    +0.000 A 
ATOM     23  O   UNL     1       8.312   4.679  18.615  0.00  0.00    +0.000 OA
ATOM     24  C   UNL     1       6.545   4.690  17.055  0.00  0.00    +0.000 A 
ATOM     25  C   UNL     1       7.393   4.519  15.954  0.00  0.00    +0.000 A 
ATOM     26  C   UNL     1       6.856   4.412  14.672  0.00  0.00    +0.000 A 
ATOM     27  C   UNL     1       5.476   4.463  14.493  0.00  0.00    +0.000 A 
ATOM     28  C   UNL     1       4.631   4.637  15.592  0.00  0.00    +0.000 A 
ATOM     29  C   UNL     1       5.166   4.770  16.880  0.00  0.00    +0.000 A 
ATOM     30  H   UNL     1       6.564   4.948  20.384  0.00  0.00    +0.000 HD
ENDBRANCH  17  19
ENDBRANCH  16  17
ENDBRANCH   1  16
TORSDOF 4
ENDMDL
MODEL 9
REMARK VINA RESULT:      -7.9      2.414      3.098
REMARK  Name = 
REMARK  4 active torsions:
REMARK  status: ('A' for Active; 'I' for Inactive)
REMARK    1  A    between atoms: C_5  and  C_7
REMARK    2  A    between atoms: C_7  and  O_8
REMARK    3  A    between atoms: O_8  and  C_9
REMARK    4  A    between atoms: C_9  and  C_11
REMARK                            x       y       z     vdW  Elec       q    Type
REMARK                         _______ _______ _______ _____ _____    ______ ____
ROOT
ATOM      1  C   UNL     1       1.799   9.730  18.038  0.00  0.00    +0.000 C 
ENDROOT
BRANCH   1   6
ATOM      2  O   UNL     1       1.491  13.183  21.506  0.00  0.00    +0.000 OA
ATOM      3  C   UNL     1       0.634  12.754  20.735  0.00  0.00    +0.000 C 
ATOM      4  C   UNL     1       0.971  12.237  19.348  0.00  0.00    +0.000 C 
ATOM      5  N   UNL     1      -0.017  11.302  18.782  0.00  0.00    +0.000 N 
ATOM      6  C   UNL     1       0.317  10.118  18.111  0.00  0.00    +0.000 C 
ATOM      7  O   UNL     1      -0.515   9.343  17.628  0.00  0.00    +0.000 OA
ATOM      8  C   UNL     1      -1.386  11.689  19.003  0.00  0.00    +0.000 A 
ATOM      9  C   UNL     1      -2.436  11.303  18.163  0.00  0.00    +0.000 A 
ATOM     10  C   UNL     1      -3.756  11.659  18.457  0.00  0.00    +0.000 A 
ATOM     11  C   UNL     1      -4.049  12.390  19.605  0.00  0.00    +0.000 A 
ATOM     12  C   UNL     1      -3.018  12.790  20.452  0.00  0.00    +0.000 A 
ATOM     13  C   UNL     1      -1.698  12.461  20.139  0.00  0.00    +0.000 A 
ATOM     14  N   UNL     1      -0.694  12.882  21.019  0.00  0.00    +0.000 N 
ATOM     15  H   UNL     1      -0.925  13.328  21.895  0.00  0.00    +0.000 HD
ENDBRANCH   1   6
BRANCH   1  16
ATOM     16  O   UNL     1       1.956   8.364  17.647  0.00  0.00    +0.000 OA
BRANCH  16  17
ATOM     17  C   UNL     1       2.438   7.548  18.603  0.00  0.00    +0.000 C 
ATOM     18  O   UNL     1       2.231   7.623  19.802  0.00  0.00    +0.000 OA
BRANCH  17  19
ATOM     19  C   UNL     1       3.286   6.438  17.993  0.00  0.00    +0.000 A 
ATOM     20  N   UNL     1       4.370   6.801  17.367  0.00  0.00    +0.000 NA
ATOM     21  N   UNL     1       5.114   5.839  16.757  0.00  0.00    +0.000 N 
ATOM     22  C   UNL     1       4.789   4.507  16.663  0.00  0.00    +0.000 A 
ATOM     23  O   UNL     1       5.475   3.706  16.039  0.00  0.00    +0.000 OA
ATOM     24  C   UNL     1       3.567   4.087  17.369  0.00  0.00    +0.000 A 
ATOM     25  C   UNL     1       3.169   2.744  17.346  0.00  0.00    +0.000 A 
ATOM     26  C   UNL     1       2.034   2.343  18.049  0.00  0.00    +0.000 A 
ATOM     27  C   UNL     1       1.308   3.277  18.783  0.00  0.00    +0.000 A 
ATOM     28  C   UNL     1       1.704   4.617  18.803  0.00  0.00    +0.000 A 
ATOM     29  C   UNL     1       2.829   5.032  18.079  0.00  0.00    +0.000 A 
ATOM     30  H   UNL     1       5.960   6.148  16.286  0.00  0.00    +0.000 HD
ENDBRANCH  17  19
ENDBRANCH  16  17
ENDBRANCH   1  16
TORSDOF 4
ENDMDL
