MODEL 1
REMARK VINA RESULT:      -9.7      0.000      0.000
REMARK  Name = 
REMARK  5 active torsions:
REMARK  status: ('A' for Active; 'I' for Inactive)
REMARK    1  A    between atoms: C_2  and  C_4
REMARK    2  A    between atoms: C_6  and  N_7
REMARK    3  A    between atoms: C_8  and  C_10
REMARK    4  A    between atoms: C_10  and  N_11
REMARK    5  A    between atoms: N_14  and  C_15
REMARK                            x       y       z     vdW  Elec       q    Type
REMARK                         _______ _______ _______ _____ _____    ______ ____
ROOT
ATOM      1  C   UNL     1       5.680   4.287  18.449  0.00  0.00    +0.000 C 
ENDROOT
BRANCH   1   2
ATOM      2  N   UNL     1       4.494   4.904  18.973  0.00  0.00    +0.000 N 
ATOM      3  C   UNL     1       4.110   6.227  18.684  0.00  0.00    +0.000 A 
ATOM      4  O   UNL     1       4.766   7.008  18.006  0.00  0.00    +0.000 OA
ATOM      5  N   UNL     1       2.851   6.435  19.331  0.00  0.00    +0.000 N 
ATOM      6  C   UNL     1       2.456   5.205  19.902  0.00  0.00    +0.000 A 
ATOM      7  C   UNL     1       1.254   4.845  20.485  0.00  0.00    +0.000 A 
ATOM      8  C   UNL     1       1.092   3.510  20.867  0.00  0.00    +0.000 A 
ATOM      9  C   UNL     1       2.119   2.572  20.659  0.00  0.00    +0.000 A 
ATOM     10  C   UNL     1       3.325   2.946  20.054  0.00  0.00    +0.000 A 
ATOM     11  C   UNL     1       3.463   4.266  19.673  0.00  0.00    +0.000 A 
BRANCH   5  12
ATOM     12  C   UNL     1       2.143   7.615  19.309  0.00  0.00    +0.000 C 
ATOM     13  C   UNL     1       1.657   8.147  20.443  0.00  0.00    +0.000 C 
ATOM     14  C   UNL     1       0.878   9.423  20.496  0.00  0.00    +0.000 C 
ATOM     15  C   UNL     1       0.321   9.836  19.135  0.00  0.00    +0.000 C 
ATOM     16  C   UNL     1       1.374   9.688  18.042  0.00  0.00    +0.000 C 
ATOM     17  C   UNL     1       1.898   8.253  17.957  0.00  0.00    +0.000 C 
ENDBRANCH   5  12
ENDBRANCH   1   2
BRANCH   1  19
ATOM     18  N   UNL     1       6.662   4.541  16.221  0.00  0.00    +0.000 N 
ATOM     19  C   UNL     1       5.552   4.116  16.941  0.00  0.00    +0.000 C 
ATOM     20  O   UNL     1       4.507   3.673  16.470  0.00  0.00    +0.000 OA
ATOM     21  H   UNL     1       7.438   4.925  16.757  0.00  0.00    +0.000 HD
BRANCH  18  24
ATOM     22  C   UNL     1       6.259   3.659  12.589  0.00  0.00    +0.000 A 
ATOM     23  C   UNL     1       6.078   3.655  13.982  0.00  0.00    +0.000 A 
ATOM     24  C   UNL     1       6.807   4.514  14.813  0.00  0.00    +0.000 A 
ATOM     25  C   UNL     1       7.729   5.391  14.228  0.00  0.00    +0.000 A 
ATOM     26  C   UNL     1       7.920   5.399  12.841  0.00  0.00    +0.000 A 
ATOM     27  C   UNL     1       7.184   4.536  12.031  0.00  0.00    +0.000 A 
ATOM     28  F   UNL     1       7.395   4.576  10.707  0.00  0.00    +0.000 F 
BRANCH  22  30
ATOM     29  N   UNL     1       5.969   1.495  11.477  0.00  0.00    +0.000 N 
ATOM     30  C   UNL     1       5.436   2.712  11.782  0.00  0.00    +0.000 C 
ATOM     31  O   UNL     1       4.310   3.001  11.396  0.00  0.00    +0.000 OA
ATOM     32  H   UNL     1       5.398   0.861  10.931  0.00  0.00    +0.000 HD
ATOM     33  H   UNL     1       6.891   1.201  11.769  0.00  0.00    +0.000 HD
ENDBRANCH  22  30
ENDBRANCH  18  24
ENDBRANCH   1  19
TORSDOF 5
ENDMDL
MODEL 2
REMARK VINA RESULT:      -9.0      5.133      7.950
REMARK  Name = 
REMARK  5 active torsions:
REMARK  status: ('A' for Active; 'I' for Inactive)
REMARK    1  A    between atoms: C_2  and  C_4
REMARK    2  A    between atoms: C_6  and  N_7
REMARK    3  A    between atoms: C_8  and  C_10
REMARK    4  A    between atoms: C_10  and  N_11
REMARK    5  A    between atoms: N_14  and  C_15
REMARK                            x       y       z     vdW  Elec       q    Type
REMARK                         _______ _______ _______ _____ _____    ______ ____
ROOT
ATOM      1  C   UNL     1       8.034   5.914  18.482  0.00  0.00    +0.000 C 
ENDROOT
BRANCH   1   2
ATOM      2  N   UNL     1       6.925   5.201  17.915  0.00  0.00    +0.000 N 
ATOM      3  C   UNL     1       5.741   4.910  18.621  0.00  0.00    +0.000 A 
ATOM      4  O   UNL     1       5.552   5.180  19.800  0.00  0.00    +0.000 OA
ATOM      5  N   UNL     1       4.865   4.260  17.694  0.00  0.00    +0.000 N 
ATOM      6  C   UNL     1       5.495   4.272  16.430  0.00  0.00    +0.000 A 
ATOM      7  C   UNL     1       4.996   3.920  15.189  0.00  0.00    +0.000 A 
ATOM      8  C   UNL     1       5.811   4.143  14.075  0.00  0.00    +0.000 A 
ATOM      9  C   UNL     1       7.091   4.708  14.220  0.00  0.00    +0.000 A 
ATOM     10  C   UNL     1       7.578   5.075  15.480  0.00  0.00    +0.000 A 
ATOM     11  C   UNL     1       6.755   4.857  16.568  0.00  0.00    +0.000 A 
BRANCH   5  12
ATOM     12  C   UNL     1       3.607   3.794  18.000  0.00  0.00    +0.000 C 
ATOM     13  C   UNL     1       2.520   4.549  17.772  0.00  0.00    +0.000 C 
ATOM     14  C   UNL     1       1.123   4.112  18.080  0.00  0.00    +0.000 C 
ATOM     15  C   UNL     1       1.070   2.936  19.054  0.00  0.00    +0.000 C 
ATOM     16  C   UNL     1       2.087   1.864  18.679  0.00  0.00    +0.000 C 
ATOM     17  C   UNL     1       3.510   2.427  18.644  0.00  0.00    +0.000 C 
ENDBRANCH   5  12
ENDBRANCH   1   2
BRANCH   1  19
ATOM     18  N   UNL     1       8.765   8.211  18.905  0.00  0.00    +0.000 N 
ATOM     19  C   UNL     1       7.910   7.400  18.170  0.00  0.00    +0.000 C 
ATOM     20  O   UNL     1       7.070   7.777  17.356  0.00  0.00    +0.000 OA
ATOM     21  H   UNL     1       9.376   7.748  19.574  0.00  0.00    +0.000 HD
BRANCH  18  24
ATOM     22  C   UNL     1       9.494  11.810  19.711  0.00  0.00    +0.000 A 
ATOM     23  C   UNL     1       9.436  10.412  19.826  0.00  0.00    +0.000 A 
ATOM     24  C   UNL     1       8.849   9.623  18.830  0.00  0.00    +0.000 A 
ATOM     25  C   UNL     1       8.317  10.256  17.699  0.00  0.00    +0.000 A 
ATOM     26  C   UNL     1       8.365  11.650  17.578  0.00  0.00    +0.000 A 
ATOM     27  C   UNL     1       8.953  12.417  18.581  0.00  0.00    +0.000 A 
ATOM     28  F   UNL     1       8.981  13.749  18.426  0.00  0.00    +0.000 F 
BRANCH  22  30
ATOM     29  N   UNL     1       9.638  12.424  22.079  0.00  0.00    +0.000 N 
ATOM     30  C   UNL     1      10.140  12.569  20.820  0.00  0.00    +0.000 C 
ATOM     31  O   UNL     1      11.097  13.309  20.626  0.00  0.00    +0.000 OA
ATOM     32  H   UNL     1      10.088  12.942  22.823  0.00  0.00    +0.000 HD
ATOM     33  H   UNL     1       8.852  11.827  22.300  0.00  0.00    +0.000 HD
ENDBRANCH  22  30
ENDBRANCH  18  24
ENDBRANCH   1  19
TORSDOF 5
ENDMDL
MODEL 3
REMARK VINA RESULT:      -9.0      1.115      1.444
REMARK  Name = 
REMARK  5 active torsions:
REMARK  status: ('A' for Active; 'I' for Inactive)
REMARK    1  A    between atoms: C_2  and  C_4
REMARK    2  A    between atoms: C_6  and  N_7
REMARK    3  A    between atoms: C_8  and  C_10
REMARK    4  A    between atoms: C_10  and  N_11
REMARK    5  A    between atoms: N_14  and  C_15
REMARK                            x       y       z     vdW  Elec       q    Type
REMARK                         _______ _______ _______ _____ _____    ______ ____
ROOT
ATOM      1  C   UNL     1       6.223   4.068  18.812  0.00  0.00    +0.000 C 
ENDROOT
BRANCH   1   2
ATOM      2  N   UNL     1       4.886   4.573  18.945  0.00  0.00    +0.000 N 
ATOM      3  C   UNL     1       4.557   5.940  18.867  0.00  0.00    +0.000 A 
ATOM      4  O   UNL     1       5.372   6.844  18.733  0.00  0.00    +0.000 OA
ATOM      5  N   UNL     1       3.132   6.022  18.977  0.00  0.00    +0.000 N 
ATOM      6  C   UNL     1       2.630   4.702  19.009  0.00  0.00    +0.000 A 
ATOM      7  C   UNL     1       1.324   4.250  18.943  0.00  0.00    +0.000 A 
ATOM      8  C   UNL     1       1.118   2.869  18.877  0.00  0.00    +0.000 A 
ATOM      9  C   UNL     1       2.207   1.977  18.877  0.00  0.00    +0.000 A 
ATOM     10  C   UNL     1       3.524   2.449  18.928  0.00  0.00    +0.000 A 
ATOM     11  C   UNL     1       3.708   3.816  18.982  0.00  0.00    +0.000 A 
BRANCH   5  12
ATOM     12  C   UNL     1       2.410   7.194  18.966  0.00  0.00    +0.000 C 
ATOM     13  C   UNL     1       2.195   7.858  17.818  0.00  0.00    +0.000 C 
ATOM     14  C   UNL     1       1.424   9.137  17.729  0.00  0.00    +0.000 C 
ATOM     15  C   UNL     1       1.276   9.836  19.080  0.00  0.00    +0.000 C 
ATOM     16  C   UNL     1       0.891   8.846  20.173  0.00  0.00    +0.000 C 
ATOM     17  C   UNL     1       1.920   7.720  20.299  0.00  0.00    +0.000 C 
ENDBRANCH   5  12
ENDBRANCH   1   2
BRANCH   1  19
ATOM     18  N   UNL     1       6.030   3.905  16.377  0.00  0.00    +0.000 N 
ATOM     19  C   UNL     1       6.773   4.416  17.434  0.00  0.00    +0.000 C 
ATOM     20  O   UNL     1       7.815   5.060  17.346  0.00  0.00    +0.000 OA
ATOM     21  H   UNL     1       5.210   3.352  16.616  0.00  0.00    +0.000 HD
BRANCH  18  24
ATOM     22  C   UNL     1       6.047   3.469  12.643  0.00  0.00    +0.000 A 
ATOM     23  C   UNL     1       5.727   3.283  13.997  0.00  0.00    +0.000 A 
ATOM     24  C   UNL     1       6.319   4.060  14.999  0.00  0.00    +0.000 A 
ATOM     25  C   UNL     1       7.246   5.043  14.626  0.00  0.00    +0.000 A 
ATOM     26  C   UNL     1       7.576   5.232  13.280  0.00  0.00    +0.000 A 
ATOM     27  C   UNL     1       6.975   4.447  12.297  0.00  0.00    +0.000 A 
ATOM     28  F   UNL     1       7.317   4.662  11.018  0.00  0.00    +0.000 F 
BRANCH  22  30
ATOM     29  N   UNL     1       5.964   1.422  11.298  0.00  0.00    +0.000 N 
ATOM     30  C   UNL     1       5.364   2.597  11.644  0.00  0.00    +0.000 C 
ATOM     31  O   UNL     1       4.294   2.910  11.138  0.00  0.00    +0.000 OA
ATOM     32  H   UNL     1       5.488   0.838  10.621  0.00  0.00    +0.000 HD
ATOM     33  H   UNL     1       6.845   1.112  11.684  0.00  0.00    +0.000 HD
ENDBRANCH  22  30
ENDBRANCH  18  24
ENDBRANCH   1  19
TORSDOF 5
ENDMDL
MODEL 4
REMARK VINA RESULT:      -8.9      4.293      7.226
REMARK  Name = 
REMARK  5 active torsions:
REMARK  status: ('A' for Active; 'I' for Inactive)
REMARK    1  A    between atoms: C_2  and  C_4
REMARK    2  A    between atoms: C_6  and  N_7
REMARK    3  A    between atoms: C_8  and  C_10
REMARK    4  A    between atoms: C_10  and  N_11
REMARK    5  A    between atoms: N_14  and  C_15
REMARK                            x       y       z     vdW  Elec       q    Type
REMARK                         _______ _______ _______ _____ _____    ______ ____
ROOT
ATOM      1  C   UNL     1       1.484  10.059  17.919  0.00  0.00    +0.000 C 
ENDROOT
BRANCH   1   2
ATOM      2  N   UNL     1       0.331  10.587  18.591  0.00  0.00    +0.000 N 
ATOM      3  C   UNL     1       0.402  11.468  19.687  0.00  0.00    +0.000 A 
ATOM      4  O   UNL     1       1.443  11.835  20.218  0.00  0.00    +0.000 OA
ATOM      5  N   UNL     1      -0.947  11.814  20.018  0.00  0.00    +0.000 N 
ATOM      6  C   UNL     1      -1.789  11.221  19.052  0.00  0.00    +0.000 A 
ATOM      7  C   UNL     1      -3.145  11.390  18.836  0.00  0.00    +0.000 A 
ATOM      8  C   UNL     1      -3.709  10.762  17.722  0.00  0.00    +0.000 A 
ATOM      9  C   UNL     1      -2.916   9.990  16.853  0.00  0.00    +0.000 A 
ATOM     10  C   UNL     1      -1.542   9.840  17.073  0.00  0.00    +0.000 A 
ATOM     11  C   UNL     1      -1.001  10.476  18.173  0.00  0.00    +0.000 A 
BRANCH   5  12
ATOM     12  C   UNL     1      -1.313  12.644  21.053  0.00  0.00    +0.000 C 
ATOM     13  C   UNL     1      -1.275  13.979  20.909  0.00  0.00    +0.000 C 
ATOM     14  C   UNL     1      -1.654  14.944  21.988  0.00  0.00    +0.000 C 
ATOM     15  C   UNL     1      -1.671  14.305  23.376  0.00  0.00    +0.000 C 
ATOM     16  C   UNL     1      -2.373  12.952  23.350  0.00  0.00    +0.000 C 
ATOM     17  C   UNL     1      -1.706  11.992  22.362  0.00  0.00    +0.000 C 
ENDBRANCH   5  12
ENDBRANCH   1   2
BRANCH   1  19
ATOM     18  N   UNL     1       2.625   7.903  17.717  0.00  0.00    +0.000 N 
ATOM     19  C   UNL     1       1.894   8.736  18.555  0.00  0.00    +0.000 C 
ATOM     20  O   UNL     1       1.534   8.480  19.701  0.00  0.00    +0.000 OA
ATOM     21  H   UNL     1       2.808   8.243  16.776  0.00  0.00    +0.000 HD
BRANCH  18  24
ATOM     22  C   UNL     1       4.917   5.053  18.591  0.00  0.00    +0.000 A 
ATOM     23  C   UNL     1       4.471   6.348  18.278  0.00  0.00    +0.000 A 
ATOM     24  C   UNL     1       3.118   6.615  18.041  0.00  0.00    +0.000 A 
ATOM     25  C   UNL     1       2.201   5.560  18.126  0.00  0.00    +0.000 A 
ATOM     26  C   UNL     1       2.636   4.265  18.433  0.00  0.00    +0.000 A 
ATOM     27  C   UNL     1       3.987   4.020  18.665  0.00  0.00    +0.000 A 
ATOM     28  F   UNL     1       4.362   2.766  18.958  0.00  0.00    +0.000 F 
BRANCH  22  30
ATOM     29  N   UNL     1       7.110   4.232  17.871  0.00  0.00    +0.000 N 
ATOM     30  C   UNL     1       6.376   4.863  18.832  0.00  0.00    +0.000 C 
ATOM     31  O   UNL     1       6.919   5.255  19.857  0.00  0.00    +0.000 OA
ATOM     32  H   UNL     1       8.100   4.112  18.045  0.00  0.00    +0.000 HD
ATOM     33  H   UNL     1       6.716   3.889  17.005  0.00  0.00    +0.000 HD
ENDBRANCH  22  30
ENDBRANCH  18  24
ENDBRANCH   1  19
TORSDOF 5
ENDMDL
MODEL 5
REMARK VINA RESULT:      -8.9      1.251      1.251
REMARK  Name = 
REMARK  5 active torsions:
REMARK  status: ('A' for Active; 'I' for Inactive)
REMARK    1  A    between atoms: C_2  and  C_4
REMARK    2  A    between atoms: C_6  and  N_7
REMARK    3  A    between atoms: C_8  and  C_10
REMARK    4  A    between atoms: C_10  and  N_11
REMARK    5  A    between atoms: N_14  and  C_15
REMARK                            x       y       z     vdW  Elec       q    Type
REMARK                         _______ _______ _______ _____ _____    ______ ____
ROOT
ATOM      1  C   UNL     1       6.213   4.054  18.807  0.00  0.00    +0.000 C 
ENDROOT
BRANCH   1   2
ATOM      2  N   UNL     1       4.884   4.581  18.947  0.00  0.00    +0.000 N 
ATOM      3  C   UNL     1       4.580   5.955  18.891  0.00  0.00    +0.000 A 
ATOM      4  O   UNL     1       5.411   6.847  18.774  0.00  0.00    +0.000 OA
ATOM      5  N   UNL     1       3.157   6.060  18.999  0.00  0.00    +0.000 N 
ATOM      6  C   UNL     1       2.631   4.749  19.008  0.00  0.00    +0.000 A 
ATOM      7  C   UNL     1       1.318   4.322  18.932  0.00  0.00    +0.000 A 
ATOM      8  C   UNL     1       1.087   2.946  18.843  0.00  0.00    +0.000 A 
ATOM      9  C   UNL     1       2.160   2.035  18.830  0.00  0.00    +0.000 A 
ATOM     10  C   UNL     1       3.485   2.482  18.892  0.00  0.00    +0.000 A 
ATOM     11  C   UNL     1       3.694   3.845  18.968  0.00  0.00    +0.000 A 
BRANCH   5  12
ATOM     12  C   UNL     1       2.456   7.245  19.007  0.00  0.00    +0.000 C 
ATOM     13  C   UNL     1       1.892   7.703  20.137  0.00  0.00    +0.000 C 
ATOM     14  C   UNL     1       1.115   8.979  20.221  0.00  0.00    +0.000 C 
ATOM     15  C   UNL     1       0.658   9.487  18.855  0.00  0.00    +0.000 C 
ATOM     16  C   UNL     1       1.786   9.404  17.831  0.00  0.00    +0.000 C 
ATOM     17  C   UNL     1       2.310   7.974  17.687  0.00  0.00    +0.000 C 
ENDBRANCH   5  12
ENDBRANCH   1   2
BRANCH   1  19
ATOM     18  N   UNL     1       6.017   3.901  16.372  0.00  0.00    +0.000 N 
ATOM     19  C   UNL     1       6.766   4.401  17.431  0.00  0.00    +0.000 C 
ATOM     20  O   UNL     1       7.814   5.035  17.344  0.00  0.00    +0.000 OA
ATOM     21  H   UNL     1       5.191   3.356  16.610  0.00  0.00    +0.000 HD
BRANCH  18  24
ATOM     22  C   UNL     1       6.002   3.501  12.634  0.00  0.00    +0.000 A 
ATOM     23  C   UNL     1       5.679   3.316  13.988  0.00  0.00    +0.000 A 
ATOM     24  C   UNL     1       6.307   4.058  14.995  0.00  0.00    +0.000 A 
ATOM     25  C   UNL     1       7.272   5.005  14.627  0.00  0.00    +0.000 A 
ATOM     26  C   UNL     1       7.604   5.193  13.281  0.00  0.00    +0.000 A 
ATOM     27  C   UNL     1       6.967   4.444  12.294  0.00  0.00    +0.000 A 
ATOM     28  F   UNL     1       7.313   4.656  11.015  0.00  0.00    +0.000 F 
BRANCH  22  30
ATOM     29  N   UNL     1       4.085   3.123  11.154  0.00  0.00    +0.000 N 
ATOM     30  C   UNL     1       5.279   2.668  11.630  0.00  0.00    +0.000 C 
ATOM     31  O   UNL     1       5.729   1.601  11.232  0.00  0.00    +0.000 OA
ATOM     32  H   UNL     1       3.607   2.549  10.471  0.00  0.00    +0.000 HD
ATOM     33  H   UNL     1       3.667   3.996  11.445  0.00  0.00    +0.000 HD
ENDBRANCH  22  30
ENDBRANCH  18  24
ENDBRANCH   1  19
TORSDOF 5
ENDMDL
MODEL 6
REMARK VINA RESULT:      -8.8      4.475      7.384
REMARK  Name = 
REMARK  5 active torsions:
REMARK  status: ('A' for Active; 'I' for Inactive)
REMARK    1  A    between atoms: C_2  and  C_4
REMARK    2  A    between atoms: C_6  and  N_7
REMARK    3  A    between atoms: C_8  and  C_10
REMARK    4  A    between atoms: C_10  and  N_11
REMARK    5  A    between atoms: N_14  and  C_15
REMARK                            x       y       z     vdW  Elec       q    Type
REMARK                         _______ _______ _______ _____ _____    ______ ____
ROOT
ATOM      1  C   UNL     1       1.561  10.070  18.197  0.00  0.00    +0.000 C 
ENDROOT
BRANCH   1   2
ATOM      2  N   UNL     1       0.362  10.605  18.777  0.00  0.00    +0.000 N 
ATOM      3  C   UNL     1       0.353  11.502  19.863  0.00  0.00    +0.000 A 
ATOM      4  O   UNL     1       1.353  11.877  20.462  0.00  0.00    +0.000 OA
ATOM      5  N   UNL     1      -1.016  11.850  20.091  0.00  0.00    +0.000 N 
ATOM      6  C   UNL     1      -1.786  11.243  19.075  0.00  0.00    +0.000 A 
ATOM      7  C   UNL     1      -3.123  11.407  18.760  0.00  0.00    +0.000 A 
ATOM      8  C   UNL     1      -3.604  10.763  17.616  0.00  0.00    +0.000 A 
ATOM      9  C   UNL     1      -2.751   9.980  16.818  0.00  0.00    +0.000 A 
ATOM     10  C   UNL     1      -1.396   9.835  17.139  0.00  0.00    +0.000 A 
ATOM     11  C   UNL     1      -0.936  10.487  18.266  0.00  0.00    +0.000 A 
BRANCH   5  12
ATOM     12  C   UNL     1      -1.455  12.694  21.085  0.00  0.00    +0.000 C 
ATOM     13  C   UNL     1      -1.497  14.023  20.890  0.00  0.00    +0.000 C 
ATOM     14  C   UNL     1      -1.959  15.001  21.924  0.00  0.00    +0.000 C 
ATOM     15  C   UNL     1      -1.969  14.415  23.334  0.00  0.00    +0.000 C 
ATOM     16  C   UNL     1      -2.585  13.021  23.346  0.00  0.00    +0.000 C 
ATOM     17  C   UNL     1      -1.837  12.068  22.410  0.00  0.00    +0.000 C 
ENDBRANCH   5  12
ENDBRANCH   1   2
BRANCH   1  19
ATOM     18  N   UNL     1       2.423   7.799  17.889  0.00  0.00    +0.000 N 
ATOM     19  C   UNL     1       1.851   8.694  18.785  0.00  0.00    +0.000 C 
ATOM     20  O   UNL     1       1.538   8.457  19.949  0.00  0.00    +0.000 OA
ATOM     21  H   UNL     1       2.584   8.136  16.942  0.00  0.00    +0.000 HD
BRANCH  18  24
ATOM     22  C   UNL     1       2.248   4.146  18.757  0.00  0.00    +0.000 A 
ATOM     23  C   UNL     1       1.848   5.465  18.491  0.00  0.00    +0.000 A 
ATOM     24  C   UNL     1       2.780   6.456  18.160  0.00  0.00    +0.000 A 
ATOM     25  C   UNL     1       4.135   6.107  18.094  0.00  0.00    +0.000 A 
ATOM     26  C   UNL     1       4.544   4.796  18.363  0.00  0.00    +0.000 A 
ATOM     27  C   UNL     1       3.601   3.824  18.690  0.00  0.00    +0.000 A 
ATOM     28  F   UNL     1       4.034   2.579  18.939  0.00  0.00    +0.000 F 
BRANCH  22  30
ATOM     29  N   UNL     1       0.622   3.216  20.338  0.00  0.00    +0.000 N 
ATOM     30  C   UNL     1       1.186   3.156  19.097  0.00  0.00    +0.000 C 
ATOM     31  O   UNL     1       0.815   2.304  18.299  0.00  0.00    +0.000 OA
ATOM     32  H   UNL     1      -0.100   2.541  20.555  0.00  0.00    +0.000 HD
ATOM     33  H   UNL     1       0.886   3.898  21.037  0.00  0.00    +0.000 HD
ENDBRANCH  22  30
ENDBRANCH  18  24
ENDBRANCH   1  19
TORSDOF 5
ENDMDL
MODEL 7
REMARK VINA RESULT:      -8.7      5.191      7.983
REMARK  Name = 
REMARK  5 active torsions:
REMARK  status: ('A' for Active; 'I' for Inactive)
REMARK    1  A    between atoms: C_2  and  C_4
REMARK    2  A    between atoms: C_6  and  N_7
REMARK    3  A    between atoms: C_8  and  C_10
REMARK    4  A    between atoms: C_10  and  N_11
REMARK    5  A    between atoms: N_14  and  C_15
REMARK                            x       y       z     vdW  Elec       q    Type
REMARK                         _______ _______ _______ _____ _____    ______ ____
ROOT
ATOM      1  C   UNL     1       8.131   6.020  18.496  0.00  0.00    +0.000 C 
ENDROOT
BRANCH   1   2
ATOM      2  N   UNL     1       7.004   5.290  17.990  0.00  0.00    +0.000 N 
ATOM      3  C   UNL     1       5.864   4.983  18.758  0.00  0.00    +0.000 A 
ATOM      4  O   UNL     1       5.732   5.254  19.945  0.00  0.00    +0.000 OA
ATOM      5  N   UNL     1       4.950   4.318  17.879  0.00  0.00    +0.000 N 
ATOM      6  C   UNL     1       5.512   4.336  16.584  0.00  0.00    +0.000 A 
ATOM      7  C   UNL     1       4.954   3.974  15.372  0.00  0.00    +0.000 A 
ATOM      8  C   UNL     1       5.705   4.206  14.216  0.00  0.00    +0.000 A 
ATOM      9  C   UNL     1       6.983   4.790  14.292  0.00  0.00    +0.000 A 
ATOM     10  C   UNL     1       7.530   5.167  15.525  0.00  0.00    +0.000 A 
ATOM     11  C   UNL     1       6.769   4.940  16.655  0.00  0.00    +0.000 A 
BRANCH   5  12
ATOM     12  C   UNL     1       3.716   3.835  18.252  0.00  0.00    +0.000 C 
ATOM     13  C   UNL     1       3.531   2.523  18.477  0.00  0.00    +0.000 C 
ATOM     14  C   UNL     1       2.221   1.925  18.881  0.00  0.00    +0.000 C 
ATOM     15  C   UNL     1       1.036   2.848  18.601  0.00  0.00    +0.000 C 
ATOM     16  C   UNL     1       1.334   4.276  19.042  0.00  0.00    +0.000 C 
ATOM     17  C   UNL     1       2.579   4.830  18.346  0.00  0.00    +0.000 C 
ENDBRANCH   5  12
ENDBRANCH   1   2
BRANCH   1  19
ATOM     18  N   UNL     1       8.853   8.322  18.908  0.00  0.00    +0.000 N 
ATOM     19  C   UNL     1       7.933   7.512  18.255  0.00  0.00    +0.000 C 
ATOM     20  O   UNL     1       6.990   7.891  17.566  0.00  0.00    +0.000 OA
ATOM     21  H   UNL     1       9.554   7.855  19.479  0.00  0.00    +0.000 HD
BRANCH  18  24
ATOM     22  C   UNL     1       9.343  11.923  19.875  0.00  0.00    +0.000 A 
ATOM     23  C   UNL     1       9.324  10.521  19.951  0.00  0.00    +0.000 A 
ATOM     24  C   UNL     1       8.894   9.737  18.874  0.00  0.00    +0.000 A 
ATOM     25  C   UNL     1       8.481  10.381  17.700  0.00  0.00    +0.000 A 
ATOM     26  C   UNL     1       8.492  11.778  17.615  0.00  0.00    +0.000 A 
ATOM     27  C   UNL     1       8.923  12.539  18.699  0.00  0.00    +0.000 A 
ATOM     28  F   UNL     1       8.920  13.875  18.577  0.00  0.00    +0.000 F 
BRANCH  22  30
ATOM     29  N   UNL     1      10.722  13.679  20.882  0.00  0.00    +0.000 N 
ATOM     30  C   UNL     1       9.820  12.675  21.071  0.00  0.00    +0.000 C 
ATOM     31  O   UNL     1       9.424  12.413  22.199  0.00  0.00    +0.000 OA
ATOM     32  H   UNL     1      11.035  14.184  21.702  0.00  0.00    +0.000 HD
ATOM     33  H   UNL     1      11.083  13.941  19.975  0.00  0.00    +0.000 HD
ENDBRANCH  22  30
ENDBRANCH  18  24
ENDBRANCH   1  19
TORSDOF 5
ENDMDL
MODEL 8
REMARK VINA RESULT:      -8.5      5.017      8.331
REMARK  Name = 
REMARK  5 active torsions:
REMARK  status: ('A' for Active; 'I' for Inactive)
REMARK    1  A    between atoms: C_2  and  C_4
REMARK    2  A    between atoms: C_6  and  N_7
REMARK    3  A    between atoms: C_8  and  C_10
REMARK    4  A    between atoms: C_10  and  N_11
REMARK    5  A    between atoms: N_14  and  C_15
REMARK                            x       y       z     vdW  Elec       q    Type
REMARK                         _______ _______ _______ _____ _____    ______ ____
ROOT
ATOM      1  C   UNL     1       1.210   9.657  22.068  0.00  0.00    +0.000 C 
ENDROOT
BRANCH   1   2
ATOM      2  N   UNL     1       0.261  10.671  21.702  0.00  0.00    +0.000 N 
ATOM      3  C   UNL     1      -0.804  11.077  22.529  0.00  0.00    +0.000 A 
ATOM      4  O   UNL     1      -1.069  10.579  23.616  0.00  0.00    +0.000 OA
ATOM      5  N   UNL     1      -1.466  12.144  21.843  0.00  0.00    +0.000 N 
ATOM      6  C   UNL     1      -0.724  12.426  20.675  0.00  0.00    +0.000 A 
ATOM      7  C   UNL     1      -0.855  13.467  19.773  0.00  0.00    +0.000 A 
ATOM      8  C   UNL     1       0.100  13.570  18.758  0.00  0.00    +0.000 A 
ATOM      9  C   UNL     1       1.156  12.644  18.665  0.00  0.00    +0.000 A 
ATOM     10  C   UNL     1       1.286  11.605  19.594  0.00  0.00    +0.000 A 
ATOM     11  C   UNL     1       0.339  11.525  20.597  0.00  0.00    +0.000 A 
BRANCH   5  12
ATOM     12  C   UNL     1      -2.578  12.806  22.311  0.00  0.00    +0.000 C 
ATOM     13  C   UNL     1      -3.790  12.578  21.778  0.00  0.00    +0.000 C 
ATOM     14  C   UNL     1      -5.041  13.261  22.232  0.00  0.00    +0.000 C 
ATOM     15  C   UNL     1      -4.767  14.528  23.039  0.00  0.00    +0.000 C 
ATOM     16  C   UNL     1      -3.666  14.297  24.068  0.00  0.00    +0.000 C 
ATOM     17  C   UNL     1      -2.368  13.830  23.407  0.00  0.00    +0.000 C 
ENDBRANCH   5  12
ENDBRANCH   1   2
BRANCH   1  19
ATOM     18  N   UNL     1       2.064   7.821  20.693  0.00  0.00    +0.000 N 
ATOM     19  C   UNL     1       0.937   8.383  21.279  0.00  0.00    +0.000 C 
ATOM     20  O   UNL     1      -0.217   7.971  21.178  0.00  0.00    +0.000 OA
ATOM     21  H   UNL     1       2.947   8.306  20.836  0.00  0.00    +0.000 HD
BRANCH  18  24
ATOM     22  C   UNL     1       1.578   4.302  19.463  0.00  0.00    +0.000 A 
ATOM     23  C   UNL     1       1.516   5.439  20.284  0.00  0.00    +0.000 A 
ATOM     24  C   UNL     1       2.098   6.651  19.896  0.00  0.00    +0.000 A 
ATOM     25  C   UNL     1       2.748   6.716  18.656  0.00  0.00    +0.000 A 
ATOM     26  C   UNL     1       2.820   5.587  17.833  0.00  0.00    +0.000 A 
ATOM     27  C   UNL     1       2.234   4.389  18.238  0.00  0.00    +0.000 A 
ATOM     28  F   UNL     1       2.323   3.331  17.419  0.00  0.00    +0.000 F 
BRANCH  22  30
ATOM     29  N   UNL     1       1.062   2.737  21.277  0.00  0.00    +0.000 N 
ATOM     30  C   UNL     1       0.927   3.055  19.957  0.00  0.00    +0.000 C 
ATOM     31  O   UNL     1       0.285   2.322  19.215  0.00  0.00    +0.000 OA
ATOM     32  H   UNL     1       0.612   1.890  21.600  0.00  0.00    +0.000 HD
ATOM     33  H   UNL     1       1.578   3.304  21.936  0.00  0.00    +0.000 HD
ENDBRANCH  22  30
ENDBRANCH  18  24
ENDBRANCH   1  19
TORSDOF 5
ENDMDL
MODEL 9
REMARK VINA RESULT:      -8.5      5.193      7.709
REMARK  Name = 
REMARK  5 active torsions:
REMARK  status: ('A' for Active; 'I' for Inactive)
REMARK    1  A    between atoms: C_2  and  C_4
REMARK    2  A    between atoms: C_6  and  N_7
REMARK    3  A    between atoms: C_8  and  C_10
REMARK    4  A    between atoms: C_10  and  N_11
REMARK    5  A    between atoms: N_14  and  C_15
REMARK                            x       y       z     vdW  Elec       q    Type
REMARK                         _______ _______ _______ _____ _____    ______ ____
ROOT
ATOM      1  C   UNL     1       7.943   6.075  18.575  0.00  0.00    +0.000 C 
ENDROOT
BRANCH   1   2
ATOM      2  N   UNL     1       6.819   5.345  18.060  0.00  0.00    +0.000 N 
ATOM      3  C   UNL     1       5.655   5.077  18.806  0.00  0.00    +0.000 A 
ATOM      4  O   UNL     1       5.496   5.385  19.980  0.00  0.00    +0.000 OA
ATOM      5  N   UNL     1       4.755   4.398  17.923  0.00  0.00    +0.000 N 
ATOM      6  C   UNL     1       5.352   4.370  16.644  0.00  0.00    +0.000 A 
ATOM      7  C   UNL     1       4.820   3.979  15.428  0.00  0.00    +0.000 A 
ATOM      8  C   UNL     1       5.605   4.166  14.286  0.00  0.00    +0.000 A 
ATOM      9  C   UNL     1       6.889   4.735  14.380  0.00  0.00    +0.000 A 
ATOM     10  C   UNL     1       7.408   5.141  15.615  0.00  0.00    +0.000 A 
ATOM     11  C   UNL     1       6.614   4.959  16.730  0.00  0.00    +0.000 A 
BRANCH   5  12
ATOM     12  C   UNL     1       3.505   3.943  18.277  0.00  0.00    +0.000 C 
ATOM     13  C   UNL     1       2.486   4.799  18.455  0.00  0.00    +0.000 C 
ATOM     14  C   UNL     1       1.103   4.379  18.841  0.00  0.00    +0.000 C 
ATOM     15  C   UNL     1       1.053   2.968  19.426  0.00  0.00    +0.000 C 
ATOM     16  C   UNL     1       1.888   1.999  18.597  0.00  0.00    +0.000 C 
ATOM     17  C   UNL     1       3.346   2.453  18.501  0.00  0.00    +0.000 C 
ENDBRANCH   5  12
ENDBRANCH   1   2
BRANCH   1  19
ATOM     18  N   UNL     1       8.710   8.391  18.775  0.00  0.00    +0.000 N 
ATOM     19  C   UNL     1       7.909   7.509  18.060  0.00  0.00    +0.000 C 
ATOM     20  O   UNL     1       7.177   7.794  17.116  0.00  0.00    +0.000 OA
ATOM     21  H   UNL     1       9.227   8.007  19.563  0.00  0.00    +0.000 HD
BRANCH  18  24
ATOM     22  C   UNL     1      10.064  11.897  18.685  0.00  0.00    +0.000 A 
ATOM     23  C   UNL     1       9.964  10.521  18.949  0.00  0.00    +0.000 A 
ATOM     24  C   UNL     1       8.856   9.777  18.527  0.00  0.00    +0.000 A 
ATOM     25  C   UNL     1       7.836  10.432  17.824  0.00  0.00    +0.000 A 
ATOM     26  C   UNL     1       7.925  11.804  17.560  0.00  0.00    +0.000 A 
ATOM     27  C   UNL     1       9.036  12.527  17.990  0.00  0.00    +0.000 A 
ATOM     28  F   UNL     1       9.083  13.839  17.715  0.00  0.00    +0.000 F 
BRANCH  22  30
ATOM     29  N   UNL     1      12.333  12.743  18.312  0.00  0.00    +0.000 N 
ATOM     30  C   UNL     1      11.282  12.607  19.170  0.00  0.00    +0.000 C 
ATOM     31  O   UNL     1      11.356  13.064  20.304  0.00  0.00    +0.000 OA
ATOM     32  H   UNL     1      13.153  13.230  18.653  0.00  0.00    +0.000 HD
ATOM     33  H   UNL     1      12.328  12.389  17.365  0.00  0.00    +0.000 HD
ENDBRANCH  22  30
ENDBRANCH  18  24
ENDBRANCH   1  19
TORSDOF 5
ENDMDL
