MODEL 1
REMARK VINA RESULT:      -8.5      0.000      0.000
REMARK  Name = 
REMARK  7 active torsions:
REMARK  status: ('A' for Active; 'I' for Inactive)
REMARK    1  A    between atoms: C_1  and  C_2
REMARK    2  A    between atoms: C_2  and  C_3
REMARK    3  A    between atoms: C_2  and  N_4
REMARK    4  A    between atoms: C_6  and  C_7
REMARK    5  A    between atoms: C_13  and  N_14
REMARK    6  A    between atoms: C_15  and  C_17
REMARK    7  A    between atoms: C_21  and  N_22
REMARK                            x       y       z     vdW  Elec       q    Type
REMARK                         _______ _______ _______ _____ _____    ______ ____
ROOT
ATOM      1  N   UNL     1       4.385   7.326  17.754  0.00  0.00    +0.000 N 
ATOM      2  C   UNL     1       3.117   6.778  18.165  0.00  0.00    +0.000 C 
ATOM      3  O   UNL     1       2.786   5.640  17.868  0.00  0.00    +0.000 OA
ATOM      4  H   UNL     1       4.662   8.229  18.110  0.00  0.00    +0.000 HD
ENDROOT
BRANCH   2   5
ATOM      5  C   UNL     1       2.235   7.629  18.992  0.00  0.00    +0.000 A 
ATOM      6  C   UNL     1       1.917   7.303  20.312  0.00  0.00    +0.000 A 
ATOM      7  C   UNL     1       1.116   8.168  21.046  0.00  0.00    +0.000 A 
ATOM      8  C   UNL     1       0.638   9.342  20.465  0.00  0.00    +0.000 A 
ATOM      9  C   UNL     1       0.926   9.689  19.137  0.00  0.00    +0.000 A 
ATOM     10  C   UNL     1       1.748   8.817  18.416  0.00  0.00    +0.000 A 
BRANCH   9  11
ATOM     11  N   UNL     1       0.448  10.848  18.516  0.00  0.00    +0.000 N 
ATOM     12  C   UNL     1       0.669  12.196  18.799  0.00  0.00    +0.000 A 
ATOM     13  N   UNL     1       1.657  12.581  19.620  0.00  0.00    +0.000 NA
ATOM     14  C   UNL     1       1.780  13.889  19.897  0.00  0.00    +0.000 A 
ATOM     15  C   UNL     1       0.943  14.842  19.387  0.00  0.00    +0.000 A 
ATOM     16  C   UNL     1      -0.032  14.370  18.545  0.00  0.00    +0.000 A 
ATOM     17  N   UNL     1      -0.187  13.063  18.235  0.00  0.00    +0.000 NA
ATOM     18  H   UNL     1      -0.353  10.772  17.903  0.00  0.00    +0.000 HD
ENDBRANCH   9  11
ENDBRANCH   2   5
BRANCH   1  23
ATOM     19  N   UNL     1       6.576   6.244  17.288  0.00  0.00    +0.000 N 
ATOM     20  N   UNL     1       7.169   5.495  16.334  0.00  0.00    +0.000 NA
ATOM     21  C   UNL     1       6.286   5.492  15.330  0.00  0.00    +0.000 A 
ATOM     22  C   UNL     1       5.114   6.195  15.663  0.00  0.00    +0.000 A 
ATOM     23  C   UNL     1       5.292   6.632  16.955  0.00  0.00    +0.000 A 
BRANCH  21  24
ATOM     24  C   UNL     1       6.520   4.821  14.023  0.00  0.00    +0.000 A 
ATOM     25  C   UNL     1       5.808   3.757  13.507  0.00  0.00    +0.000 A 
ATOM     26  C   UNL     1       6.388   3.450  12.252  0.00  0.00    +0.000 A 
ATOM     27  C   UNL     1       7.421   4.340  12.080  0.00  0.00    +0.000 A 
ATOM     28  O   UNL     1       7.503   5.180  13.141  0.00  0.00    +0.000 OA
ENDBRANCH  21  24
BRANCH  19  30
ATOM     29  C   UNL     1       8.166   5.429  19.001  0.00  0.00    +0.000 C 
ATOM     30  C   UNL     1       7.349   6.607  18.473  0.00  0.00    +0.000 C 
ATOM     31  C   UNL     1       8.244   7.817  18.197  0.00  0.00    +0.000 C 
ENDBRANCH  19  30
ENDBRANCH   1  23
TORSDOF 5
ENDMDL
MODEL 2
REMARK VINA RESULT:      -8.4      2.641      4.022
REMARK  Name = 
REMARK  7 active torsions:
REMARK  status: ('A' for Active; 'I' for Inactive)
REMARK    1  A    between atoms: C_1  and  C_2
REMARK    2  A    between atoms: C_2  and  C_3
REMARK    3  A    between atoms: C_2  and  N_4
REMARK    4  A    between atoms: C_6  and  C_7
REMARK    5  A    between atoms: C_13  and  N_14
REMARK    6  A    between atoms: C_15  and  C_17
REMARK    7  A    between atoms: C_21  and  N_22
REMARK                            x       y       z     vdW  Elec       q    Type
REMARK                         _______ _______ _______ _____ _____    ______ ____
ROOT
ATOM      1  N   UNL     1       1.850   6.801  20.459  0.00  0.00    +0.000 N 
ATOM      2  C   UNL     1       1.534   8.128  19.994  0.00  0.00    +0.000 C 
ATOM      3  O   UNL     1       1.848   8.505  18.876  0.00  0.00    +0.000 OA
ATOM      4  H   UNL     1       1.480   6.496  21.347  0.00  0.00    +0.000 HD
ENDROOT
BRANCH   2   5
ATOM      5  C   UNL     1       0.784   9.016  20.907  0.00  0.00    +0.000 A 
ATOM      6  C   UNL     1       0.628   8.723  22.263  0.00  0.00    +0.000 A 
ATOM      7  C   UNL     1      -0.054   9.622  23.074  0.00  0.00    +0.000 A 
ATOM      8  C   UNL     1      -0.575  10.797  22.532  0.00  0.00    +0.000 A 
ATOM      9  C   UNL     1      -0.450  11.111  21.171  0.00  0.00    +0.000 A 
ATOM     10  C   UNL     1       0.255  10.206  20.372  0.00  0.00    +0.000 A 
BRANCH   9  11
ATOM     11  N   UNL     1      -0.977  12.270  20.591  0.00  0.00    +0.000 N 
ATOM     12  C   UNL     1      -0.379  13.490  20.277  0.00  0.00    +0.000 A 
ATOM     13  N   UNL     1       0.955  13.627  20.261  0.00  0.00    +0.000 NA
ATOM     14  C   UNL     1       1.467  14.841  20.008  0.00  0.00    +0.000 A 
ATOM     15  C   UNL     1       0.694  15.944  19.773  0.00  0.00    +0.000 A 
ATOM     16  C   UNL     1      -0.660  15.719  19.792  0.00  0.00    +0.000 A 
ATOM     17  N   UNL     1      -1.217  14.511  20.036  0.00  0.00    +0.000 NA
ATOM     18  H   UNL     1      -1.981  12.386  20.572  0.00  0.00    +0.000 HD
ENDBRANCH   9  11
ENDBRANCH   2   5
BRANCH   1  23
ATOM     19  N   UNL     1       2.256   4.555  19.470  0.00  0.00    +0.000 N 
ATOM     20  N   UNL     1       3.102   3.949  18.609  0.00  0.00    +0.000 NA
ATOM     21  C   UNL     1       4.035   4.875  18.368  0.00  0.00    +0.000 A 
ATOM     22  C   UNL     1       3.758   6.083  19.035  0.00  0.00    +0.000 A 
ATOM     23  C   UNL     1       2.572   5.880  19.702  0.00  0.00    +0.000 A 
BRANCH  21  24
ATOM     24  C   UNL     1       5.220   4.650  17.497  0.00  0.00    +0.000 A 
ATOM     25  C   UNL     1       5.208   4.429  16.135  0.00  0.00    +0.000 A 
ATOM     26  C   UNL     1       6.557   4.260  15.738  0.00  0.00    +0.000 A 
ATOM     27  C   UNL     1       7.310   4.383  16.881  0.00  0.00    +0.000 A 
ATOM     28  O   UNL     1       6.512   4.631  17.949  0.00  0.00    +0.000 OA
ENDBRANCH  21  24
BRANCH  19  30
ATOM     29  C   UNL     1       0.708   2.648  19.160  0.00  0.00    +0.000 C 
ATOM     30  C   UNL     1       1.199   3.759  20.088  0.00  0.00    +0.000 C 
ATOM     31  C   UNL     1       1.653   3.190  21.434  0.00  0.00    +0.000 C 
ENDBRANCH  19  30
ENDBRANCH   1  23
TORSDOF 5
ENDMDL
MODEL 3
REMARK VINA RESULT:      -8.4      1.897      2.440
REMARK  Name = 
REMARK  7 active torsions:
REMARK  status: ('A' for Active; 'I' for Inactive)
REMARK    1  A    between atoms: C_1  and  C_2
REMARK    2  A    between atoms: C_2  and  C_3
REMARK    3  A    between atoms: C_2  and  N_4
REMARK    4  A    between atoms: C_6  and  C_7
REMARK    5  A    between atoms: C_13  and  N_14
REMARK    6  A    between atoms: C_15  and  C_17
REMARK    7  A    between atoms: C_21  and  N_22
REMARK                            x       y       z     vdW  Elec       q    Type
REMARK                         _______ _______ _______ _____ _____    ______ ____
ROOT
ATOM      1  N   UNL     1       4.222   7.508  17.459  0.00  0.00    +0.000 N 
ATOM      2  C   UNL     1       3.129   6.882  18.161  0.00  0.00    +0.000 C 
ATOM      3  O   UNL     1       2.998   5.669  18.186  0.00  0.00    +0.000 OA
ATOM      4  H   UNL     1       4.352   8.504  17.553  0.00  0.00    +0.000 HD
ENDROOT
BRANCH   2   5
ATOM      5  C   UNL     1       2.184   7.759  18.883  0.00  0.00    +0.000 A 
ATOM      6  C   UNL     1       2.027   7.697  20.270  0.00  0.00    +0.000 A 
ATOM      7  C   UNL     1       1.152   8.578  20.890  0.00  0.00    +0.000 A 
ATOM      8  C   UNL     1       0.440   9.508  20.132  0.00  0.00    +0.000 A 
ATOM      9  C   UNL     1       0.562   9.584  18.737  0.00  0.00    +0.000 A 
ATOM     10  C   UNL     1       1.461   8.702  18.128  0.00  0.00    +0.000 A 
BRANCH   9  11
ATOM     11  N   UNL     1      -0.150  10.490  17.943  0.00  0.00    +0.000 N 
ATOM     12  C   UNL     1      -1.496  10.527  17.580  0.00  0.00    +0.000 A 
ATOM     13  N   UNL     1      -2.408   9.771  18.209  0.00  0.00    +0.000 NA
ATOM     14  C   UNL     1      -3.677   9.810  17.773  0.00  0.00    +0.000 A 
ATOM     15  C   UNL     1      -4.080  10.578  16.716  0.00  0.00    +0.000 A 
ATOM     16  C   UNL     1      -3.093  11.333  16.135  0.00  0.00    +0.000 A 
ATOM     17  N   UNL     1      -1.804  11.329  16.547  0.00  0.00    +0.000 NA
ATOM     18  H   UNL     1       0.368  11.109  17.335  0.00  0.00    +0.000 HD
ENDBRANCH   9  11
ENDBRANCH   2   5
BRANCH   1  23
ATOM     19  N   UNL     1       6.445   6.449  17.111  0.00  0.00    +0.000 N 
ATOM     20  N   UNL     1       7.080   5.664  16.215  0.00  0.00    +0.000 NA
ATOM     21  C   UNL     1       6.226   5.589  15.190  0.00  0.00    +0.000 A 
ATOM     22  C   UNL     1       5.032   6.284  15.452  0.00  0.00    +0.000 A 
ATOM     23  C   UNL     1       5.164   6.792  16.723  0.00  0.00    +0.000 A 
BRANCH  21  24
ATOM     24  C   UNL     1       6.510   4.854  13.927  0.00  0.00    +0.000 A 
ATOM     25  C   UNL     1       5.840   3.744  13.454  0.00  0.00    +0.000 A 
ATOM     26  C   UNL     1       6.458   3.386  12.232  0.00  0.00    +0.000 A 
ATOM     27  C   UNL     1       7.471   4.293  12.035  0.00  0.00    +0.000 A 
ATOM     28  O   UNL     1       7.504   5.193  13.050  0.00  0.00    +0.000 OA
ENDBRANCH  21  24
BRANCH  19  30
ATOM     29  C   UNL     1       7.969   5.750  18.933  0.00  0.00    +0.000 C 
ATOM     30  C   UNL     1       7.177   6.891  18.296  0.00  0.00    +0.000 C 
ATOM     31  C   UNL     1       8.088   8.077  17.971  0.00  0.00    +0.000 C 
ENDBRANCH  19  30
ENDBRANCH   1  23
TORSDOF 5
ENDMDL
MODEL 4
REMARK VINA RESULT:      -8.2      0.792      1.113
REMARK  Name = 
REMARK  7 active torsions:
REMARK  status: ('A' for Active; 'I' for Inactive)
REMARK    1  A    between atoms: C_1  and  C_2
REMARK    2  A    between atoms: C_2  and  C_3
REMARK    3  A    between atoms: C_2  and  N_4
REMARK    4  A    between atoms: C_6  and  C_7
REMARK    5  A    between atoms: C_13  and  N_14
REMARK    6  A    between atoms: C_15  and  C_17
REMARK    7  A    between atoms: C_21  and  N_22
REMARK                            x       y       z     vdW  Elec       q    Type
REMARK                         _______ _______ _______ _____ _____    ______ ____
ROOT
ATOM      1  N   UNL     1       4.512   6.916  17.523  0.00  0.00    +0.000 N 
ATOM      2  C   UNL     1       3.323   6.365  18.124  0.00  0.00    +0.000 C 
ATOM      3  O   UNL     1       3.030   5.187  17.997  0.00  0.00    +0.000 OA
ATOM      4  H   UNL     1       4.771   7.866  17.740  0.00  0.00    +0.000 HD
ENDROOT
BRANCH   2   5
ATOM      5  C   UNL     1       2.480   7.269  18.934  0.00  0.00    +0.000 A 
ATOM      6  C   UNL     1       2.094   6.952  20.238  0.00  0.00    +0.000 A 
ATOM      7  C   UNL     1       1.336   7.866  20.959  0.00  0.00    +0.000 A 
ATOM      8  C   UNL     1       0.966   9.080  20.380  0.00  0.00    +0.000 A 
ATOM      9  C   UNL     1       1.323   9.419  19.067  0.00  0.00    +0.000 A 
ATOM     10  C   UNL     1       2.102   8.498  18.360  0.00  0.00    +0.000 A 
BRANCH   9  11
ATOM     11  N   UNL     1       0.953  10.619  18.448  0.00  0.00    +0.000 N 
ATOM     12  C   UNL     1       0.862  11.918  18.948  0.00  0.00    +0.000 A 
ATOM     13  N   UNL     1       1.410  12.249  20.127  0.00  0.00    +0.000 NA
ATOM     14  C   UNL     1       1.237  13.501  20.579  0.00  0.00    +0.000 A 
ATOM     15  C   UNL     1       0.526  14.449  19.899  0.00  0.00    +0.000 A 
ATOM     16  C   UNL     1       0.009  14.037  18.696  0.00  0.00    +0.000 A 
ATOM     17  N   UNL     1       0.165  12.789  18.200  0.00  0.00    +0.000 NA
ATOM     18  H   UNL     1       0.457  10.574  17.568  0.00  0.00    +0.000 HD
ENDBRANCH   9  11
ENDBRANCH   2   5
BRANCH   1  23
ATOM     19  N   UNL     1       6.591   5.627  17.077  0.00  0.00    +0.000 N 
ATOM     20  N   UNL     1       7.143   4.871  16.103  0.00  0.00    +0.000 NA
ATOM     21  C   UNL     1       6.311   5.021  15.068  0.00  0.00    +0.000 A 
ATOM     22  C   UNL     1       5.208   5.830  15.397  0.00  0.00    +0.000 A 
ATOM     23  C   UNL     1       5.373   6.172  16.719  0.00  0.00    +0.000 A 
BRANCH  21  24
ATOM     24  C   UNL     1       6.530   4.402  13.733  0.00  0.00    +0.000 A 
ATOM     25  C   UNL     1       7.475   4.776  12.799  0.00  0.00    +0.000 A 
ATOM     26  C   UNL     1       7.308   3.918  11.685  0.00  0.00    +0.000 A 
ATOM     27  C   UNL     1       6.270   3.075  12.003  0.00  0.00    +0.000 A 
ATOM     28  O   UNL     1       5.799   3.353  13.245  0.00  0.00    +0.000 OA
ENDBRANCH  21  24
BRANCH  19  30
ATOM     29  C   UNL     1       7.916   7.250  18.396  0.00  0.00    +0.000 C 
ATOM     30  C   UNL     1       7.345   5.835  18.311  0.00  0.00    +0.000 C 
ATOM     31  C   UNL     1       6.489   5.513  19.539  0.00  0.00    +0.000 C 
ENDBRANCH  19  30
ENDBRANCH   1  23
TORSDOF 5
ENDMDL
MODEL 5
REMARK VINA RESULT:      -8.1      3.423      4.699
REMARK  Name = 
REMARK  7 active torsions:
REMARK  status: ('A' for Active; 'I' for Inactive)
REMARK    1  A    between atoms: C_1  and  C_2
REMARK    2  A    between atoms: C_2  and  C_3
REMARK    3  A    between atoms: C_2  and  N_4
REMARK    4  A    between atoms: C_6  and  C_7
REMARK    5  A    between atoms: C_13  and  N_14
REMARK    6  A    between atoms: C_15  and  C_17
REMARK    7  A    between atoms: C_21  and  N_22
REMARK                            x       y       z     vdW  Elec       q    Type
REMARK                         _______ _______ _______ _____ _____    ______ ____
ROOT
ATOM      1  N   UNL     1       1.766   6.811  20.574  0.00  0.00    +0.000 N 
ATOM      2  C   UNL     1       1.427   8.155  20.175  0.00  0.00    +0.000 C 
ATOM      3  O   UNL     1       1.701   8.580  19.064  0.00  0.00    +0.000 OA
ATOM      4  H   UNL     1       1.427   6.467  21.460  0.00  0.00    +0.000 HD
ENDROOT
BRANCH   2   5
ATOM      5  C   UNL     1       0.699   8.997  21.147  0.00  0.00    +0.000 A 
ATOM      6  C   UNL     1       0.727   8.738  22.519  0.00  0.00    +0.000 A 
ATOM      7  C   UNL     1       0.055   9.595  23.381  0.00  0.00    +0.000 A 
ATOM      8  C   UNL     1      -0.638  10.694  22.876  0.00  0.00    +0.000 A 
ATOM      9  C   UNL     1      -0.700  10.971  21.503  0.00  0.00    +0.000 A 
ATOM     10  C   UNL     1      -0.003  10.111  20.649  0.00  0.00    +0.000 A 
BRANCH   9  11
ATOM     11  N   UNL     1      -1.402  12.053  20.960  0.00  0.00    +0.000 N 
ATOM     12  C   UNL     1      -2.618  12.631  21.323  0.00  0.00    +0.000 A 
ATOM     13  N   UNL     1      -3.196  12.353  22.501  0.00  0.00    +0.000 NA
ATOM     14  C   UNL     1      -4.395  12.896  22.765  0.00  0.00    +0.000 A 
ATOM     15  C   UNL     1      -5.055  13.712  21.889  0.00  0.00    +0.000 A 
ATOM     16  C   UNL     1      -4.392  13.959  20.713  0.00  0.00    +0.000 A 
ATOM     17  N   UNL     1      -3.181  13.439  20.409  0.00  0.00    +0.000 NA
ATOM     18  H   UNL     1      -1.155  12.371  20.032  0.00  0.00    +0.000 HD
ENDBRANCH   9  11
ENDBRANCH   2   5
BRANCH   1  23
ATOM     19  N   UNL     1       2.164   4.608  19.490  0.00  0.00    +0.000 N 
ATOM     20  N   UNL     1       2.984   4.046  18.576  0.00  0.00    +0.000 NA
ATOM     21  C   UNL     1       3.893   4.995  18.331  0.00  0.00    +0.000 A 
ATOM     22  C   UNL     1       3.625   6.174  19.050  0.00  0.00    +0.000 A 
ATOM     23  C   UNL     1       2.471   5.929  19.756  0.00  0.00    +0.000 A 
BRANCH  21  24
ATOM     24  C   UNL     1       5.045   4.819  17.406  0.00  0.00    +0.000 A 
ATOM     25  C   UNL     1       5.053   4.092  16.233  0.00  0.00    +0.000 A 
ATOM     26  C   UNL     1       6.359   4.200  15.696  0.00  0.00    +0.000 A 
ATOM     27  C   UNL     1       7.071   4.981  16.575  0.00  0.00    +0.000 A 
ATOM     28  O   UNL     1       6.282   5.370  17.607  0.00  0.00    +0.000 OA
ENDBRANCH  21  24
BRANCH  19  30
ATOM     29  C   UNL     1       0.637   2.685  19.177  0.00  0.00    +0.000 C 
ATOM     30  C   UNL     1       1.144   3.774  20.121  0.00  0.00    +0.000 C 
ATOM     31  C   UNL     1       1.659   3.172  21.430  0.00  0.00    +0.000 C 
ENDBRANCH  19  30
ENDBRANCH   1  23
TORSDOF 5
ENDMDL
MODEL 6
REMARK VINA RESULT:      -8.1      2.724      9.502
REMARK  Name = 
REMARK  7 active torsions:
REMARK  status: ('A' for Active; 'I' for Inactive)
REMARK    1  A    between atoms: C_1  and  C_2
REMARK    2  A    between atoms: C_2  and  C_3
REMARK    3  A    between atoms: C_2  and  N_4
REMARK    4  A    between atoms: C_6  and  C_7
REMARK    5  A    between atoms: C_13  and  N_14
REMARK    6  A    between atoms: C_15  and  C_17
REMARK    7  A    between atoms: C_21  and  N_22
REMARK                            x       y       z     vdW  Elec       q    Type
REMARK                         _______ _______ _______ _____ _____    ______ ____
ROOT
ATOM      1  N   UNL     1       1.042   9.818  19.434  0.00  0.00    +0.000 N 
ATOM      2  C   UNL     1       1.751   8.971  18.508  0.00  0.00    +0.000 C 
ATOM      3  O   UNL     1       2.088   9.372  17.405  0.00  0.00    +0.000 OA
ATOM      4  H   UNL     1       0.877   9.483  20.371  0.00  0.00    +0.000 HD
ENDROOT
BRANCH   2   5
ATOM      5  C   UNL     1       2.092   7.603  18.950  0.00  0.00    +0.000 A 
ATOM      6  C   UNL     1       1.819   7.153  20.244  0.00  0.00    +0.000 A 
ATOM      7  C   UNL     1       2.128   5.841  20.581  0.00  0.00    +0.000 A 
ATOM      8  C   UNL     1       2.705   4.993  19.636  0.00  0.00    +0.000 A 
ATOM      9  C   UNL     1       3.008   5.420  18.336  0.00  0.00    +0.000 A 
ATOM     10  C   UNL     1       2.674   6.737  18.005  0.00  0.00    +0.000 A 
BRANCH   9  11
ATOM     11  N   UNL     1       3.605   4.603  17.370  0.00  0.00    +0.000 N 
ATOM     12  C   UNL     1       4.844   4.690  16.735  0.00  0.00    +0.000 A 
ATOM     13  N   UNL     1       5.807   5.499  17.199  0.00  0.00    +0.000 NA
ATOM     14  C   UNL     1       6.956   5.581  16.510  0.00  0.00    +0.000 A 
ATOM     15  C   UNL     1       7.186   4.883  15.357  0.00  0.00    +0.000 A 
ATOM     16  C   UNL     1       6.159   4.067  14.956  0.00  0.00    +0.000 A 
ATOM     17  N   UNL     1       4.989   3.950  15.624  0.00  0.00    +0.000 NA
ATOM     18  H   UNL     1       3.019   3.963  16.851  0.00  0.00    +0.000 HD
ENDBRANCH   9  11
ENDBRANCH   2   5
BRANCH   1  23
ATOM     19  N   UNL     1      -0.624  11.546  18.783  0.00  0.00    +0.000 N 
ATOM     20  N   UNL     1      -0.713  12.886  18.642  0.00  0.00    +0.000 NA
ATOM     21  C   UNL     1       0.545  13.311  18.796  0.00  0.00    +0.000 A 
ATOM     22  C   UNL     1       1.423  12.250  19.083  0.00  0.00    +0.000 A 
ATOM     23  C   UNL     1       0.644  11.118  19.126  0.00  0.00    +0.000 A 
BRANCH  21  24
ATOM     24  C   UNL     1       0.959  14.736  18.679  0.00  0.00    +0.000 A 
ATOM     25  C   UNL     1       2.249  15.208  18.547  0.00  0.00    +0.000 A 
ATOM     26  C   UNL     1       2.161  16.619  18.482  0.00  0.00    +0.000 A 
ATOM     27  C   UNL     1       0.824  16.925  18.584  0.00  0.00    +0.000 A 
ATOM     28  O   UNL     1       0.088  15.791  18.693  0.00  0.00    +0.000 OA
ENDBRANCH  21  24
BRANCH  19  30
ATOM     29  C   UNL     1      -3.083  11.569  18.498  0.00  0.00    +0.000 C 
ATOM     30  C   UNL     1      -1.804  10.734  18.496  0.00  0.00    +0.000 C 
ATOM     31  C   UNL     1      -1.643   9.977  17.176  0.00  0.00    +0.000 C 
ENDBRANCH  19  30
ENDBRANCH   1  23
TORSDOF 5
ENDMDL
MODEL 7
REMARK VINA RESULT:      -8.1      2.651      4.121
REMARK  Name = 
REMARK  7 active torsions:
REMARK  status: ('A' for Active; 'I' for Inactive)
REMARK    1  A    between atoms: C_1  and  C_2
REMARK    2  A    between atoms: C_2  and  C_3
REMARK    3  A    between atoms: C_2  and  N_4
REMARK    4  A    between atoms: C_6  and  C_7
REMARK    5  A    between atoms: C_13  and  N_14
REMARK    6  A    between atoms: C_15  and  C_17
REMARK    7  A    between atoms: C_21  and  N_22
REMARK                            x       y       z     vdW  Elec       q    Type
REMARK                         _______ _______ _______ _____ _____    ______ ____
ROOT
ATOM      1  N   UNL     1       1.855   7.004  20.476  0.00  0.00    +0.000 N 
ATOM      2  C   UNL     1       1.451   8.305  20.005  0.00  0.00    +0.000 C 
ATOM      3  O   UNL     1       1.657   8.661  18.855  0.00  0.00    +0.000 OA
ATOM      4  H   UNL     1       1.571   6.711  21.399  0.00  0.00    +0.000 HD
ENDROOT
BRANCH   2   5
ATOM      5  C   UNL     1       0.743   9.190  20.953  0.00  0.00    +0.000 A 
ATOM      6  C   UNL     1       0.290   8.735  22.194  0.00  0.00    +0.000 A 
ATOM      7  C   UNL     1      -0.332   9.631  23.054  0.00  0.00    +0.000 A 
ATOM      8  C   UNL     1      -0.500  10.963  22.676  0.00  0.00    +0.000 A 
ATOM      9  C   UNL     1      -0.072  11.445  21.432  0.00  0.00    +0.000 A 
ATOM     10  C   UNL     1       0.568  10.537  20.583  0.00  0.00    +0.000 A 
BRANCH   9  11
ATOM     11  N   UNL     1      -0.242  12.769  21.012  0.00  0.00    +0.000 N 
ATOM     12  C   UNL     1       0.572  13.891  21.169  0.00  0.00    +0.000 A 
ATOM     13  N   UNL     1       1.850  13.774  21.557  0.00  0.00    +0.000 NA
ATOM     14  C   UNL     1       2.563  14.896  21.745  0.00  0.00    +0.000 A 
ATOM     15  C   UNL     1       2.046  16.149  21.566  0.00  0.00    +0.000 A 
ATOM     16  C   UNL     1       0.737  16.184  21.155  0.00  0.00    +0.000 A 
ATOM     17  N   UNL     1      -0.015  15.079  20.947  0.00  0.00    +0.000 NA
ATOM     18  H   UNL     1      -1.167  13.075  20.742  0.00  0.00    +0.000 HD
ENDBRANCH   9  11
ENDBRANCH   2   5
BRANCH   1  23
ATOM     19  N   UNL     1       2.308   4.734  19.564  0.00  0.00    +0.000 N 
ATOM     20  N   UNL     1       3.089   4.135  18.640  0.00  0.00    +0.000 NA
ATOM     21  C   UNL     1       3.914   5.106  18.237  0.00  0.00    +0.000 A 
ATOM     22  C   UNL     1       3.628   6.331  18.867  0.00  0.00    +0.000 A 
ATOM     23  C   UNL     1       2.549   6.090  19.685  0.00  0.00    +0.000 A 
BRANCH  21  24
ATOM     24  C   UNL     1       5.001   4.909  17.239  0.00  0.00    +0.000 A 
ATOM     25  C   UNL     1       6.021   5.793  16.950  0.00  0.00    +0.000 A 
ATOM     26  C   UNL     1       6.806   5.191  15.937  0.00  0.00    +0.000 A 
ATOM     27  C   UNL     1       6.216   3.979  15.665  0.00  0.00    +0.000 A 
ATOM     28  O   UNL     1       5.130   3.795  16.455  0.00  0.00    +0.000 OA
ENDBRANCH  21  24
BRANCH  19  30
ATOM     29  C   UNL     1       0.770   2.795  19.509  0.00  0.00    +0.000 C 
ATOM     30  C   UNL     1       1.395   3.907  20.349  0.00  0.00    +0.000 C 
ATOM     31  C   UNL     1       2.094   3.335  21.585  0.00  0.00    +0.000 C 
ENDBRANCH  19  30
ENDBRANCH   1  23
TORSDOF 5
ENDMDL
MODEL 8
REMARK VINA RESULT:      -8.1      1.005      1.253
REMARK  Name = 
REMARK  7 active torsions:
REMARK  status: ('A' for Active; 'I' for Inactive)
REMARK    1  A    between atoms: C_1  and  C_2
REMARK    2  A    between atoms: C_2  and  C_3
REMARK    3  A    between atoms: C_2  and  N_4
REMARK    4  A    between atoms: C_6  and  C_7
REMARK    5  A    between atoms: C_13  and  N_14
REMARK    6  A    between atoms: C_15  and  C_17
REMARK    7  A    between atoms: C_21  and  N_22
REMARK                            x       y       z     vdW  Elec       q    Type
REMARK                         _______ _______ _______ _____ _____    ______ ____
ROOT
ATOM      1  N   UNL     1       4.313   6.768  17.756  0.00  0.00    +0.000 N 
ATOM      2  C   UNL     1       2.945   6.468  18.100  0.00  0.00    +0.000 C 
ATOM      3  O   UNL     1       2.405   5.437  17.733  0.00  0.00    +0.000 OA
ATOM      4  H   UNL     1       4.751   7.578  18.168  0.00  0.00    +0.000 HD
ENDROOT
BRANCH   2   5
ATOM      5  C   UNL     1       2.221   7.439  18.948  0.00  0.00    +0.000 A 
ATOM      6  C   UNL     1       1.939   7.183  20.292  0.00  0.00    +0.000 A 
ATOM      7  C   UNL     1       1.291   8.156  21.042  0.00  0.00    +0.000 A 
ATOM      8  C   UNL     1       0.929   9.368  20.453  0.00  0.00    +0.000 A 
ATOM      9  C   UNL     1       1.182   9.647  19.103  0.00  0.00    +0.000 A 
ATOM     10  C   UNL     1       1.851   8.666  18.365  0.00  0.00    +0.000 A 
BRANCH   9  11
ATOM     11  N   UNL     1       0.815  10.843  18.476  0.00  0.00    +0.000 N 
ATOM     12  C   UNL     1       0.953  12.170  18.882  0.00  0.00    +0.000 A 
ATOM     13  N   UNL     1       1.754  12.505  19.904  0.00  0.00    +0.000 NA
ATOM     14  C   UNL     1       1.798  13.792  20.282  0.00  0.00    +0.000 A 
ATOM     15  C   UNL     1       1.060  14.773  19.680  0.00  0.00    +0.000 A 
ATOM     16  C   UNL     1       0.278  14.353  18.634  0.00  0.00    +0.000 A 
ATOM     17  N   UNL     1       0.209  13.069  18.216  0.00  0.00    +0.000 NA
ATOM     18  H   UNL     1       0.152  10.803  17.714  0.00  0.00    +0.000 HD
ENDBRANCH   9  11
ENDBRANCH   2   5
BRANCH   1  23
ATOM     19  N   UNL     1       5.848   4.857  17.338  0.00  0.00    +0.000 N 
ATOM     20  N   UNL     1       6.411   4.199  16.301  0.00  0.00    +0.000 NA
ATOM     21  C   UNL     1       6.092   4.940  15.237  0.00  0.00    +0.000 A 
ATOM     22  C   UNL     1       5.288   6.040  15.587  0.00  0.00    +0.000 A 
ATOM     23  C   UNL     1       5.091   5.944  16.945  0.00  0.00    +0.000 A 
BRANCH  21  24
ATOM     24  C   UNL     1       6.535   4.632  13.850  0.00  0.00    +0.000 A 
ATOM     25  C   UNL     1       6.087   3.596  13.056  0.00  0.00    +0.000 A 
ATOM     26  C   UNL     1       6.790   3.690  11.830  0.00  0.00    +0.000 A 
ATOM     27  C   UNL     1       7.628   4.773  11.951  0.00  0.00    +0.000 A 
ATOM     28  O   UNL     1       7.473   5.357  13.165  0.00  0.00    +0.000 OA
ENDBRANCH  21  24
BRANCH  19  30
ATOM     29  C   UNL     1       6.749   5.535  19.541  0.00  0.00    +0.000 C 
ATOM     30  C   UNL     1       6.151   4.412  18.696  0.00  0.00    +0.000 C 
ATOM     31  C   UNL     1       4.913   3.817  19.369  0.00  0.00    +0.000 C 
ENDBRANCH  19  30
ENDBRANCH   1  23
TORSDOF 5
ENDMDL
MODEL 9
REMARK VINA RESULT:      -8.0      2.323      3.505
REMARK  Name = 
REMARK  7 active torsions:
REMARK  status: ('A' for Active; 'I' for Inactive)
REMARK    1  A    between atoms: C_1  and  C_2
REMARK    2  A    between atoms: C_2  and  C_3
REMARK    3  A    between atoms: C_2  and  N_4
REMARK    4  A    between atoms: C_6  and  C_7
REMARK    5  A    between atoms: C_13  and  N_14
REMARK    6  A    between atoms: C_15  and  C_17
REMARK    7  A    between atoms: C_21  and  N_22
REMARK                            x       y       z     vdW  Elec       q    Type
REMARK                         _______ _______ _______ _____ _____    ______ ____
ROOT
ATOM      1  N   UNL     1       2.368   6.925  20.147  0.00  0.00    +0.000 N 
ATOM      2  C   UNL     1       1.783   8.106  19.563  0.00  0.00    +0.000 C 
ATOM      3  O   UNL     1       1.851   8.326  18.364  0.00  0.00    +0.000 OA
ATOM      4  H   UNL     1       2.197   6.730  21.123  0.00  0.00    +0.000 HD
ENDROOT
BRANCH   2   5
ATOM      5  C   UNL     1       1.063   9.034  20.460  0.00  0.00    +0.000 A 
ATOM      6  C   UNL     1       0.900   8.769  21.822  0.00  0.00    +0.000 A 
ATOM      7  C   UNL     1       0.249   9.703  22.617  0.00  0.00    +0.000 A 
ATOM      8  C   UNL     1      -0.235  10.885  22.055  0.00  0.00    +0.000 A 
ATOM      9  C   UNL     1      -0.102  11.171  20.689  0.00  0.00    +0.000 A 
ATOM     10  C   UNL     1       0.572  10.230  19.905  0.00  0.00    +0.000 A 
BRANCH   9  11
ATOM     11  N   UNL     1      -0.592  12.337  20.089  0.00  0.00    +0.000 N 
ATOM     12  C   UNL     1       0.068  13.474  19.624  0.00  0.00    +0.000 A 
ATOM     13  N   UNL     1       1.398  13.484  19.450  0.00  0.00    +0.000 NA
ATOM     14  C   UNL     1       1.979  14.628  19.055  0.00  0.00    +0.000 A 
ATOM     15  C   UNL     1       1.281  15.781  18.829  0.00  0.00    +0.000 A 
ATOM     16  C   UNL     1      -0.076  15.686  19.014  0.00  0.00    +0.000 A 
ATOM     17  N   UNL     1      -0.702  14.552  19.404  0.00  0.00    +0.000 NA
ATOM     18  H   UNL     1      -1.577  12.545  20.173  0.00  0.00    +0.000 HD
ENDBRANCH   9  11
ENDBRANCH   2   5
BRANCH   1  23
ATOM     19  N   UNL     1       3.082   4.615  19.565  0.00  0.00    +0.000 N 
ATOM     20  N   UNL     1       3.812   3.971  18.629  0.00  0.00    +0.000 NA
ATOM     21  C   UNL     1       4.380   4.956  17.928  0.00  0.00    +0.000 A 
ATOM     22  C   UNL     1       3.975   6.224  18.384  0.00  0.00    +0.000 A 
ATOM     23  C   UNL     1       3.090   5.988  19.411  0.00  0.00    +0.000 A 
BRANCH  21  24
ATOM     24  C   UNL     1       5.324   4.732  16.799  0.00  0.00    +0.000 A 
ATOM     25  C   UNL     1       6.635   5.160  16.728  0.00  0.00    +0.000 A 
ATOM     26  C   UNL     1       7.135   4.729  15.476  0.00  0.00    +0.000 A 
ATOM     27  C   UNL     1       6.101   4.070  14.856  0.00  0.00    +0.000 A 
ATOM     28  O   UNL     1       5.004   4.057  15.653  0.00  0.00    +0.000 OA
ENDBRANCH  21  24
BRANCH  19  30
ATOM     29  C   UNL     1       0.978   3.576  20.354  0.00  0.00    +0.000 C 
ATOM     30  C   UNL     1       2.459   3.831  20.628  0.00  0.00    +0.000 C 
ATOM     31  C   UNL     1       3.210   2.516  20.854  0.00  0.00    +0.000 C 
ENDBRANCH  19  30
ENDBRANCH   1  23
TORSDOF 5
ENDMDL
