MODEL 1
REMARK VINA RESULT:      -8.4      0.000      0.000
REMARK  Name = 
REMARK  6 active torsions:
REMARK  status: ('A' for Active; 'I' for Inactive)
REMARK    1  A    between atoms: C_1  and  C_2
REMARK    2  A    between atoms: C_2  and  N_3
REMARK    3  A    between atoms: C_2  and  C_13
REMARK    4  A    between atoms: N_3  and  S_4
REMARK    5  A    between atoms: S_4  and  C_7
REMARK    6  A    between atoms: N_15  and  C_16
REMARK                            x       y       z     vdW  Elec       q    Type
REMARK                         _______ _______ _______ _____ _____    ______ ____
ROOT
ATOM      1  C   UNL     1       5.152   3.586  18.816  0.00  0.00    +0.000 C 
ATOM      2  O   UNL     1       6.067   4.275  19.261  0.00  0.00    +0.000 OA
ATOM      3  N   UNL     1       4.961   3.372  17.460  0.00  0.00    +0.000 N 
ATOM      4  H   UNL     1       4.109   2.924  17.148  0.00  0.00    +0.000 HD
ENDROOT
BRANCH   3   5
ATOM      5  C   UNL     1       5.803   3.882  16.436  0.00  0.00    +0.000 A 
ATOM      6  C   UNL     1       6.690   4.942  16.591  0.00  0.00    +0.000 A 
ATOM      7  N   UNL     1       7.406   5.502  15.583  0.00  0.00    +0.000 NA
ATOM      8  C   UNL     1       7.235   5.020  14.351  0.00  0.00    +0.000 A 
ATOM      9  C   UNL     1       7.863   5.652  13.288  0.00  0.00    +0.000 A 
ATOM     10  C   UNL     1       7.678   5.227  11.970  0.00  0.00    +0.000 A 
ATOM     11  C   UNL     1       6.874   4.123  11.710  0.00  0.00    +0.000 A 
ATOM     12  C   UNL     1       6.253   3.455  12.764  0.00  0.00    +0.000 A 
ATOM     13  C   UNL     1       6.407   3.910  14.085  0.00  0.00    +0.000 A 
ATOM     14  C   UNL     1       5.720   3.321  15.163  0.00  0.00    +0.000 A 
ENDBRANCH   3   5
BRANCH   1  16
ATOM     15  C   UNL     1       4.679   1.898  20.721  0.00  0.00    +0.000 C 
ATOM     16  C   UNL     1       4.127   2.979  19.793  0.00  0.00    +0.000 C 
BRANCH  16  17
ATOM     17  N   UNL     1       2.915   2.417  19.149  0.00  0.00    +0.000 NA
ATOM     18  H   UNL     1       3.004   2.258  18.147  0.00  0.00    +0.000 HD
BRANCH  17  19
ATOM     19  S   UNL     1       1.399   3.100  19.516  0.00  0.00    +0.000 S 
ATOM     20  O   UNL     1       0.537   2.779  18.398  0.00  0.00    +0.000 OA
ATOM     21  O   UNL     1       1.037   2.755  20.870  0.00  0.00    +0.000 OA
BRANCH  19  22
ATOM     22  C   UNL     1       1.732   4.841  19.384  0.00  0.00    +0.000 A 
ATOM     23  C   UNL     1       2.057   5.363  18.125  0.00  0.00    +0.000 A 
ATOM     24  C   UNL     1       2.379   6.714  17.999  0.00  0.00    +0.000 A 
ATOM     25  C   UNL     1       2.361   7.538  19.124  0.00  0.00    +0.000 A 
ATOM     26  C   UNL     1       1.996   7.023  20.370  0.00  0.00    +0.000 A 
ATOM     27  C   UNL     1       1.667   5.673  20.501  0.00  0.00    +0.000 A 
ENDBRANCH  19  22
ENDBRANCH  17  19
ENDBRANCH  16  17
ENDBRANCH   1  16
TORSDOF 5
ENDMDL
MODEL 2
REMARK VINA RESULT:      -8.3      3.138      6.955
REMARK  Name = 
REMARK  6 active torsions:
REMARK  status: ('A' for Active; 'I' for Inactive)
REMARK    1  A    between atoms: C_1  and  C_2
REMARK    2  A    between atoms: C_2  and  N_3
REMARK    3  A    between atoms: C_2  and  C_13
REMARK    4  A    between atoms: N_3  and  S_4
REMARK    5  A    between atoms: S_4  and  C_7
REMARK    6  A    between atoms: N_15  and  C_16
REMARK                            x       y       z     vdW  Elec       q    Type
REMARK                         _______ _______ _______ _____ _____    ______ ____
ROOT
ATOM      1  C   UNL     1       2.673   4.346  17.982  0.00  0.00    +0.000 C 
ATOM      2  O   UNL     1       1.449   4.279  17.887  0.00  0.00    +0.000 OA
ATOM      3  N   UNL     1       3.324   5.421  18.568  0.00  0.00    +0.000 N 
ATOM      4  H   UNL     1       4.330   5.492  18.484  0.00  0.00    +0.000 HD
ENDROOT
BRANCH   3   5
ATOM      5  C   UNL     1       2.672   6.540  19.152  0.00  0.00    +0.000 A 
ATOM      6  C   UNL     1       2.110   6.555  20.425  0.00  0.00    +0.000 A 
ATOM      7  N   UNL     1       1.386   7.584  20.936  0.00  0.00    +0.000 NA
ATOM      8  C   UNL     1       1.178   8.649  20.158  0.00  0.00    +0.000 A 
ATOM      9  C   UNL     1       0.344   9.660  20.613  0.00  0.00    +0.000 A 
ATOM     10  C   UNL     1       0.045  10.772  19.822  0.00  0.00    +0.000 A 
ATOM     11  C   UNL     1       0.620  10.896  18.562  0.00  0.00    +0.000 A 
ATOM     12  C   UNL     1       1.483   9.906  18.095  0.00  0.00    +0.000 A 
ATOM     13  C   UNL     1       1.749   8.767  18.875  0.00  0.00    +0.000 A 
ATOM     14  C   UNL     1       2.537   7.703  18.398  0.00  0.00    +0.000 A 
ENDBRANCH   3   5
BRANCH   1  16
ATOM     15  C   UNL     1       3.293   1.833  17.953  0.00  0.00    +0.000 C 
ATOM     16  C   UNL     1       3.536   3.226  17.374  0.00  0.00    +0.000 C 
BRANCH  16  17
ATOM     17  N   UNL     1       4.999   3.468  17.433  0.00  0.00    +0.000 NA
ATOM     18  H   UNL     1       5.352   3.692  18.362  0.00  0.00    +0.000 HD
BRANCH  17  19
ATOM     19  S   UNL     1       5.713   4.474  16.260  0.00  0.00    +0.000 S 
ATOM     20  O   UNL     1       6.663   3.645  15.551  0.00  0.00    +0.000 OA
ATOM     21  O   UNL     1       4.678   5.200  15.563  0.00  0.00    +0.000 OA
BRANCH  19  22
ATOM     22  C   UNL     1       6.686   5.578  17.257  0.00  0.00    +0.000 A 
ATOM     23  C   UNL     1       6.850   6.899  16.822  0.00  0.00    +0.000 A 
ATOM     24  C   UNL     1       7.655   7.772  17.553  0.00  0.00    +0.000 A 
ATOM     25  C   UNL     1       8.278   7.329  18.719  0.00  0.00    +0.000 A 
ATOM     26  C   UNL     1       8.078   6.023  19.173  0.00  0.00    +0.000 A 
ATOM     27  C   UNL     1       7.269   5.146  18.448  0.00  0.00    +0.000 A 
ENDBRANCH  19  22
ENDBRANCH  17  19
ENDBRANCH  16  17
ENDBRANCH   1  16
TORSDOF 5
ENDMDL
MODEL 3
REMARK VINA RESULT:      -8.3      3.595      8.000
REMARK  Name = 
REMARK  6 active torsions:
REMARK  status: ('A' for Active; 'I' for Inactive)
REMARK    1  A    between atoms: C_1  and  C_2
REMARK    2  A    between atoms: C_2  and  N_3
REMARK    3  A    between atoms: C_2  and  C_13
REMARK    4  A    between atoms: N_3  and  S_4
REMARK    5  A    between atoms: S_4  and  C_7
REMARK    6  A    between atoms: N_15  and  C_16
REMARK                            x       y       z     vdW  Elec       q    Type
REMARK                         _______ _______ _______ _____ _____    ______ ____
ROOT
ATOM      1  C   UNL     1       3.202   7.496  17.910  0.00  0.00    +0.000 C 
ATOM      2  O   UNL     1       3.012   8.392  17.089  0.00  0.00    +0.000 OA
ATOM      3  N   UNL     1       2.569   7.460  19.143  0.00  0.00    +0.000 N 
ATOM      4  H   UNL     1       2.875   6.786  19.833  0.00  0.00    +0.000 HD
ENDROOT
BRANCH   3   5
ATOM      5  C   UNL     1       1.615   8.413  19.590  0.00  0.00    +0.000 A 
ATOM      6  C   UNL     1       1.185   9.512  18.852  0.00  0.00    +0.000 A 
ATOM      7  N   UNL     1       0.364  10.484  19.325  0.00  0.00    +0.000 NA
ATOM      8  C   UNL     1      -0.046  10.395  20.593  0.00  0.00    +0.000 A 
ATOM      9  C   UNL     1      -0.787  11.436  21.134  0.00  0.00    +0.000 A 
ATOM     10  C   UNL     1      -1.196  11.425  22.469  0.00  0.00    +0.000 A 
ATOM     11  C   UNL     1      -0.889  10.334  23.275  0.00  0.00    +0.000 A 
ATOM     12  C   UNL     1      -0.168   9.265  22.745  0.00  0.00    +0.000 A 
ATOM     13  C   UNL     1       0.279   9.296  21.413  0.00  0.00    +0.000 A 
ATOM     14  C   UNL     1       1.089   8.281  20.874  0.00  0.00    +0.000 A 
ENDBRANCH   3   5
BRANCH   1  16
ATOM     15  C   UNL     1       5.139   6.679  16.400  0.00  0.00    +0.000 C 
ATOM     16  C   UNL     1       4.230   6.394  17.595  0.00  0.00    +0.000 C 
BRANCH  16  17
ATOM     17  N   UNL     1       3.649   5.046  17.384  0.00  0.00    +0.000 NA
ATOM     18  H   UNL     1       2.632   5.013  17.429  0.00  0.00    +0.000 HD
BRANCH  17  19
ATOM     19  S   UNL     1       4.330   3.720  18.206  0.00  0.00    +0.000 S 
ATOM     20  O   UNL     1       4.234   2.598  17.297  0.00  0.00    +0.000 OA
ATOM     21  O   UNL     1       5.592   4.116  18.784  0.00  0.00    +0.000 OA
BRANCH  19  22
ATOM     22  C   UNL     1       3.129   3.414  19.479  0.00  0.00    +0.000 A 
ATOM     23  C   UNL     1       1.844   3.949  19.326  0.00  0.00    +0.000 A 
ATOM     24  C   UNL     1       0.897   3.775  20.334  0.00  0.00    +0.000 A 
ATOM     25  C   UNL     1       1.232   3.056  21.482  0.00  0.00    +0.000 A 
ATOM     26  C   UNL     1       2.501   2.487  21.613  0.00  0.00    +0.000 A 
ATOM     27  C   UNL     1       3.451   2.654  20.604  0.00  0.00    +0.000 A 
ENDBRANCH  19  22
ENDBRANCH  17  19
ENDBRANCH  16  17
ENDBRANCH   1  16
TORSDOF 5
ENDMDL
MODEL 4
REMARK VINA RESULT:      -8.3      1.899      3.375
REMARK  Name = 
REMARK  6 active torsions:
REMARK  status: ('A' for Active; 'I' for Inactive)
REMARK    1  A    between atoms: C_1  and  C_2
REMARK    2  A    between atoms: C_2  and  N_3
REMARK    3  A    between atoms: C_2  and  C_13
REMARK    4  A    between atoms: N_3  and  S_4
REMARK    5  A    between atoms: S_4  and  C_7
REMARK    6  A    between atoms: N_15  and  C_16
REMARK                            x       y       z     vdW  Elec       q    Type
REMARK                         _______ _______ _______ _____ _____    ______ ____
ROOT
ATOM      1  C   UNL     1       3.188   6.471  18.477  0.00  0.00    +0.000 C 
ATOM      2  O   UNL     1       2.904   7.160  17.499  0.00  0.00    +0.000 OA
ATOM      3  N   UNL     1       4.280   5.618  18.506  0.00  0.00    +0.000 N 
ATOM      4  H   UNL     1       4.376   4.968  19.275  0.00  0.00    +0.000 HD
ENDROOT
BRANCH   3   5
ATOM      5  C   UNL     1       5.210   5.461  17.444  0.00  0.00    +0.000 A 
ATOM      6  C   UNL     1       6.412   6.153  17.334  0.00  0.00    +0.000 A 
ATOM      7  N   UNL     1       7.243   6.089  16.262  0.00  0.00    +0.000 NA
ATOM      8  C   UNL     1       6.876   5.326  15.230  0.00  0.00    +0.000 A 
ATOM      9  C   UNL     1       7.648   5.338  14.077  0.00  0.00    +0.000 A 
ATOM     10  C   UNL     1       7.284   4.604  12.946  0.00  0.00    +0.000 A 
ATOM     11  C   UNL     1       6.141   3.812  12.977  0.00  0.00    +0.000 A 
ATOM     12  C   UNL     1       5.364   3.764  14.134  0.00  0.00    +0.000 A 
ATOM     13  C   UNL     1       5.709   4.536  15.257  0.00  0.00    +0.000 A 
ATOM     14  C   UNL     1       4.898   4.587  16.405  0.00  0.00    +0.000 A 
ENDBRANCH   3   5
BRANCH   1  16
ATOM     15  C   UNL     1       2.075   7.877  20.345  0.00  0.00    +0.000 C 
ATOM     16  C   UNL     1       2.264   6.500  19.709  0.00  0.00    +0.000 C 
BRANCH  16  17
ATOM     17  N   UNL     1       2.653   5.571  20.798  0.00  0.00    +0.000 NA
ATOM     18  H   UNL     1       3.656   5.416  20.882  0.00  0.00    +0.000 HD
BRANCH  17  19
ATOM     19  S   UNL     1       1.802   4.106  20.971  0.00  0.00    +0.000 S 
ATOM     20  O   UNL     1       2.149   3.598  22.280  0.00  0.00    +0.000 OA
ATOM     21  O   UNL     1       0.427   4.306  20.580  0.00  0.00    +0.000 OA
BRANCH  19  22
ATOM     22  C   UNL     1       2.634   3.052  19.807  0.00  0.00    +0.000 A 
ATOM     23  C   UNL     1       2.056   2.867  18.544  0.00  0.00    +0.000 A 
ATOM     24  C   UNL     1       2.655   2.001  17.630  0.00  0.00    +0.000 A 
ATOM     25  C   UNL     1       3.832   1.337  17.974  0.00  0.00    +0.000 A 
ATOM     26  C   UNL     1       4.428   1.556  19.218  0.00  0.00    +0.000 A 
ATOM     27  C   UNL     1       3.836   2.426  20.135  0.00  0.00    +0.000 A 
ENDBRANCH  19  22
ENDBRANCH  17  19
ENDBRANCH  16  17
ENDBRANCH   1  16
TORSDOF 5
ENDMDL
MODEL 5
REMARK VINA RESULT:      -8.3      0.627      1.207
REMARK  Name = 
REMARK  6 active torsions:
REMARK  status: ('A' for Active; 'I' for Inactive)
REMARK    1  A    between atoms: C_1  and  C_2
REMARK    2  A    between atoms: C_2  and  N_3
REMARK    3  A    between atoms: C_2  and  C_13
REMARK    4  A    between atoms: N_3  and  S_4
REMARK    5  A    between atoms: S_4  and  C_7
REMARK    6  A    between atoms: N_15  and  C_16
REMARK                            x       y       z     vdW  Elec       q    Type
REMARK                         _______ _______ _______ _____ _____    ______ ____
ROOT
ATOM      1  C   UNL     1       5.002   3.593  18.783  0.00  0.00    +0.000 C 
ATOM      2  O   UNL     1       5.822   4.385  19.245  0.00  0.00    +0.000 OA
ATOM      3  N   UNL     1       4.931   3.285  17.434  0.00  0.00    +0.000 N 
ATOM      4  H   UNL     1       4.146   2.746  17.093  0.00  0.00    +0.000 HD
ENDROOT
BRANCH   3   5
ATOM      5  C   UNL     1       5.801   3.807  16.439  0.00  0.00    +0.000 A 
ATOM      6  C   UNL     1       6.735   4.816  16.651  0.00  0.00    +0.000 A 
ATOM      7  N   UNL     1       7.481   5.393  15.675  0.00  0.00    +0.000 NA
ATOM      8  C   UNL     1       7.293   4.983  14.419  0.00  0.00    +0.000 A 
ATOM      9  C   UNL     1       7.956   5.639  13.391  0.00  0.00    +0.000 A 
ATOM     10  C   UNL     1       7.757   5.291  12.054  0.00  0.00    +0.000 A 
ATOM     11  C   UNL     1       6.905   4.240  11.734  0.00  0.00    +0.000 A 
ATOM     12  C   UNL     1       6.249   3.549  12.752  0.00  0.00    +0.000 A 
ATOM     13  C   UNL     1       6.418   3.927  14.095  0.00  0.00    +0.000 A 
ATOM     14  C   UNL     1       5.699   3.316  15.139  0.00  0.00    +0.000 A 
ENDBRANCH   3   5
BRANCH   1  16
ATOM     15  C   UNL     1       4.539   2.014  20.781  0.00  0.00    +0.000 C 
ATOM     16  C   UNL     1       3.964   2.955  19.724  0.00  0.00    +0.000 C 
BRANCH  16  17
ATOM     17  N   UNL     1       2.875   2.217  19.037  0.00  0.00    +0.000 NA
ATOM     18  H   UNL     1       3.192   1.449  18.448  0.00  0.00    +0.000 HD
BRANCH  17  19
ATOM     19  S   UNL     1       1.648   3.103  18.257  0.00  0.00    +0.000 S 
ATOM     20  O   UNL     1       2.055   3.213  16.873  0.00  0.00    +0.000 OA
ATOM     21  O   UNL     1       0.363   2.558  18.624  0.00  0.00    +0.000 OA
BRANCH  19  22
ATOM     22  C   UNL     1       1.859   4.725  18.952  0.00  0.00    +0.000 A 
ATOM     23  C   UNL     1       1.462   4.938  20.279  0.00  0.00    +0.000 A 
ATOM     24  C   UNL     1       1.562   6.213  20.834  0.00  0.00    +0.000 A 
ATOM     25  C   UNL     1       2.070   7.264  20.070  0.00  0.00    +0.000 A 
ATOM     26  C   UNL     1       2.503   7.038  18.761  0.00  0.00    +0.000 A 
ATOM     27  C   UNL     1       2.411   5.763  18.202  0.00  0.00    +0.000 A 
ENDBRANCH  19  22
ENDBRANCH  17  19
ENDBRANCH  16  17
ENDBRANCH   1  16
TORSDOF 5
ENDMDL
MODEL 6
REMARK VINA RESULT:      -8.2      3.188      7.267
REMARK  Name = 
REMARK  6 active torsions:
REMARK  status: ('A' for Active; 'I' for Inactive)
REMARK    1  A    between atoms: C_1  and  C_2
REMARK    2  A    between atoms: C_2  and  N_3
REMARK    3  A    between atoms: C_2  and  C_13
REMARK    4  A    between atoms: N_3  and  S_4
REMARK    5  A    between atoms: S_4  and  C_7
REMARK    6  A    between atoms: N_15  and  C_16
REMARK                            x       y       z     vdW  Elec       q    Type
REMARK                         _______ _______ _______ _____ _____    ______ ____
ROOT
ATOM      1  C   UNL     1       2.629   4.648  17.787  0.00  0.00    +0.000 C 
ATOM      2  O   UNL     1       1.435   4.408  17.956  0.00  0.00    +0.000 OA
ATOM      3  N   UNL     1       3.180   5.902  17.993  0.00  0.00    +0.000 N 
ATOM      4  H   UNL     1       4.131   6.077  17.695  0.00  0.00    +0.000 HD
ENDROOT
BRANCH   3   5
ATOM      5  C   UNL     1       2.459   7.037  18.451  0.00  0.00    +0.000 A 
ATOM      6  C   UNL     1       2.150   8.148  17.674  0.00  0.00    +0.000 A 
ATOM      7  N   UNL     1       1.565   9.280  18.143  0.00  0.00    +0.000 NA
ATOM      8  C   UNL     1       1.282   9.343  19.446  0.00  0.00    +0.000 A 
ATOM      9  C   UNL     1       0.794  10.532  19.971  0.00  0.00    +0.000 A 
ATOM     10  C   UNL     1       0.533  10.675  21.336  0.00  0.00    +0.000 A 
ATOM     11  C   UNL     1       0.729   9.598  22.192  0.00  0.00    +0.000 A 
ATOM     12  C   UNL     1       1.194   8.386  21.683  0.00  0.00    +0.000 A 
ATOM     13  C   UNL     1       1.496   8.255  20.317  0.00  0.00    +0.000 A 
ATOM     14  C   UNL     1       2.057   7.079  19.785  0.00  0.00    +0.000 A 
ENDBRANCH   3   5
BRANCH   1  16
ATOM     15  C   UNL     1       3.255   2.136  17.809  0.00  0.00    +0.000 C 
ATOM     16  C   UNL     1       3.552   3.532  17.263  0.00  0.00    +0.000 C 
BRANCH  16  17
ATOM     17  N   UNL     1       5.000   3.777  17.470  0.00  0.00    +0.000 NA
ATOM     18  H   UNL     1       5.245   4.097  18.405  0.00  0.00    +0.000 HD
BRANCH  17  19
ATOM     19  S   UNL     1       5.861   4.655  16.292  0.00  0.00    +0.000 S 
ATOM     20  O   UNL     1       6.818   3.728  15.727  0.00  0.00    +0.000 OA
ATOM     21  O   UNL     1       4.928   5.375  15.459  0.00  0.00    +0.000 OA
BRANCH  19  22
ATOM     22  C   UNL     1       6.809   5.782  17.286  0.00  0.00    +0.000 A 
ATOM     23  C   UNL     1       6.961   7.101  16.837  0.00  0.00    +0.000 A 
ATOM     24  C   UNL     1       7.747   7.992  17.565  0.00  0.00    +0.000 A 
ATOM     25  C   UNL     1       8.364   7.571  18.743  0.00  0.00    +0.000 A 
ATOM     26  C   UNL     1       8.176   6.267  19.210  0.00  0.00    +0.000 A 
ATOM     27  C   UNL     1       7.385   5.372  18.488  0.00  0.00    +0.000 A 
ENDBRANCH  19  22
ENDBRANCH  17  19
ENDBRANCH  16  17
ENDBRANCH   1  16
TORSDOF 5
ENDMDL
MODEL 7
REMARK VINA RESULT:      -8.1      2.804      7.806
REMARK  Name = 
REMARK  6 active torsions:
REMARK  status: ('A' for Active; 'I' for Inactive)
REMARK    1  A    between atoms: C_1  and  C_2
REMARK    2  A    between atoms: C_2  and  N_3
REMARK    3  A    between atoms: C_2  and  C_13
REMARK    4  A    between atoms: N_3  and  S_4
REMARK    5  A    between atoms: S_4  and  C_7
REMARK    6  A    between atoms: N_15  and  C_16
REMARK                            x       y       z     vdW  Elec       q    Type
REMARK                         _______ _______ _______ _____ _____    ______ ____
ROOT
ATOM      1  C   UNL     1       3.479   4.989  18.090  0.00  0.00    +0.000 C 
ATOM      2  O   UNL     1       2.424   4.713  17.521  0.00  0.00    +0.000 OA
ATOM      3  N   UNL     1       3.711   6.218  18.687  0.00  0.00    +0.000 N 
ATOM      4  H   UNL     1       4.646   6.441  19.005  0.00  0.00    +0.000 HD
ENDROOT
BRANCH   3   5
ATOM      5  C   UNL     1       2.768   7.279  18.749  0.00  0.00    +0.000 A 
ATOM      6  C   UNL     1       2.540   8.198  17.730  0.00  0.00    +0.000 A 
ATOM      7  N   UNL     1       1.724   9.278  17.834  0.00  0.00    +0.000 NA
ATOM      8  C   UNL     1       1.113   9.490  19.002  0.00  0.00    +0.000 A 
ATOM      9  C   UNL     1       0.370  10.650  19.171  0.00  0.00    +0.000 A 
ATOM     10  C   UNL     1      -0.246  10.952  20.388  0.00  0.00    +0.000 A 
ATOM     11  C   UNL     1      -0.149  10.060  21.450  0.00  0.00    +0.000 A 
ATOM     12  C   UNL     1       0.569   8.875  21.294  0.00  0.00    +0.000 A 
ATOM     13  C   UNL     1       1.224   8.592  20.083  0.00  0.00    +0.000 A 
ATOM     14  C   UNL     1       2.037   7.455  19.922  0.00  0.00    +0.000 A 
ENDBRANCH   3   5
BRANCH   1  16
ATOM     15  C   UNL     1       5.704   4.194  19.146  0.00  0.00    +0.000 C 
ATOM     16  C   UNL     1       4.623   3.959  18.092  0.00  0.00    +0.000 C 
BRANCH  16  17
ATOM     17  N   UNL     1       5.317   3.800  16.791  0.00  0.00    +0.000 NA
ATOM     18  H   UNL     1       5.610   2.847  16.582  0.00  0.00    +0.000 HD
BRANCH  17  19
ATOM     19  S   UNL     1       6.538   4.909  16.370  0.00  0.00    +0.000 S 
ATOM     20  O   UNL     1       5.952   6.223  16.524  0.00  0.00    +0.000 OA
ATOM     21  O   UNL     1       7.762   4.545  17.043  0.00  0.00    +0.000 OA
BRANCH  19  22
ATOM     22  C   UNL     1       6.689   4.650  14.618  0.00  0.00    +0.000 A 
ATOM     23  C   UNL     1       5.841   3.717  14.007  0.00  0.00    +0.000 A 
ATOM     24  C   UNL     1       5.975   3.451  12.645  0.00  0.00    +0.000 A 
ATOM     25  C   UNL     1       6.941   4.125  11.898  0.00  0.00    +0.000 A 
ATOM     26  C   UNL     1       7.756   5.085  12.502  0.00  0.00    +0.000 A 
ATOM     27  C   UNL     1       7.623   5.360  13.864  0.00  0.00    +0.000 A 
ENDBRANCH  19  22
ENDBRANCH  17  19
ENDBRANCH  16  17
ENDBRANCH   1  16
TORSDOF 5
ENDMDL
MODEL 8
REMARK VINA RESULT:      -8.0      1.789      2.448
REMARK  Name = 
REMARK  6 active torsions:
REMARK  status: ('A' for Active; 'I' for Inactive)
REMARK    1  A    between atoms: C_1  and  C_2
REMARK    2  A    between atoms: C_2  and  N_3
REMARK    3  A    between atoms: C_2  and  C_13
REMARK    4  A    between atoms: N_3  and  S_4
REMARK    5  A    between atoms: S_4  and  C_7
REMARK    6  A    between atoms: N_15  and  C_16
REMARK                            x       y       z     vdW  Elec       q    Type
REMARK                         _______ _______ _______ _____ _____    ______ ____
ROOT
ATOM      1  C   UNL     1       3.622   3.195  17.711  0.00  0.00    +0.000 C 
ATOM      2  O   UNL     1       4.118   2.111  17.411  0.00  0.00    +0.000 OA
ATOM      3  N   UNL     1       4.078   4.399  17.197  0.00  0.00    +0.000 N 
ATOM      4  H   UNL     1       3.733   5.264  17.592  0.00  0.00    +0.000 HD
ENDROOT
BRANCH   3   5
ATOM      5  C   UNL     1       5.130   4.527  16.251  0.00  0.00    +0.000 A 
ATOM      6  C   UNL     1       6.241   5.349  16.407  0.00  0.00    +0.000 A 
ATOM      7  N   UNL     1       7.184   5.559  15.453  0.00  0.00    +0.000 NA
ATOM      8  C   UNL     1       7.027   4.954  14.274  0.00  0.00    +0.000 A 
ATOM      9  C   UNL     1       7.912   5.246  13.245  0.00  0.00    +0.000 A 
ATOM     10  C   UNL     1       7.766   4.686  11.974  0.00  0.00    +0.000 A 
ATOM     11  C   UNL     1       6.734   3.786  11.732  0.00  0.00    +0.000 A 
ATOM     12  C   UNL     1       5.849   3.456  12.758  0.00  0.00    +0.000 A 
ATOM     13  C   UNL     1       5.972   4.053  14.025  0.00  0.00    +0.000 A 
ATOM     14  C   UNL     1       5.042   3.818  15.054  0.00  0.00    +0.000 A 
ENDBRANCH   3   5
BRANCH   1  16
ATOM     15  C   UNL     1       1.309   2.307  18.461  0.00  0.00    +0.000 C 
ATOM     16  C   UNL     1       2.486   3.239  18.749  0.00  0.00    +0.000 C 
BRANCH  16  17
ATOM     17  N   UNL     1       1.919   4.588  18.991  0.00  0.00    +0.000 NA
ATOM     18  H   UNL     1       1.628   5.081  18.149  0.00  0.00    +0.000 HD
BRANCH  17  19
ATOM     19  S   UNL     1       2.731   5.642  20.053  0.00  0.00    +0.000 S 
ATOM     20  O   UNL     1       2.133   5.434  21.354  0.00  0.00    +0.000 OA
ATOM     21  O   UNL     1       4.155   5.518  19.849  0.00  0.00    +0.000 OA
BRANCH  19  22
ATOM     22  C   UNL     1       2.159   7.234  19.508  0.00  0.00    +0.000 A 
ATOM     23  C   UNL     1       1.530   8.070  20.439  0.00  0.00    +0.000 A 
ATOM     24  C   UNL     1       1.019   9.301  20.029  0.00  0.00    +0.000 A 
ATOM     25  C   UNL     1       1.153   9.698  18.698  0.00  0.00    +0.000 A 
ATOM     26  C   UNL     1       1.818   8.880  17.782  0.00  0.00    +0.000 A 
ATOM     27  C   UNL     1       2.336   7.649  18.188  0.00  0.00    +0.000 A 
ENDBRANCH  19  22
ENDBRANCH  17  19
ENDBRANCH  16  17
ENDBRANCH   1  16
TORSDOF 5
ENDMDL
MODEL 9
REMARK VINA RESULT:      -8.0      6.200      7.584
REMARK  Name = 
REMARK  6 active torsions:
REMARK  status: ('A' for Active; 'I' for Inactive)
REMARK    1  A    between atoms: C_1  and  C_2
REMARK    2  A    between atoms: C_2  and  N_3
REMARK    3  A    between atoms: C_2  and  C_13
REMARK    4  A    between atoms: N_3  and  S_4
REMARK    5  A    between atoms: S_4  and  C_7
REMARK    6  A    between atoms: N_15  and  C_16
REMARK                            x       y       z     vdW  Elec       q    Type
REMARK                         _______ _______ _______ _____ _____    ______ ____
ROOT
ATOM      1  C   UNL     1       7.931   8.568  18.063  0.00  0.00    +0.000 C 
ATOM      2  O   UNL     1       7.543   9.366  17.212  0.00  0.00    +0.000 OA
ATOM      3  N   UNL     1       8.845   8.906  19.049  0.00  0.00    +0.000 N 
ATOM      4  H   UNL     1       9.240   8.174  19.625  0.00  0.00    +0.000 HD
ENDROOT
BRANCH   3   5
ATOM      5  C   UNL     1       9.409  10.199  19.220  0.00  0.00    +0.000 A 
ATOM      6  C   UNL     1       9.355  10.939  20.396  0.00  0.00    +0.000 A 
ATOM      7  N   UNL     1       9.790  12.219  20.522  0.00  0.00    +0.000 NA
ATOM      8  C   UNL     1      10.286  12.821  19.439  0.00  0.00    +0.000 A 
ATOM      9  C   UNL     1      10.627  14.164  19.513  0.00  0.00    +0.000 A 
ATOM     10  C   UNL     1      11.098  14.861  18.398  0.00  0.00    +0.000 A 
ATOM     11  C   UNL     1      11.268  14.194  17.190  0.00  0.00    +0.000 A 
ATOM     12  C   UNL     1      10.958  12.838  17.099  0.00  0.00    +0.000 A 
ATOM     13  C   UNL     1      10.444  12.148  18.210  0.00  0.00    +0.000 A 
ATOM     14  C   UNL     1      10.030  10.806  18.130  0.00  0.00    +0.000 A 
ENDBRANCH   3   5
BRANCH   1  16
ATOM     15  C   UNL     1       8.154   6.148  18.955  0.00  0.00    +0.000 C 
ATOM     16  C   UNL     1       7.439   7.110  18.007  0.00  0.00    +0.000 C 
BRANCH  16  17
ATOM     17  N   UNL     1       7.476   6.495  16.658  0.00  0.00    +0.000 NA
ATOM     18  H   UNL     1       7.710   7.140  15.905  0.00  0.00    +0.000 HD
BRANCH  17  19
ATOM     19  S   UNL     1       6.206   5.463  16.190  0.00  0.00    +0.000 S 
ATOM     20  O   UNL     1       5.770   5.932  14.892  0.00  0.00    +0.000 OA
ATOM     21  O   UNL     1       6.605   4.092  16.401  0.00  0.00    +0.000 OA
BRANCH  19  22
ATOM     22  C   UNL     1       4.917   5.918  17.326  0.00  0.00    +0.000 A 
ATOM     23  C   UNL     1       4.694   5.102  18.443  0.00  0.00    +0.000 A 
ATOM     24  C   UNL     1       3.653   5.402  19.320  0.00  0.00    +0.000 A 
ATOM     25  C   UNL     1       2.852   6.520  19.090  0.00  0.00    +0.000 A 
ATOM     26  C   UNL     1       3.104   7.355  17.999  0.00  0.00    +0.000 A 
ATOM     27  C   UNL     1       4.148   7.064  17.120  0.00  0.00    +0.000 A 
ENDBRANCH  19  22
ENDBRANCH  17  19
ENDBRANCH  16  17
ENDBRANCH   1  16
TORSDOF 5
ENDMDL
