MODEL 1
REMARK VINA RESULT:      -8.5      0.000      0.000
REMARK  Name = 
REMARK  6 active torsions:
REMARK  status: ('A' for Active; 'I' for Inactive)
REMARK    1  A    between atoms: C_1  and  C_2
REMARK    2  A    between atoms: C_2  and  C_3
REMARK    3  A    between atoms: C_2  and  C_24
REMARK    4  A    between atoms: C_7  and  N_8
REMARK    5  A    between atoms: C_16  and  C_17
REMARK    6  A    between atoms: N_28  and  C_29
REMARK                            x       y       z     vdW  Elec       q    Type
REMARK                         _______ _______ _______ _____ _____    ______ ____
ROOT
ATOM      1  N   UNL     1       3.698   5.238  19.369  0.00  0.00    +0.000 N 
ATOM      2  C   UNL     1       5.101   5.705  19.441  0.00  0.00    +0.000 C 
ATOM      3  C   UNL     1       5.658   5.238  18.123  0.00  0.00    +0.000 A 
ATOM      4  C   UNL     1       4.896   4.134  17.718  0.00  0.00    +0.000 A 
ATOM      5  C   UNL     1       5.046   3.531  16.488  0.00  0.00    +0.000 A 
ATOM      6  C   UNL     1       5.985   4.088  15.634  0.00  0.00    +0.000 A 
ATOM      7  F   UNL     1       6.118   3.599  14.395  0.00  0.00    +0.000 F 
ATOM      8  C   UNL     1       6.743   5.211  16.003  0.00  0.00    +0.000 A 
ATOM      9  C   UNL     1       6.587   5.817  17.267  0.00  0.00    +0.000 A 
ATOM     10  C   UNL     1       3.713   4.045  18.601  0.00  0.00    +0.000 C 
ATOM     11  O   UNL     1       2.841   3.204  18.486  0.00  0.00    +0.000 OA
ENDROOT
BRANCH   1  16
ATOM     12  C   UNL     1       1.770   8.369  19.565  0.00  0.00    +0.000 A 
ATOM     13  C   UNL     1       2.210   8.963  18.372  0.00  0.00    +0.000 A 
ATOM     14  C   UNL     1       2.812   8.196  17.379  0.00  0.00    +0.000 A 
ATOM     15  C   UNL     1       3.065   6.847  17.603  0.00  0.00    +0.000 A 
ATOM     16  C   UNL     1       2.840   6.300  18.876  0.00  0.00    +0.000 A 
ATOM     17  C   UNL     1       2.093   7.026  19.810  0.00  0.00    +0.000 A 
BRANCH  12  19
ATOM     18  C   UNL     1       0.270   8.295  21.557  0.00  0.00    +0.000 C 
ATOM     19  C   UNL     1       1.039   9.214  20.594  0.00  0.00    +0.000 C 
BRANCH  19  20
ATOM     20  C   UNL     1       0.143  10.276  20.001  0.00  0.00    +0.000 A 
ATOM     21  N   UNL     1      -0.999  10.058  19.379  0.00  0.00    +0.000 NA
ATOM     22  N   UNL     1      -1.557  11.275  19.068  0.00  0.00    +0.000 NA
ATOM     23  C   UNL     1      -0.744  12.209  19.499  0.00  0.00    +0.000 A 
ATOM     24  N   UNL     1       0.350  11.629  20.061  0.00  0.00    +0.000 N 
ATOM     25  C   UNL     1       1.484  12.346  20.594  0.00  0.00    +0.000 C 
ENDBRANCH  19  20
ENDBRANCH  12  19
ENDBRANCH   1  16
BRANCH   9  26
ATOM     26  C   UNL     1       7.334   7.092  17.567  0.00  0.00    +0.000 C 
ATOM     27  F   UNL     1       8.102   7.039  18.687  0.00  0.00    +0.000 F 
ATOM     28  F   UNL     1       8.173   7.446  16.558  0.00  0.00    +0.000 F 
ATOM     29  F   UNL     1       6.493   8.151  17.745  0.00  0.00    +0.000 F 
ENDBRANCH   9  26
TORSDOF 4
ENDMDL
MODEL 2
REMARK VINA RESULT:      -8.4      4.294      8.237
REMARK  Name = 
REMARK  6 active torsions:
REMARK  status: ('A' for Active; 'I' for Inactive)
REMARK    1  A    between atoms: C_1  and  C_2
REMARK    2  A    between atoms: C_2  and  C_3
REMARK    3  A    between atoms: C_2  and  C_24
REMARK    4  A    between atoms: C_7  and  N_8
REMARK    5  A    between atoms: C_16  and  C_17
REMARK    6  A    between atoms: N_28  and  C_29
REMARK                            x       y       z     vdW  Elec       q    Type
REMARK                         _______ _______ _______ _____ _____    ______ ____
ROOT
ATOM      1  N   UNL     1       0.149   9.354  20.719  0.00  0.00    +0.000 N 
ATOM      2  C   UNL     1      -1.060   9.277  19.869  0.00  0.00    +0.000 C 
ATOM      3  C   UNL     1      -1.133  10.668  19.297  0.00  0.00    +0.000 A 
ATOM      4  C   UNL     1      -0.488  11.523  20.201  0.00  0.00    +0.000 A 
ATOM      5  C   UNL     1      -0.253  12.854  19.935  0.00  0.00    +0.000 A 
ATOM      6  C   UNL     1      -0.666  13.322  18.697  0.00  0.00    +0.000 A 
ATOM      7  F   UNL     1      -0.391  14.585  18.347  0.00  0.00    +0.000 F 
ATOM      8  C   UNL     1      -1.290  12.481  17.762  0.00  0.00    +0.000 A 
ATOM      9  C   UNL     1      -1.532  11.121  18.046  0.00  0.00    +0.000 A 
ATOM     10  C   UNL     1       0.219  10.688  21.196  0.00  0.00    +0.000 C 
ATOM     11  O   UNL     1       0.898  11.138  22.100  0.00  0.00    +0.000 OA
ENDROOT
BRANCH   1  16
ATOM     12  C   UNL     1       2.510   6.848  19.413  0.00  0.00    +0.000 A 
ATOM     13  C   UNL     1       2.577   7.294  18.084  0.00  0.00    +0.000 A 
ATOM     14  C   UNL     1       2.164   8.579  17.746  0.00  0.00    +0.000 A 
ATOM     15  C   UNL     1       1.592   9.399  18.713  0.00  0.00    +0.000 A 
ATOM     16  C   UNL     1       1.309   8.880  19.986  0.00  0.00    +0.000 A 
ATOM     17  C   UNL     1       1.869   7.654  20.364  0.00  0.00    +0.000 A 
BRANCH  12  19
ATOM     18  C   UNL     1       4.472   5.321  19.206  0.00  0.00    +0.000 C 
ATOM     19  C   UNL     1       3.049   5.473  19.766  0.00  0.00    +0.000 C 
BRANCH  19  20
ATOM     20  C   UNL     1       2.157   4.330  19.341  0.00  0.00    +0.000 A 
ATOM     21  N   UNL     1       1.725   4.108  18.114  0.00  0.00    +0.000 NA
ATOM     22  N   UNL     1       1.018   2.928  18.116  0.00  0.00    +0.000 NA
ATOM     23  C   UNL     1       1.026   2.460  19.340  0.00  0.00    +0.000 A 
ATOM     24  N   UNL     1       1.700   3.322  20.148  0.00  0.00    +0.000 N 
ATOM     25  C   UNL     1       1.865   3.162  21.573  0.00  0.00    +0.000 C 
ENDBRANCH  19  20
ENDBRANCH  12  19
ENDBRANCH   1  16
BRANCH   9  26
ATOM     26  C   UNL     1      -2.092  10.234  16.963  0.00  0.00    +0.000 C 
ATOM     27  F   UNL     1      -3.254   9.611  17.296  0.00  0.00    +0.000 F 
ATOM     28  F   UNL     1      -2.353  10.920  15.819  0.00  0.00    +0.000 F 
ATOM     29  F   UNL     1      -1.226   9.240  16.615  0.00  0.00    +0.000 F 
ENDBRANCH   9  26
TORSDOF 4
ENDMDL
MODEL 3
REMARK VINA RESULT:      -8.4      5.319      8.441
REMARK  Name = 
REMARK  6 active torsions:
REMARK  status: ('A' for Active; 'I' for Inactive)
REMARK    1  A    between atoms: C_1  and  C_2
REMARK    2  A    between atoms: C_2  and  C_3
REMARK    3  A    between atoms: C_2  and  C_24
REMARK    4  A    between atoms: C_7  and  N_8
REMARK    5  A    between atoms: C_16  and  C_17
REMARK    6  A    between atoms: N_28  and  C_29
REMARK                            x       y       z     vdW  Elec       q    Type
REMARK                         _______ _______ _______ _____ _____    ______ ____
ROOT
ATOM      1  N   UNL     1      -1.830  12.486  19.065  0.00  0.00    +0.000 N 
ATOM      2  C   UNL     1      -0.440  12.149  18.685  0.00  0.00    +0.000 C 
ATOM      3  C   UNL     1      -0.029  11.212  19.789  0.00  0.00    +0.000 A 
ATOM      4  C   UNL     1      -0.807  11.526  20.912  0.00  0.00    +0.000 A 
ATOM      5  C   UNL     1      -0.787  10.779  22.069  0.00  0.00    +0.000 A 
ATOM      6  C   UNL     1       0.033   9.662  22.073  0.00  0.00    +0.000 A 
ATOM      7  F   UNL     1       0.033   8.850  23.138  0.00  0.00    +0.000 F 
ATOM      8  C   UNL     1       0.803   9.308  20.953  0.00  0.00    +0.000 A 
ATOM      9  C   UNL     1       0.781  10.082  19.775  0.00  0.00    +0.000 A 
ATOM     10  C   UNL     1      -1.878  12.451  20.482  0.00  0.00    +0.000 C 
ATOM     11  O   UNL     1      -2.737  12.887  21.225  0.00  0.00    +0.000 OA
ENDROOT
BRANCH   1  16
ATOM     12  C   UNL     1      -5.065  11.499  17.608  0.00  0.00    +0.000 A 
ATOM     13  C   UNL     1      -4.601  11.010  16.377  0.00  0.00    +0.000 A 
ATOM     14  C   UNL     1      -3.262  10.674  16.207  0.00  0.00    +0.000 A 
ATOM     15  C   UNL     1      -2.353  10.911  17.232  0.00  0.00    +0.000 A 
ATOM     16  C   UNL     1      -2.764  11.612  18.377  0.00  0.00    +0.000 A 
ATOM     17  C   UNL     1      -4.131  11.800  18.609  0.00  0.00    +0.000 A 
BRANCH  12  19
ATOM     18  C   UNL     1      -6.912  13.095  17.092  0.00  0.00    +0.000 C 
ATOM     19  C   UNL     1      -6.548  11.775  17.790  0.00  0.00    +0.000 C 
BRANCH  19  20
ATOM     20  C   UNL     1      -7.009  11.760  19.229  0.00  0.00    +0.000 A 
ATOM     21  N   UNL     1      -7.251  12.826  19.969  0.00  0.00    +0.000 NA
ATOM     22  N   UNL     1      -7.735  12.401  21.184  0.00  0.00    +0.000 NA
ATOM     23  C   UNL     1      -7.771  11.091  21.164  0.00  0.00    +0.000 A 
ATOM     24  N   UNL     1      -7.294  10.645  19.972  0.00  0.00    +0.000 N 
ATOM     25  C   UNL     1      -7.132   9.256  19.613  0.00  0.00    +0.000 C 
ENDBRANCH  19  20
ENDBRANCH  12  19
ENDBRANCH   1  16
BRANCH   9  26
ATOM     26  C   UNL     1       1.528   9.592  18.560  0.00  0.00    +0.000 C 
ATOM     27  F   UNL     1       0.728   9.176  17.543  0.00  0.00    +0.000 F 
ATOM     28  F   UNL     1       2.334  10.550  18.030  0.00  0.00    +0.000 F 
ATOM     29  F   UNL     1       2.340   8.536  18.849  0.00  0.00    +0.000 F 
ENDBRANCH   9  26
TORSDOF 4
ENDMDL
MODEL 4
REMARK VINA RESULT:      -8.3      0.637      1.367
REMARK  Name = 
REMARK  6 active torsions:
REMARK  status: ('A' for Active; 'I' for Inactive)
REMARK    1  A    between atoms: C_1  and  C_2
REMARK    2  A    between atoms: C_2  and  C_3
REMARK    3  A    between atoms: C_2  and  C_24
REMARK    4  A    between atoms: C_7  and  N_8
REMARK    5  A    between atoms: C_16  and  C_17
REMARK    6  A    between atoms: N_28  and  C_29
REMARK                            x       y       z     vdW  Elec       q    Type
REMARK                         _______ _______ _______ _____ _____    ______ ____
ROOT
ATOM      1  N   UNL     1       3.576   5.142  19.411  0.00  0.00    +0.000 N 
ATOM      2  C   UNL     1       4.991   5.575  19.446  0.00  0.00    +0.000 C 
ATOM      3  C   UNL     1       5.472   5.192  18.071  0.00  0.00    +0.000 A 
ATOM      4  C   UNL     1       4.665   4.135  17.629  0.00  0.00    +0.000 A 
ATOM      5  C   UNL     1       4.740   3.620  16.353  0.00  0.00    +0.000 A 
ATOM      6  C   UNL     1       5.649   4.217  15.495  0.00  0.00    +0.000 A 
ATOM      7  F   UNL     1       5.710   3.816  14.219  0.00  0.00    +0.000 F 
ATOM      8  C   UNL     1       6.451   5.295  15.903  0.00  0.00    +0.000 A 
ATOM      9  C   UNL     1       6.371   5.812  17.213  0.00  0.00    +0.000 A 
ATOM     10  C   UNL     1       3.524   4.008  18.561  0.00  0.00    +0.000 C 
ATOM     11  O   UNL     1       2.628   3.195  18.431  0.00  0.00    +0.000 OA
ENDROOT
BRANCH   1  16
ATOM     12  C   UNL     1       1.708   8.273  19.934  0.00  0.00    +0.000 A 
ATOM     13  C   UNL     1       2.120   8.959  18.781  0.00  0.00    +0.000 A 
ATOM     14  C   UNL     1       2.675   8.270  17.707  0.00  0.00    +0.000 A 
ATOM     15  C   UNL     1       2.913   6.904  17.809  0.00  0.00    +0.000 A 
ATOM     16  C   UNL     1       2.720   6.254  19.039  0.00  0.00    +0.000 A 
ATOM     17  C   UNL     1       2.016   6.910  20.055  0.00  0.00    +0.000 A 
BRANCH  12  19
ATOM     18  C   UNL     1      -0.252   8.297  21.478  0.00  0.00    +0.000 C 
ATOM     19  C   UNL     1       1.027   9.039  21.055  0.00  0.00    +0.000 C 
BRANCH  19  20
ATOM     20  C   UNL     1       0.750  10.490  20.736  0.00  0.00    +0.000 A 
ATOM     21  N   UNL     1       1.397  11.524  21.240  0.00  0.00    +0.000 NA
ATOM     22  N   UNL     1       0.916  12.663  20.640  0.00  0.00    +0.000 NA
ATOM     23  C   UNL     1      -0.015  12.304  19.790  0.00  0.00    +0.000 A 
ATOM     24  N   UNL     1      -0.176  10.955  19.840  0.00  0.00    +0.000 N 
ATOM     25  C   UNL     1      -1.152  10.209  19.082  0.00  0.00    +0.000 C 
ENDBRANCH  19  20
ENDBRANCH  12  19
ENDBRANCH   1  16
BRANCH   9  26
ATOM     26  C   UNL     1       7.162   7.047  17.564  0.00  0.00    +0.000 C 
ATOM     27  F   UNL     1       8.063   7.421  16.617  0.00  0.00    +0.000 F 
ATOM     28  F   UNL     1       6.365   8.129  17.766  0.00  0.00    +0.000 F 
ATOM     29  F   UNL     1       7.878   6.888  18.713  0.00  0.00    +0.000 F 
ENDBRANCH   9  26
TORSDOF 4
ENDMDL
MODEL 5
REMARK VINA RESULT:      -8.2      3.354      4.605
REMARK  Name = 
REMARK  6 active torsions:
REMARK  status: ('A' for Active; 'I' for Inactive)
REMARK    1  A    between atoms: C_1  and  C_2
REMARK    2  A    between atoms: C_2  and  C_3
REMARK    3  A    between atoms: C_2  and  C_24
REMARK    4  A    between atoms: C_7  and  N_8
REMARK    5  A    between atoms: C_16  and  C_17
REMARK    6  A    between atoms: N_28  and  C_29
REMARK                            x       y       z     vdW  Elec       q    Type
REMARK                         _______ _______ _______ _____ _____    ______ ____
ROOT
ATOM      1  N   UNL     1       2.756   6.035  17.449  0.00  0.00    +0.000 N 
ATOM      2  C   UNL     1       1.761   4.983  17.759  0.00  0.00    +0.000 C 
ATOM      3  C   UNL     1       2.563   4.029  18.604  0.00  0.00    +0.000 A 
ATOM      4  C   UNL     1       3.908   4.186  18.244  0.00  0.00    +0.000 A 
ATOM      5  C   UNL     1       4.939   3.559  18.910  0.00  0.00    +0.000 A 
ATOM      6  C   UNL     1       4.589   2.769  19.993  0.00  0.00    +0.000 A 
ATOM      7  F   UNL     1       5.551   2.201  20.731  0.00  0.00    +0.000 F 
ATOM      8  C   UNL     1       3.251   2.616  20.392  0.00  0.00    +0.000 A 
ATOM      9  C   UNL     1       2.202   3.256  19.701  0.00  0.00    +0.000 A 
ATOM     10  C   UNL     1       4.017   5.388  17.390  0.00  0.00    +0.000 C 
ATOM     11  O   UNL     1       5.066   5.807  16.937  0.00  0.00    +0.000 OA
ENDROOT
BRANCH   1  16
ATOM     12  C   UNL     1       1.600   9.296  18.710  0.00  0.00    +0.000 A 
ATOM     13  C   UNL     1       1.224   8.900  20.003  0.00  0.00    +0.000 A 
ATOM     14  C   UNL     1       1.691   7.706  20.542  0.00  0.00    +0.000 A 
ATOM     15  C   UNL     1       2.460   6.848  19.764  0.00  0.00    +0.000 A 
ATOM     16  C   UNL     1       2.646   7.125  18.401  0.00  0.00    +0.000 A 
ATOM     17  C   UNL     1       2.316   8.394  17.910  0.00  0.00    +0.000 A 
BRANCH  12  19
ATOM     18  C   UNL     1       2.275  11.672  18.360  0.00  0.00    +0.000 C 
ATOM     19  C   UNL     1       1.146  10.645  18.180  0.00  0.00    +0.000 C 
BRANCH  19  20
ATOM     20  C   UNL     1      -0.155  11.137  18.770  0.00  0.00    +0.000 A 
ATOM     21  N   UNL     1      -0.271  11.959  19.796  0.00  0.00    +0.000 NA
ATOM     22  N   UNL     1      -1.606  12.238  19.972  0.00  0.00    +0.000 NA
ATOM     23  C   UNL     1      -2.276  11.577  19.059  0.00  0.00    +0.000 A 
ATOM     24  N   UNL     1      -1.410  10.848  18.304  0.00  0.00    +0.000 N 
ATOM     25  C   UNL     1      -1.794   9.953  17.238  0.00  0.00    +0.000 C 
ENDBRANCH  19  20
ENDBRANCH  12  19
ENDBRANCH   1  16
BRANCH   9  26
ATOM     26  C   UNL     1       0.799   3.160  20.244  0.00  0.00    +0.000 C 
ATOM     27  F   UNL     1       0.192   4.360  20.437  0.00  0.00    +0.000 F 
ATOM     28  F   UNL     1      -0.024   2.456  19.421  0.00  0.00    +0.000 F 
ATOM     29  F   UNL     1       0.757   2.525  21.449  0.00  0.00    +0.000 F 
ENDBRANCH   9  26
TORSDOF 4
ENDMDL
MODEL 6
REMARK VINA RESULT:      -8.1      3.299      4.585
REMARK  Name = 
REMARK  6 active torsions:
REMARK  status: ('A' for Active; 'I' for Inactive)
REMARK    1  A    between atoms: C_1  and  C_2
REMARK    2  A    between atoms: C_2  and  C_3
REMARK    3  A    between atoms: C_2  and  C_24
REMARK    4  A    between atoms: C_7  and  N_8
REMARK    5  A    between atoms: C_16  and  C_17
REMARK    6  A    between atoms: N_28  and  C_29
REMARK                            x       y       z     vdW  Elec       q    Type
REMARK                         _______ _______ _______ _____ _____    ______ ____
ROOT
ATOM      1  N   UNL     1       2.629   6.351  17.635  0.00  0.00    +0.000 N 
ATOM      2  C   UNL     1       1.675   5.238  17.844  0.00  0.00    +0.000 C 
ATOM      3  C   UNL     1       2.524   4.226  18.567  0.00  0.00    +0.000 A 
ATOM      4  C   UNL     1       3.856   4.467  18.204  0.00  0.00    +0.000 A 
ATOM      5  C   UNL     1       4.919   3.808  18.781  0.00  0.00    +0.000 A 
ATOM      6  C   UNL     1       4.616   2.893  19.777  0.00  0.00    +0.000 A 
ATOM      7  F   UNL     1       5.611   2.282  20.433  0.00  0.00    +0.000 F 
ATOM      8  C   UNL     1       3.293   2.652  20.179  0.00  0.00    +0.000 A 
ATOM      9  C   UNL     1       2.210   3.327  19.578  0.00  0.00    +0.000 A 
ATOM     10  C   UNL     1       3.909   5.758  17.485  0.00  0.00    +0.000 C 
ATOM     11  O   UNL     1       4.934   6.259  17.064  0.00  0.00    +0.000 OA
ENDROOT
BRANCH   1  16
ATOM     12  C   UNL     1       1.505   9.482  19.213  0.00  0.00    +0.000 A 
ATOM     13  C   UNL     1       1.052   8.953  20.432  0.00  0.00    +0.000 A 
ATOM     14  C   UNL     1       1.456   7.689  20.849  0.00  0.00    +0.000 A 
ATOM     15  C   UNL     1       2.239   6.901  20.013  0.00  0.00    +0.000 A 
ATOM     16  C   UNL     1       2.502   7.327  18.701  0.00  0.00    +0.000 A 
ATOM     17  C   UNL     1       2.234   8.655  18.348  0.00  0.00    +0.000 A 
BRANCH  12  19
ATOM     18  C   UNL     1       2.280  11.557  18.064  0.00  0.00    +0.000 C 
ATOM     19  C   UNL     1       1.117  10.899  18.824  0.00  0.00    +0.000 C 
BRANCH  19  20
ATOM     20  C   UNL     1       0.650  11.753  19.979  0.00  0.00    +0.000 A 
ATOM     21  N   UNL     1       1.428  12.290  20.901  0.00  0.00    +0.000 NA
ATOM     22  N   UNL     1       0.645  13.066  21.722  0.00  0.00    +0.000 NA
ATOM     23  C   UNL     1      -0.591  12.983  21.291  0.00  0.00    +0.000 A 
ATOM     24  N   UNL     1      -0.639  12.145  20.221  0.00  0.00    +0.000 N 
ATOM     25  C   UNL     1      -1.844  11.769  19.520  0.00  0.00    +0.000 C 
ENDBRANCH  19  20
ENDBRANCH  12  19
ENDBRANCH   1  16
BRANCH   9  26
ATOM     26  C   UNL     1       0.821   3.124  20.130  0.00  0.00    +0.000 C 
ATOM     27  F   UNL     1       0.780   2.428  21.296  0.00  0.00    +0.000 F 
ATOM     28  F   UNL     1       0.189   4.301  20.377  0.00  0.00    +0.000 F 
ATOM     29  F   UNL     1       0.019   2.442  19.263  0.00  0.00    +0.000 F 
ENDBRANCH   9  26
TORSDOF 4
ENDMDL
MODEL 7
REMARK VINA RESULT:      -8.1      1.784      2.527
REMARK  Name = 
REMARK  6 active torsions:
REMARK  status: ('A' for Active; 'I' for Inactive)
REMARK    1  A    between atoms: C_1  and  C_2
REMARK    2  A    between atoms: C_2  and  C_3
REMARK    3  A    between atoms: C_2  and  C_24
REMARK    4  A    between atoms: C_7  and  N_8
REMARK    5  A    between atoms: C_16  and  C_17
REMARK    6  A    between atoms: N_28  and  C_29
REMARK                            x       y       z     vdW  Elec       q    Type
REMARK                         _______ _______ _______ _____ _____    ______ ____
ROOT
ATOM      1  N   UNL     1       3.230   6.132  20.194  0.00  0.00    +0.000 N 
ATOM      2  C   UNL     1       4.407   5.928  19.320  0.00  0.00    +0.000 C 
ATOM      3  C   UNL     1       4.022   4.688  18.557  0.00  0.00    +0.000 A 
ATOM      4  C   UNL     1       3.119   3.973  19.355  0.00  0.00    +0.000 A 
ATOM      5  C   UNL     1       2.459   2.847  18.913  0.00  0.00    +0.000 A 
ATOM      6  C   UNL     1       2.709   2.453  17.608  0.00  0.00    +0.000 A 
ATOM      7  F   UNL     1       2.035   1.416  17.094  0.00  0.00    +0.000 F 
ATOM      8  C   UNL     1       3.587   3.167  16.778  0.00  0.00    +0.000 A 
ATOM      9  C   UNL     1       4.263   4.315  17.240  0.00  0.00    +0.000 A 
ATOM     10  C   UNL     1       2.716   4.841  20.482  0.00  0.00    +0.000 C 
ATOM     11  O   UNL     1       1.916   4.515  21.338  0.00  0.00    +0.000 OA
ENDROOT
BRANCH   1  16
ATOM     12  C   UNL     1       1.198   9.194  19.951  0.00  0.00    +0.000 A 
ATOM     13  C   UNL     1       1.538   9.568  18.641  0.00  0.00    +0.000 A 
ATOM     14  C   UNL     1       2.103   8.647  17.765  0.00  0.00    +0.000 A 
ATOM     15  C   UNL     1       2.423   7.370  18.213  0.00  0.00    +0.000 A 
ATOM     16  C   UNL     1       2.302   7.062  19.578  0.00  0.00    +0.000 A 
ATOM     17  C   UNL     1       1.588   7.929  20.413  0.00  0.00    +0.000 A 
BRANCH  12  19
ATOM     18  C   UNL     1      -0.393   9.446  21.856  0.00  0.00    +0.000 C 
ATOM     19  C   UNL     1       0.504  10.195  20.857  0.00  0.00    +0.000 C 
BRANCH  19  20
ATOM     20  C   UNL     1      -0.259  11.272  20.122  0.00  0.00    +0.000 A 
ATOM     21  N   UNL     1      -1.459  11.136  19.589  0.00  0.00    +0.000 NA
ATOM     22  N   UNL     1      -1.847  12.358  19.092  0.00  0.00    +0.000 NA
ATOM     23  C   UNL     1      -0.878  13.210  19.324  0.00  0.00    +0.000 A 
ATOM     24  N   UNL     1       0.150  12.566  19.938  0.00  0.00    +0.000 N 
ATOM     25  C   UNL     1       1.410  13.174  20.297  0.00  0.00    +0.000 C 
ENDBRANCH  19  20
ENDBRANCH  12  19
ENDBRANCH   1  16
BRANCH   9  26
ATOM     26  C   UNL     1       5.098   5.115  16.273  0.00  0.00    +0.000 C 
ATOM     27  F   UNL     1       4.662   6.387  16.078  0.00  0.00    +0.000 F 
ATOM     28  F   UNL     1       6.391   5.223  16.677  0.00  0.00    +0.000 F 
ATOM     29  F   UNL     1       5.138   4.544  15.035  0.00  0.00    +0.000 F 
ENDBRANCH   9  26
TORSDOF 4
ENDMDL
MODEL 8
REMARK VINA RESULT:      -8.1      4.105      8.345
REMARK  Name = 
REMARK  6 active torsions:
REMARK  status: ('A' for Active; 'I' for Inactive)
REMARK    1  A    between atoms: C_1  and  C_2
REMARK    2  A    between atoms: C_2  and  C_3
REMARK    3  A    between atoms: C_2  and  C_24
REMARK    4  A    between atoms: C_7  and  N_8
REMARK    5  A    between atoms: C_16  and  C_17
REMARK    6  A    between atoms: N_28  and  C_29
REMARK                            x       y       z     vdW  Elec       q    Type
REMARK                         _______ _______ _______ _____ _____    ______ ____
ROOT
ATOM      1  N   UNL     1       0.394   9.323  20.698  0.00  0.00    +0.000 N 
ATOM      2  C   UNL     1      -0.889   9.235  19.965  0.00  0.00    +0.000 C 
ATOM      3  C   UNL     1      -1.018  10.619  19.386  0.00  0.00    +0.000 A 
ATOM      4  C   UNL     1      -0.293  11.485  20.215  0.00  0.00    +0.000 A 
ATOM      5  C   UNL     1      -0.087  12.813  19.912  0.00  0.00    +0.000 A 
ATOM      6  C   UNL     1      -0.614  13.265  18.713  0.00  0.00    +0.000 A 
ATOM      7  F   UNL     1      -0.375  14.525  18.324  0.00  0.00    +0.000 F 
ATOM      8  C   UNL     1      -1.320  12.413  17.850  0.00  0.00    +0.000 A 
ATOM      9  C   UNL     1      -1.532  11.057  18.172  0.00  0.00    +0.000 A 
ATOM     10  C   UNL     1       0.506  10.663  21.150  0.00  0.00    +0.000 C 
ATOM     11  O   UNL     1       1.265  11.124  21.981  0.00  0.00    +0.000 OA
ENDROOT
BRANCH   1  16
ATOM     12  C   UNL     1       2.489   6.795  19.029  0.00  0.00    +0.000 A 
ATOM     13  C   UNL     1       2.540   7.374  17.752  0.00  0.00    +0.000 A 
ATOM     14  C   UNL     1       2.221   8.715  17.568  0.00  0.00    +0.000 A 
ATOM     15  C   UNL     1       1.756   9.470  18.640  0.00  0.00    +0.000 A 
ATOM     16  C   UNL     1       1.481   8.842  19.865  0.00  0.00    +0.000 A 
ATOM     17  C   UNL     1       1.953   7.543  20.088  0.00  0.00    +0.000 A 
BRANCH  12  19
ATOM     18  C   UNL     1       2.533   4.874  20.621  0.00  0.00    +0.000 C 
ATOM     19  C   UNL     1       2.926   5.352  19.213  0.00  0.00    +0.000 C 
BRANCH  19  20
ATOM     20  C   UNL     1       4.390   5.106  18.929  0.00  0.00    +0.000 A 
ATOM     21  N   UNL     1       5.390   5.415  19.732  0.00  0.00    +0.000 NA
ATOM     22  N   UNL     1       6.553   4.953  19.163  0.00  0.00    +0.000 NA
ATOM     23  C   UNL     1       6.242   4.381  18.025  0.00  0.00    +0.000 A 
ATOM     24  N   UNL     1       4.901   4.483  17.822  0.00  0.00    +0.000 N 
ATOM     25  C   UNL     1       4.205   4.015  16.647  0.00  0.00    +0.000 C 
ENDBRANCH  19  20
ENDBRANCH  12  19
ENDBRANCH   1  16
BRANCH   9  26
ATOM     26  C   UNL     1      -2.189  10.156  17.156  0.00  0.00    +0.000 C 
ATOM     27  F   UNL     1      -3.248   9.452  17.636  0.00  0.00    +0.000 F 
ATOM     28  F   UNL     1      -2.657  10.845  16.083  0.00  0.00    +0.000 F 
ATOM     29  F   UNL     1      -1.323   9.227  16.658  0.00  0.00    +0.000 F 
ENDBRANCH   9  26
TORSDOF 4
ENDMDL
MODEL 9
REMARK VINA RESULT:      -8.1      4.195      8.146
REMARK  Name = 
REMARK  6 active torsions:
REMARK  status: ('A' for Active; 'I' for Inactive)
REMARK    1  A    between atoms: C_1  and  C_2
REMARK    2  A    between atoms: C_2  and  C_3
REMARK    3  A    between atoms: C_2  and  C_24
REMARK    4  A    between atoms: C_7  and  N_8
REMARK    5  A    between atoms: C_16  and  C_17
REMARK    6  A    between atoms: N_28  and  C_29
REMARK                            x       y       z     vdW  Elec       q    Type
REMARK                         _______ _______ _______ _____ _____    ______ ____
ROOT
ATOM      1  N   UNL     1       0.572   8.536  21.023  0.00  0.00    +0.000 N 
ATOM      2  C   UNL     1      -0.682   8.818  20.289  0.00  0.00    +0.000 C 
ATOM      3  C   UNL     1      -0.671  10.321  20.209  0.00  0.00    +0.000 A 
ATOM      4  C   UNL     1       0.089  10.789  21.290  0.00  0.00    +0.000 A 
ATOM      5  C   UNL     1       0.418  12.116  21.454  0.00  0.00    +0.000 A 
ATOM      6  C   UNL     1      -0.019  12.991  20.472  0.00  0.00    +0.000 A 
ATOM      7  F   UNL     1       0.340  14.279  20.532  0.00  0.00    +0.000 F 
ATOM      8  C   UNL     1      -0.758  12.546  19.365  0.00  0.00    +0.000 A 
ATOM      9  C   UNL     1      -1.096  11.186  19.207  0.00  0.00    +0.000 A 
ATOM     10  C   UNL     1       0.777   9.631  21.901  0.00  0.00    +0.000 C 
ATOM     11  O   UNL     1       1.536   9.715  22.848  0.00  0.00    +0.000 OA
ENDROOT
BRANCH   1  16
ATOM     12  C   UNL     1       2.734   6.443  18.900  0.00  0.00    +0.000 A 
ATOM     13  C   UNL     1       2.700   7.220  17.732  0.00  0.00    +0.000 A 
ATOM     14  C   UNL     1       2.298   8.552  17.779  0.00  0.00    +0.000 A 
ATOM     15  C   UNL     1       1.837   9.094  18.974  0.00  0.00    +0.000 A 
ATOM     16  C   UNL     1       1.649   8.262  20.089  0.00  0.00    +0.000 A 
ATOM     17  C   UNL     1       2.202   6.977  20.082  0.00  0.00    +0.000 A 
BRANCH  12  19
ATOM     18  C   UNL     1       4.135   4.854  17.581  0.00  0.00    +0.000 C 
ATOM     19  C   UNL     1       3.259   5.019  18.833  0.00  0.00    +0.000 C 
BRANCH  19  20
ATOM     20  C   UNL     1       2.185   3.958  18.906  0.00  0.00    +0.000 A 
ATOM     21  N   UNL     1       1.473   3.515  17.887  0.00  0.00    +0.000 NA
ATOM     22  N   UNL     1       0.670   2.495  18.338  0.00  0.00    +0.000 NA
ATOM     23  C   UNL     1       0.900   2.342  19.620  0.00  0.00    +0.000 A 
ATOM     24  N   UNL     1       1.818   3.259  20.025  0.00  0.00    +0.000 N 
ATOM     25  C   UNL     1       2.276   3.427  21.384  0.00  0.00    +0.000 C 
ENDBRANCH  19  20
ENDBRANCH  12  19
ENDBRANCH   1  16
BRANCH   9  26
ATOM     26  C   UNL     1      -1.782  10.741  17.941  0.00  0.00    +0.000 C 
ATOM     27  F   UNL     1      -1.057   9.872  17.188  0.00  0.00    +0.000 F 
ATOM     28  F   UNL     1      -2.966  10.120  18.187  0.00  0.00    +0.000 F 
ATOM     29  F   UNL     1      -2.072  11.790  17.119  0.00  0.00    +0.000 F 
ENDBRANCH   9  26
TORSDOF 4
ENDMDL
