MODEL 1
REMARK VINA RESULT:      -8.9      0.000      0.000
REMARK  Name = 
REMARK  6 active torsions:
REMARK  status: ('A' for Active; 'I' for Inactive)
REMARK    1  A    between atoms: C_2  and  C_3
REMARK    2  A    between atoms: C_3  and  S_4
REMARK    3  A    between atoms: S_4  and  C_5
REMARK    4  A    between atoms: N_15  and  C_16
REMARK    5  A    between atoms: C_16  and  C_17
REMARK    6  A    between atoms: C_16  and  C_23
REMARK                            x       y       z     vdW  Elec       q    Type
REMARK                         _______ _______ _______ _____ _____    ______ ____
ROOT
ATOM      1  O   UNL     1       2.367   8.635  17.143  0.00  0.00    +0.000 OA
ATOM      2  C   UNL     1       2.180   8.307  18.313  0.00  0.00    +0.000 C 
ATOM      3  N   UNL     1       2.489   7.056  18.792  0.00  0.00    +0.000 N 
ATOM      4  H   UNL     1       2.370   6.880  19.780  0.00  0.00    +0.000 HD
ENDROOT
BRANCH   2   5
ATOM      5  C   UNL     1       1.477   9.241  19.298  0.00  0.00    +0.000 C 
BRANCH   5   6
ATOM      6  S   UNL     1       1.433  10.972  18.701  0.00  0.00    +0.000 S 
BRANCH   6   7
ATOM      7  C   UNL     1      -0.221  11.475  19.208  0.00  0.00    +0.000 A 
ATOM      8  N   UNL     1      -0.272  12.291  20.279  0.00  0.00    +0.000 NA
ATOM      9  C   UNL     1      -1.487  12.736  20.616  0.00  0.00    +0.000 A 
ATOM     10  N   UNL     1      -2.635  12.453  19.991  0.00  0.00    +0.000 NA
ATOM     11  C   UNL     1      -2.566  11.641  18.931  0.00  0.00    +0.000 A 
ATOM     12  C   UNL     1      -3.747  11.342  18.261  0.00  0.00    +0.000 A 
ATOM     13  C   UNL     1      -3.775  10.496  17.151  0.00  0.00    +0.000 A 
ATOM     14  C   UNL     1      -2.595   9.930  16.693  0.00  0.00    +0.000 A 
ATOM     15  C   UNL     1      -1.395  10.224  17.342  0.00  0.00    +0.000 A 
ATOM     16  C   UNL     1      -1.362  11.089  18.470  0.00  0.00    +0.000 A 
ENDBRANCH   6   7
ENDBRANCH   5   6
ENDBRANCH   2   5
BRANCH   3  17
ATOM     17  C   UNL     1       3.074   5.990  17.990  0.00  0.00    +0.000 C 
BRANCH  17  18
ATOM     18  C   UNL     1       4.596   6.078  18.117  0.00  0.00    +0.000 A 
ATOM     19  C   UNL     1       5.383   6.779  17.189  0.00  0.00    +0.000 A 
ATOM     20  C   UNL     1       6.770   6.861  17.342  0.00  0.00    +0.000 A 
ATOM     21  C   UNL     1       7.397   6.210  18.402  0.00  0.00    +0.000 A 
ATOM     22  C   UNL     1       6.638   5.467  19.304  0.00  0.00    +0.000 A 
ATOM     23  C   UNL     1       5.248   5.401  19.164  0.00  0.00    +0.000 A 
ENDBRANCH  17  18
BRANCH  17  24
ATOM     24  C   UNL     1       2.480   4.616  18.339  0.00  0.00    +0.000 A 
ATOM     25  C   UNL     1       1.621   4.427  19.437  0.00  0.00    +0.000 A 
ATOM     26  C   UNL     1       1.063   3.176  19.714  0.00  0.00    +0.000 A 
ATOM     27  C   UNL     1       1.354   2.085  18.902  0.00  0.00    +0.000 A 
ATOM     28  C   UNL     1       2.207   2.243  17.814  0.00  0.00    +0.000 A 
ATOM     29  C   UNL     1       2.761   3.497  17.531  0.00  0.00    +0.000 A 
ENDBRANCH  17  24
ENDBRANCH   3  17
TORSDOF 6
ENDMDL
MODEL 2
REMARK VINA RESULT:      -8.9      0.127      1.292
REMARK  Name = 
REMARK  6 active torsions:
REMARK  status: ('A' for Active; 'I' for Inactive)
REMARK    1  A    between atoms: C_2  and  C_3
REMARK    2  A    between atoms: C_3  and  S_4
REMARK    3  A    between atoms: S_4  and  C_5
REMARK    4  A    between atoms: N_15  and  C_16
REMARK    5  A    between atoms: C_16  and  C_17
REMARK    6  A    between atoms: C_16  and  C_23
REMARK                            x       y       z     vdW  Elec       q    Type
REMARK                         _______ _______ _______ _____ _____    ______ ____
ROOT
ATOM      1  O   UNL     1       2.140   8.616  17.190  0.00  0.00    +0.000 OA
ATOM      2  C   UNL     1       2.084   8.328  18.384  0.00  0.00    +0.000 C 
ATOM      3  N   UNL     1       2.491   7.111  18.875  0.00  0.00    +0.000 N 
ATOM      4  H   UNL     1       2.478   6.971  19.876  0.00  0.00    +0.000 HD
ENDROOT
BRANCH   2   5
ATOM      5  C   UNL     1       1.444   9.275  19.401  0.00  0.00    +0.000 C 
BRANCH   5   6
ATOM      6  S   UNL     1       1.403  11.007  18.805  0.00  0.00    +0.000 S 
BRANCH   6   7
ATOM      7  C   UNL     1      -0.273  11.491  19.254  0.00  0.00    +0.000 A 
ATOM      8  N   UNL     1      -0.370  12.318  20.313  0.00  0.00    +0.000 NA
ATOM      9  C   UNL     1      -1.601  12.749  20.605  0.00  0.00    +0.000 A 
ATOM     10  N   UNL     1      -2.725  12.442  19.948  0.00  0.00    +0.000 NA
ATOM     11  C   UNL     1      -2.611  11.619  18.901  0.00  0.00    +0.000 A 
ATOM     12  C   UNL     1      -3.766  11.294  18.198  0.00  0.00    +0.000 A 
ATOM     13  C   UNL     1      -3.746  10.436  17.098  0.00  0.00    +0.000 A 
ATOM     14  C   UNL     1      -2.545   9.882  16.684  0.00  0.00    +0.000 A 
ATOM     15  C   UNL     1      -1.370  10.202  17.367  0.00  0.00    +0.000 A 
ATOM     16  C   UNL     1      -1.385  11.079  18.485  0.00  0.00    +0.000 A 
ENDBRANCH   6   7
ENDBRANCH   5   6
ENDBRANCH   2   5
BRANCH   3  17
ATOM     17  C   UNL     1       3.037   6.036  18.058  0.00  0.00    +0.000 C 
BRANCH  17  18
ATOM     18  C   UNL     1       4.562   6.079  18.171  0.00  0.00    +0.000 A 
ATOM     19  C   UNL     1       5.254   5.411  19.194  0.00  0.00    +0.000 A 
ATOM     20  C   UNL     1       6.650   5.449  19.260  0.00  0.00    +0.000 A 
ATOM     21  C   UNL     1       7.374   6.189  18.329  0.00  0.00    +0.000 A 
ATOM     22  C   UNL     1       6.703   6.901  17.337  0.00  0.00    +0.000 A 
ATOM     23  C   UNL     1       5.308   6.847  17.258  0.00  0.00    +0.000 A 
ENDBRANCH  17  18
BRANCH  17  24
ATOM     24  C   UNL     1       2.407   4.676  18.400  0.00  0.00    +0.000 A 
ATOM     25  C   UNL     1       2.589   3.540  17.591  0.00  0.00    +0.000 A 
ATOM     26  C   UNL     1       2.036   2.305  17.941  0.00  0.00    +0.000 A 
ATOM     27  C   UNL     1       1.288   2.179  19.105  0.00  0.00    +0.000 A 
ATOM     28  C   UNL     1       1.085   3.289  19.920  0.00  0.00    +0.000 A 
ATOM     29  C   UNL     1       1.643   4.525  19.574  0.00  0.00    +0.000 A 
ENDBRANCH  17  24
ENDBRANCH   3  17
TORSDOF 6
ENDMDL
MODEL 3
REMARK VINA RESULT:      -8.9      2.006      8.471
REMARK  Name = 
REMARK  6 active torsions:
REMARK  status: ('A' for Active; 'I' for Inactive)
REMARK    1  A    between atoms: C_2  and  C_3
REMARK    2  A    between atoms: C_3  and  S_4
REMARK    3  A    between atoms: S_4  and  C_5
REMARK    4  A    between atoms: N_15  and  C_16
REMARK    5  A    between atoms: C_16  and  C_17
REMARK    6  A    between atoms: C_16  and  C_23
REMARK                            x       y       z     vdW  Elec       q    Type
REMARK                         _______ _______ _______ _____ _____    ______ ____
ROOT
ATOM      1  O   UNL     1       2.378  10.790  18.070  0.00  0.00    +0.000 OA
ATOM      2  C   UNL     1       1.775   9.720  18.013  0.00  0.00    +0.000 C 
ATOM      3  N   UNL     1       0.468   9.581  18.415  0.00  0.00    +0.000 N 
ATOM      4  H   UNL     1       0.018   8.687  18.276  0.00  0.00    +0.000 HD
ENDROOT
BRANCH   2   5
ATOM      5  C   UNL     1       2.482   8.431  17.594  0.00  0.00    +0.000 C 
BRANCH   5   6
ATOM      6  S   UNL     1       2.617   7.235  18.975  0.00  0.00    +0.000 S 
BRANCH   6   7
ATOM      7  C   UNL     1       3.156   5.753  18.103  0.00  0.00    +0.000 A 
ATOM      8  N   UNL     1       4.196   5.924  17.264  0.00  0.00    +0.000 NA
ATOM      9  C   UNL     1       4.656   4.817  16.672  0.00  0.00    +0.000 A 
ATOM     10  N   UNL     1       4.188   3.576  16.841  0.00  0.00    +0.000 NA
ATOM     11  C   UNL     1       3.156   3.424  17.676  0.00  0.00    +0.000 A 
ATOM     12  C   UNL     1       2.660   2.141  17.874  0.00  0.00    +0.000 A 
ATOM     13  C   UNL     1       1.578   1.886  18.719  0.00  0.00    +0.000 A 
ATOM     14  C   UNL     1       0.970   2.938  19.387  0.00  0.00    +0.000 A 
ATOM     15  C   UNL     1       1.457   4.234  19.213  0.00  0.00    +0.000 A 
ATOM     16  C   UNL     1       2.561   4.497  18.358  0.00  0.00    +0.000 A 
ENDBRANCH   6   7
ENDBRANCH   5   6
ENDBRANCH   2   5
BRANCH   3  17
ATOM     17  C   UNL     1      -0.351  10.667  18.937  0.00  0.00    +0.000 C 
BRANCH  17  18
ATOM     18  C   UNL     1      -1.665  10.692  18.155  0.00  0.00    +0.000 A 
ATOM     19  C   UNL     1      -1.894   9.853  17.052  0.00  0.00    +0.000 A 
ATOM     20  C   UNL     1      -3.113   9.882  16.369  0.00  0.00    +0.000 A 
ATOM     21  C   UNL     1      -4.108  10.778  16.752  0.00  0.00    +0.000 A 
ATOM     22  C   UNL     1      -3.881  11.655  17.811  0.00  0.00    +0.000 A 
ATOM     23  C   UNL     1      -2.669  11.613  18.508  0.00  0.00    +0.000 A 
ENDBRANCH  17  18
BRANCH  17  24
ATOM     24  C   UNL     1      -0.515  10.580  20.464  0.00  0.00    +0.000 A 
ATOM     25  C   UNL     1      -0.872  11.694  21.244  0.00  0.00    +0.000 A 
ATOM     26  C   UNL     1      -1.051  11.584  22.626  0.00  0.00    +0.000 A 
ATOM     27  C   UNL     1      -0.875  10.359  23.258  0.00  0.00    +0.000 A 
ATOM     28  C   UNL     1      -0.514   9.241  22.510  0.00  0.00    +0.000 A 
ATOM     29  C   UNL     1      -0.340   9.349  21.126  0.00  0.00    +0.000 A 
ENDBRANCH  17  24
ENDBRANCH   3  17
TORSDOF 6
ENDMDL
MODEL 4
REMARK VINA RESULT:      -8.9      1.992      8.507
REMARK  Name = 
REMARK  6 active torsions:
REMARK  status: ('A' for Active; 'I' for Inactive)
REMARK    1  A    between atoms: C_2  and  C_3
REMARK    2  A    between atoms: C_3  and  S_4
REMARK    3  A    between atoms: S_4  and  C_5
REMARK    4  A    between atoms: N_15  and  C_16
REMARK    5  A    between atoms: C_16  and  C_17
REMARK    6  A    between atoms: C_16  and  C_23
REMARK                            x       y       z     vdW  Elec       q    Type
REMARK                         _______ _______ _______ _____ _____    ______ ____
ROOT
ATOM      1  O   UNL     1       2.358  10.793  18.109  0.00  0.00    +0.000 OA
ATOM      2  C   UNL     1       1.745   9.731  18.019  0.00  0.00    +0.000 C 
ATOM      3  N   UNL     1       0.428   9.599  18.389  0.00  0.00    +0.000 N 
ATOM      4  H   UNL     1      -0.028   8.712  18.223  0.00  0.00    +0.000 HD
ENDROOT
BRANCH   2   5
ATOM      5  C   UNL     1       2.448   8.441  17.593  0.00  0.00    +0.000 C 
BRANCH   5   6
ATOM      6  S   UNL     1       2.635   7.262  18.982  0.00  0.00    +0.000 S 
BRANCH   6   7
ATOM      7  C   UNL     1       3.177   5.780  18.112  0.00  0.00    +0.000 A 
ATOM      8  N   UNL     1       4.224   5.949  17.281  0.00  0.00    +0.000 NA
ATOM      9  C   UNL     1       4.686   4.842  16.692  0.00  0.00    +0.000 A 
ATOM     10  N   UNL     1       4.213   3.602  16.856  0.00  0.00    +0.000 NA
ATOM     11  C   UNL     1       3.173   3.452  17.682  0.00  0.00    +0.000 A 
ATOM     12  C   UNL     1       2.672   2.169  17.874  0.00  0.00    +0.000 A 
ATOM     13  C   UNL     1       1.583   1.917  18.710  0.00  0.00    +0.000 A 
ATOM     14  C   UNL     1       0.973   2.969  19.375  0.00  0.00    +0.000 A 
ATOM     15  C   UNL     1       1.465   4.264  19.207  0.00  0.00    +0.000 A 
ATOM     16  C   UNL     1       2.577   4.525  18.360  0.00  0.00    +0.000 A 
ENDBRANCH   6   7
ENDBRANCH   5   6
ENDBRANCH   2   5
BRANCH   3  17
ATOM     17  C   UNL     1      -0.391  10.684  18.912  0.00  0.00    +0.000 C 
BRANCH  17  18
ATOM     18  C   UNL     1      -1.691  10.730  18.109  0.00  0.00    +0.000 A 
ATOM     19  C   UNL     1      -2.769  11.552  18.478  0.00  0.00    +0.000 A 
ATOM     20  C   UNL     1      -3.937  11.591  17.712  0.00  0.00    +0.000 A 
ATOM     21  C   UNL     1      -4.064  10.778  16.588  0.00  0.00    +0.000 A 
ATOM     22  C   UNL     1      -3.027   9.918  16.235  0.00  0.00    +0.000 A 
ATOM     23  C   UNL     1      -1.850   9.893  16.988  0.00  0.00    +0.000 A 
ENDBRANCH  17  18
BRANCH  17  24
ATOM     24  C   UNL     1      -0.581  10.577  20.434  0.00  0.00    +0.000 A 
ATOM     25  C   UNL     1      -0.345   9.382  21.138  0.00  0.00    +0.000 A 
ATOM     26  C   UNL     1      -0.490   9.318  22.526  0.00  0.00    +0.000 A 
ATOM     27  C   UNL     1      -0.875  10.446  23.242  0.00  0.00    +0.000 A 
ATOM     28  C   UNL     1      -1.122  11.639  22.570  0.00  0.00    +0.000 A 
ATOM     29  C   UNL     1      -0.971  11.707  21.180  0.00  0.00    +0.000 A 
ENDBRANCH  17  24
ENDBRANCH   3  17
TORSDOF 6
ENDMDL
MODEL 5
REMARK VINA RESULT:      -8.8      1.577      4.069
REMARK  Name = 
REMARK  6 active torsions:
REMARK  status: ('A' for Active; 'I' for Inactive)
REMARK    1  A    between atoms: C_2  and  C_3
REMARK    2  A    between atoms: C_3  and  S_4
REMARK    3  A    between atoms: S_4  and  C_5
REMARK    4  A    between atoms: N_15  and  C_16
REMARK    5  A    between atoms: C_16  and  C_17
REMARK    6  A    between atoms: C_16  and  C_23
REMARK                            x       y       z     vdW  Elec       q    Type
REMARK                         _______ _______ _______ _____ _____    ______ ____
ROOT
ATOM      1  O   UNL     1       1.817   8.186  20.099  0.00  0.00    +0.000 OA
ATOM      2  C   UNL     1       1.946   8.183  18.877  0.00  0.00    +0.000 C 
ATOM      3  N   UNL     1       2.737   7.275  18.215  0.00  0.00    +0.000 N 
ATOM      4  H   UNL     1       2.740   7.292  17.204  0.00  0.00    +0.000 HD
ENDROOT
BRANCH   2   5
ATOM      5  C   UNL     1       1.317   9.274  18.009  0.00  0.00    +0.000 C 
BRANCH   5   6
ATOM      6  S   UNL     1       0.569  10.612  19.012  0.00  0.00    +0.000 S 
BRANCH   6   7
ATOM      7  C   UNL     1      -1.095  10.676  18.324  0.00  0.00    +0.000 A 
ATOM      8  N   UNL     1      -1.299   9.906  17.237  0.00  0.00    +0.000 NA
ATOM      9  C   UNL     1      -2.549   9.882  16.766  0.00  0.00    +0.000 A 
ATOM     10  N   UNL     1      -3.599  10.537  17.272  0.00  0.00    +0.000 NA
ATOM     11  C   UNL     1      -3.379  11.297  18.350  0.00  0.00    +0.000 A 
ATOM     12  C   UNL     1      -4.459  11.979  18.899  0.00  0.00    +0.000 A 
ATOM     13  C   UNL     1      -4.324  12.803  20.017  0.00  0.00    +0.000 A 
ATOM     14  C   UNL     1      -3.079  12.956  20.607  0.00  0.00    +0.000 A 
ATOM     15  C   UNL     1      -1.982  12.272  20.082  0.00  0.00    +0.000 A 
ATOM     16  C   UNL     1      -2.116  11.428  18.946  0.00  0.00    +0.000 A 
ENDBRANCH   6   7
ENDBRANCH   5   6
ENDBRANCH   2   5
BRANCH   3  17
ATOM     17  C   UNL     1       3.496   6.218  18.867  0.00  0.00    +0.000 C 
BRANCH  17  18
ATOM     18  C   UNL     1       2.542   5.061  19.171  0.00  0.00    +0.000 A 
ATOM     19  C   UNL     1       2.161   4.732  20.482  0.00  0.00    +0.000 A 
ATOM     20  C   UNL     1       1.270   3.684  20.728  0.00  0.00    +0.000 A 
ATOM     21  C   UNL     1       0.776   2.922  19.672  0.00  0.00    +0.000 A 
ATOM     22  C   UNL     1       1.182   3.201  18.369  0.00  0.00    +0.000 A 
ATOM     23  C   UNL     1       2.058   4.262  18.119  0.00  0.00    +0.000 A 
ENDBRANCH  17  18
BRANCH  17  24
ATOM     24  C   UNL     1       4.744   5.824  18.059  0.00  0.00    +0.000 A 
ATOM     25  C   UNL     1       5.850   5.188  18.651  0.00  0.00    +0.000 A 
ATOM     26  C   UNL     1       6.959   4.806  17.890  0.00  0.00    +0.000 A 
ATOM     27  C   UNL     1       6.987   5.053  16.522  0.00  0.00    +0.000 A 
ATOM     28  C   UNL     1       5.908   5.688  15.913  0.00  0.00    +0.000 A 
ATOM     29  C   UNL     1       4.795   6.066  16.673  0.00  0.00    +0.000 A 
ENDBRANCH  17  24
ENDBRANCH   3  17
TORSDOF 6
ENDMDL
MODEL 6
REMARK VINA RESULT:      -8.5      2.111      8.663
REMARK  Name = 
REMARK  6 active torsions:
REMARK  status: ('A' for Active; 'I' for Inactive)
REMARK    1  A    between atoms: C_2  and  C_3
REMARK    2  A    between atoms: C_3  and  S_4
REMARK    3  A    between atoms: S_4  and  C_5
REMARK    4  A    between atoms: N_15  and  C_16
REMARK    5  A    between atoms: C_16  and  C_17
REMARK    6  A    between atoms: C_16  and  C_23
REMARK                            x       y       z     vdW  Elec       q    Type
REMARK                         _______ _______ _______ _____ _____    ______ ____
ROOT
ATOM      1  O   UNL     1       2.345  10.720  17.929  0.00  0.00    +0.000 OA
ATOM      2  C   UNL     1       1.753   9.643  17.962  0.00  0.00    +0.000 C 
ATOM      3  N   UNL     1       0.472   9.514  18.442  0.00  0.00    +0.000 N 
ATOM      4  H   UNL     1       0.025   8.609  18.375  0.00  0.00    +0.000 HD
ENDROOT
BRANCH   2   5
ATOM      5  C   UNL     1       2.451   8.339  17.573  0.00  0.00    +0.000 C 
BRANCH   5   6
ATOM      6  S   UNL     1       2.648   7.206  18.999  0.00  0.00    +0.000 S 
BRANCH   6   7
ATOM      7  C   UNL     1       3.081   5.668  18.166  0.00  0.00    +0.000 A 
ATOM      8  N   UNL     1       2.105   4.740  18.125  0.00  0.00    +0.000 NA
ATOM      9  C   UNL     1       2.387   3.628  17.440  0.00  0.00    +0.000 A 
ATOM     10  N   UNL     1       3.529   3.361  16.798  0.00  0.00    +0.000 NA
ATOM     11  C   UNL     1       4.487   4.292  16.850  0.00  0.00    +0.000 A 
ATOM     12  C   UNL     1       5.679   4.039  16.181  0.00  0.00    +0.000 A 
ATOM     13  C   UNL     1       6.739   4.947  16.187  0.00  0.00    +0.000 A 
ATOM     14  C   UNL     1       6.612   6.141  16.880  0.00  0.00    +0.000 A 
ATOM     15  C   UNL     1       5.421   6.423  17.549  0.00  0.00    +0.000 A 
ATOM     16  C   UNL     1       4.337   5.503  17.542  0.00  0.00    +0.000 A 
ENDBRANCH   6   7
ENDBRANCH   5   6
ENDBRANCH   2   5
BRANCH   3  17
ATOM     17  C   UNL     1      -0.330  10.618  18.950  0.00  0.00    +0.000 C 
BRANCH  17  18
ATOM     18  C   UNL     1      -1.639  10.661  18.160  0.00  0.00    +0.000 A 
ATOM     19  C   UNL     1      -1.840   9.888  17.005  0.00  0.00    +0.000 A 
ATOM     20  C   UNL     1      -3.055   9.931  16.314  0.00  0.00    +0.000 A 
ATOM     21  C   UNL     1      -4.074  10.777  16.744  0.00  0.00    +0.000 A 
ATOM     22  C   UNL     1      -3.875  11.590  17.858  0.00  0.00    +0.000 A 
ATOM     23  C   UNL     1      -2.668  11.534  18.561  0.00  0.00    +0.000 A 
ENDBRANCH  17  18
BRANCH  17  24
ATOM     24  C   UNL     1      -0.505  10.547  20.476  0.00  0.00    +0.000 A 
ATOM     25  C   UNL     1      -0.888  11.664  21.240  0.00  0.00    +0.000 A 
ATOM     26  C   UNL     1      -1.076  11.567  22.622  0.00  0.00    +0.000 A 
ATOM     27  C   UNL     1      -0.883  10.352  23.270  0.00  0.00    +0.000 A 
ATOM     28  C   UNL     1      -0.496   9.233  22.539  0.00  0.00    +0.000 A 
ATOM     29  C   UNL     1      -0.313   9.327  21.154  0.00  0.00    +0.000 A 
ENDBRANCH  17  24
ENDBRANCH   3  17
TORSDOF 6
ENDMDL
MODEL 7
REMARK VINA RESULT:      -8.4      1.027      2.175
REMARK  Name = 
REMARK  6 active torsions:
REMARK  status: ('A' for Active; 'I' for Inactive)
REMARK    1  A    between atoms: C_2  and  C_3
REMARK    2  A    between atoms: C_3  and  S_4
REMARK    3  A    between atoms: S_4  and  C_5
REMARK    4  A    between atoms: N_15  and  C_16
REMARK    5  A    between atoms: C_16  and  C_17
REMARK    6  A    between atoms: C_16  and  C_23
REMARK                            x       y       z     vdW  Elec       q    Type
REMARK                         _______ _______ _______ _____ _____    ______ ____
ROOT
ATOM      1  O   UNL     1       2.343   8.629  17.213  0.00  0.00    +0.000 OA
ATOM      2  C   UNL     1       2.177   8.270  18.376  0.00  0.00    +0.000 C 
ATOM      3  N   UNL     1       2.514   7.014  18.821  0.00  0.00    +0.000 N 
ATOM      4  H   UNL     1       2.411   6.813  19.807  0.00  0.00    +0.000 HD
ENDROOT
BRANCH   2   5
ATOM      5  C   UNL     1       1.470   9.168  19.393  0.00  0.00    +0.000 C 
BRANCH   5   6
ATOM      6  S   UNL     1       1.258  10.879  18.776  0.00  0.00    +0.000 S 
BRANCH   6   7
ATOM      7  C   UNL     1      -0.518  10.925  18.475  0.00  0.00    +0.000 A 
ATOM      8  N   UNL     1      -0.969  10.053  17.552  0.00  0.00    +0.000 NA
ATOM      9  C   UNL     1      -2.294  10.021  17.379  0.00  0.00    +0.000 A 
ATOM     10  N   UNL     1      -3.196  10.759  18.033  0.00  0.00    +0.000 NA
ATOM     11  C   UNL     1      -2.732  11.620  18.945  0.00  0.00    +0.000 A 
ATOM     12  C   UNL     1      -3.654  12.391  19.644  0.00  0.00    +0.000 A 
ATOM     13  C   UNL     1      -3.262  13.323  20.606  0.00  0.00    +0.000 A 
ATOM     14  C   UNL     1      -1.915  13.495  20.882  0.00  0.00    +0.000 A 
ATOM     15  C   UNL     1      -0.971  12.725  20.202  0.00  0.00    +0.000 A 
ATOM     16  C   UNL     1      -1.365  11.771  19.224  0.00  0.00    +0.000 A 
ENDBRANCH   6   7
ENDBRANCH   5   6
ENDBRANCH   2   5
BRANCH   3  17
ATOM     17  C   UNL     1       3.108   5.978  17.987  0.00  0.00    +0.000 C 
BRANCH  17  18
ATOM     18  C   UNL     1       4.628   6.065  18.129  0.00  0.00    +0.000 A 
ATOM     19  C   UNL     1       5.317   5.442  19.182  0.00  0.00    +0.000 A 
ATOM     20  C   UNL     1       6.709   5.519  19.275  0.00  0.00    +0.000 A 
ATOM     21  C   UNL     1       7.433   6.254  18.339  0.00  0.00    +0.000 A 
ATOM     22  C   UNL     1       6.763   6.921  17.315  0.00  0.00    +0.000 A 
ATOM     23  C   UNL     1       5.372   6.828  17.210  0.00  0.00    +0.000 A 
ENDBRANCH  17  18
BRANCH  17  24
ATOM     24  C   UNL     1       2.514   4.591  18.283  0.00  0.00    +0.000 A 
ATOM     25  C   UNL     1       1.599   4.375  19.329  0.00  0.00    +0.000 A 
ATOM     26  C   UNL     1       1.044   3.113  19.557  0.00  0.00    +0.000 A 
ATOM     27  C   UNL     1       1.393   2.039  18.746  0.00  0.00    +0.000 A 
ATOM     28  C   UNL     1       2.302   2.224  17.709  0.00  0.00    +0.000 A 
ATOM     29  C   UNL     1       2.854   3.488  17.475  0.00  0.00    +0.000 A 
ENDBRANCH  17  24
ENDBRANCH   3  17
TORSDOF 6
ENDMDL
MODEL 8
REMARK VINA RESULT:      -8.4      2.069      2.837
REMARK  Name = 
REMARK  6 active torsions:
REMARK  status: ('A' for Active; 'I' for Inactive)
REMARK    1  A    between atoms: C_2  and  C_3
REMARK    2  A    between atoms: C_3  and  S_4
REMARK    3  A    between atoms: S_4  and  C_5
REMARK    4  A    between atoms: N_15  and  C_16
REMARK    5  A    between atoms: C_16  and  C_17
REMARK    6  A    between atoms: C_16  and  C_23
REMARK                            x       y       z     vdW  Elec       q    Type
REMARK                         _______ _______ _______ _____ _____    ______ ____
ROOT
ATOM      1  O   UNL     1       2.704   8.595  16.828  0.00  0.00    +0.000 OA
ATOM      2  C   UNL     1       2.508   8.482  18.036  0.00  0.00    +0.000 C 
ATOM      3  N   UNL     1       2.531   7.269  18.682  0.00  0.00    +0.000 N 
ATOM      4  H   UNL     1       2.428   7.261  19.688  0.00  0.00    +0.000 HD
ENDROOT
BRANCH   2   5
ATOM      5  C   UNL     1       2.109   9.684  18.894  0.00  0.00    +0.000 C 
BRANCH   5   6
ATOM      6  S   UNL     1       0.299   9.967  18.890  0.00  0.00    +0.000 S 
BRANCH   6   7
ATOM      7  C   UNL     1      -0.039  10.091  20.655  0.00  0.00    +0.000 A 
ATOM      8  N   UNL     1       0.597   9.190  21.429  0.00  0.00    +0.000 NA
ATOM      9  C   UNL     1       0.418   9.323  22.746  0.00  0.00    +0.000 A 
ATOM     10  N   UNL     1      -0.318  10.259  23.355  0.00  0.00    +0.000 NA
ATOM     11  C   UNL     1      -0.943  11.145  22.573  0.00  0.00    +0.000 A 
ATOM     12  C   UNL     1      -1.706  12.132  23.185  0.00  0.00    +0.000 A 
ATOM     13  C   UNL     1      -2.402  13.093  22.451  0.00  0.00    +0.000 A 
ATOM     14  C   UNL     1      -2.340  13.072  21.066  0.00  0.00    +0.000 A 
ATOM     15  C   UNL     1      -1.571  12.098  20.428  0.00  0.00    +0.000 A 
ATOM     16  C   UNL     1      -0.857  11.120  21.173  0.00  0.00    +0.000 A 
ENDBRANCH   6   7
ENDBRANCH   5   6
ENDBRANCH   2   5
BRANCH   3  17
ATOM     17  C   UNL     1       2.794   5.994  18.028  0.00  0.00    +0.000 C 
BRANCH  17  18
ATOM     18  C   UNL     1       4.308   5.841  17.875  0.00  0.00    +0.000 A 
ATOM     19  C   UNL     1       4.946   5.933  16.627  0.00  0.00    +0.000 A 
ATOM     20  C   UNL     1       6.334   5.811  16.519  0.00  0.00    +0.000 A 
ATOM     21  C   UNL     1       7.103   5.553  17.651  0.00  0.00    +0.000 A 
ATOM     22  C   UNL     1       6.484   5.408  18.891  0.00  0.00    +0.000 A 
ATOM     23  C   UNL     1       5.098   5.550  19.003  0.00  0.00    +0.000 A 
ENDBRANCH  17  18
BRANCH  17  24
ATOM     24  C   UNL     1       2.101   4.825  18.746  0.00  0.00    +0.000 A 
ATOM     25  C   UNL     1       1.781   3.624  18.088  0.00  0.00    +0.000 A 
ATOM     26  C   UNL     1       1.183   2.560  18.769  0.00  0.00    +0.000 A 
ATOM     27  C   UNL     1       0.890   2.675  20.124  0.00  0.00    +0.000 A 
ATOM     28  C   UNL     1       1.189   3.855  20.798  0.00  0.00    +0.000 A 
ATOM     29  C   UNL     1       1.794   4.919  20.118  0.00  0.00    +0.000 A 
ENDBRANCH  17  24
ENDBRANCH   3  17
TORSDOF 6
ENDMDL
MODEL 9
REMARK VINA RESULT:      -8.3      1.686      4.004
REMARK  Name = 
REMARK  6 active torsions:
REMARK  status: ('A' for Active; 'I' for Inactive)
REMARK    1  A    between atoms: C_2  and  C_3
REMARK    2  A    between atoms: C_3  and  S_4
REMARK    3  A    between atoms: S_4  and  C_5
REMARK    4  A    between atoms: N_15  and  C_16
REMARK    5  A    between atoms: C_16  and  C_17
REMARK    6  A    between atoms: C_16  and  C_23
REMARK                            x       y       z     vdW  Elec       q    Type
REMARK                         _______ _______ _______ _____ _____    ______ ____
ROOT
ATOM      1  O   UNL     1       2.046   7.964  19.976  0.00  0.00    +0.000 OA
ATOM      2  C   UNL     1       2.120   8.028  18.750  0.00  0.00    +0.000 C 
ATOM      3  N   UNL     1       2.872   7.152  18.005  0.00  0.00    +0.000 N 
ATOM      4  H   UNL     1       2.831   7.225  16.997  0.00  0.00    +0.000 HD
ENDROOT
BRANCH   2   5
ATOM      5  C   UNL     1       1.464   9.170  17.972  0.00  0.00    +0.000 C 
BRANCH   5   6
ATOM      6  S   UNL     1       0.676  10.399  19.079  0.00  0.00    +0.000 S 
BRANCH   6   7
ATOM      7  C   UNL     1      -0.961  10.536  18.339  0.00  0.00    +0.000 A 
ATOM      8  N   UNL     1      -1.153   9.804  17.225  0.00  0.00    +0.000 NA
ATOM      9  C   UNL     1      -2.388   9.833  16.713  0.00  0.00    +0.000 A 
ATOM     10  N   UNL     1      -3.432  10.509  17.203  0.00  0.00    +0.000 NA
ATOM     11  C   UNL     1      -3.224  11.231  18.309  0.00  0.00    +0.000 A 
ATOM     12  C   UNL     1      -4.299  11.934  18.841  0.00  0.00    +0.000 A 
ATOM     13  C   UNL     1      -4.175  12.722  19.986  0.00  0.00    +0.000 A 
ATOM     14  C   UNL     1      -2.946  12.817  20.621  0.00  0.00    +0.000 A 
ATOM     15  C   UNL     1      -1.855  12.112  20.112  0.00  0.00    +0.000 A 
ATOM     16  C   UNL     1      -1.978  11.304  18.949  0.00  0.00    +0.000 A 
ENDBRANCH   6   7
ENDBRANCH   5   6
ENDBRANCH   2   5
BRANCH   3  17
ATOM     17  C   UNL     1       3.651   6.056  18.564  0.00  0.00    +0.000 C 
BRANCH  17  18
ATOM     18  C   UNL     1       2.682   4.946  18.978  0.00  0.00    +0.000 A 
ATOM     19  C   UNL     1       1.767   4.378  18.077  0.00  0.00    +0.000 A 
ATOM     20  C   UNL     1       0.909   3.350  18.478  0.00  0.00    +0.000 A 
ATOM     21  C   UNL     1       0.923   2.901  19.796  0.00  0.00    +0.000 A 
ATOM     22  C   UNL     1       1.788   3.487  20.718  0.00  0.00    +0.000 A 
ATOM     23  C   UNL     1       2.661   4.501  20.313  0.00  0.00    +0.000 A 
ENDBRANCH  17  18
BRANCH  17  24
ATOM     24  C   UNL     1       4.773   5.605  17.615  0.00  0.00    +0.000 A 
ATOM     25  C   UNL     1       4.636   4.492  16.766  0.00  0.00    +0.000 A 
ATOM     26  C   UNL     1       5.656   4.122  15.885  0.00  0.00    +0.000 A 
ATOM     27  C   UNL     1       6.836   4.855  15.835  0.00  0.00    +0.000 A 
ATOM     28  C   UNL     1       7.001   5.956  16.670  0.00  0.00    +0.000 A 
ATOM     29  C   UNL     1       5.978   6.332  17.548  0.00  0.00    +0.000 A 
ENDBRANCH  17  24
ENDBRANCH   3  17
TORSDOF 6
ENDMDL
