MODEL 1
REMARK VINA RESULT:     -10.6      0.000      0.000
REMARK  Name = 
REMARK  4 active torsions:
REMARK  status: ('A' for Active; 'I' for Inactive)
REMARK    1  A    between atoms: C_2  and  C_3
REMARK    2  A    between atoms: C_7  and  C_8
REMARK    3  A    between atoms: C_8  and  N_9
REMARK    4  A    between atoms: C_24  and  C_25
REMARK                            x       y       z     vdW  Elec       q    Type
REMARK                         _______ _______ _______ _____ _____    ______ ____
ROOT
ATOM      1  C   UNL     1       1.903   8.808  18.902  0.00  0.00    +0.000 A 
ATOM      2  C   UNL     1       1.434   8.263  20.103  0.00  0.00    +0.000 A 
ATOM      3  C   UNL     1       1.890   7.028  20.555  0.00  0.00    +0.000 A 
ATOM      4  C   UNL     1       2.669   6.236  19.720  0.00  0.00    +0.000 A 
ATOM      5  C   UNL     1       3.005   6.672  18.429  0.00  0.00    +0.000 A 
ATOM      6  C   UNL     1       2.686   7.993  18.063  0.00  0.00    +0.000 A 
ENDROOT
BRANCH   1   8
ATOM      7  O   UNL     1       2.301  10.701  17.608  0.00  0.00    +0.000 OA
ATOM      8  C   UNL     1       1.530  10.178  18.411  0.00  0.00    +0.000 C 
ATOM      9  N   UNL     1       0.365  10.839  18.860  0.00  0.00    +0.000 N 
ATOM     10  C   UNL     1      -0.081  11.986  18.064  0.00  0.00    +0.000 C 
ATOM     11  C   UNL     1      -0.907  12.995  18.863  0.00  0.00    +0.000 C 
ATOM     12  C   UNL     1      -2.032  12.354  19.678  0.00  0.00    +0.000 C 
ATOM     13  C   UNL     1      -1.470  11.214  20.522  0.00  0.00    +0.000 C 
ATOM     14  C   UNL     1      -0.646  10.226  19.714  0.00  0.00    +0.000 C 
BRANCH  12  15
ATOM     15  C   UNL     1      -3.184  11.911  18.823  0.00  0.00    +0.000 A 
ATOM     16  N   UNL     1      -3.110  11.447  17.588  0.00  0.00    +0.000 NA
ATOM     17  N   UNL     1      -4.370  11.110  17.172  0.00  0.00    +0.000 NA
ATOM     18  C   UNL     1      -5.210  11.381  18.148  0.00  0.00    +0.000 A 
ATOM     19  C   UNL     1      -6.614  11.241  18.273  0.00  0.00    +0.000 A 
ATOM     20  C   UNL     1      -7.219  11.600  19.424  0.00  0.00    +0.000 A 
ATOM     21  C   UNL     1      -6.456  12.136  20.542  0.00  0.00    +0.000 A 
ATOM     22  C   UNL     1      -5.125  12.276  20.417  0.00  0.00    +0.000 A 
ATOM     23  N   UNL     1      -4.506  11.899  19.227  0.00  0.00    +0.000 N 
ENDBRANCH  12  15
ENDBRANCH   1   8
BRANCH   5  24
ATOM     24  C   UNL     1       3.727   5.738  17.454  0.00  0.00    +0.000 C 
BRANCH  24  25
ATOM     25  N   UNL     1       3.398   4.358  17.728  0.00  0.00    +0.000 N 
ATOM     26  C   UNL     1       2.072   4.020  17.822  0.00  0.00    +0.000 C 
ATOM     27  O   UNL     1       1.136   4.369  17.127  0.00  0.00    +0.000 OA
ATOM     28  C   UNL     1       1.936   3.311  19.088  0.00  0.00    +0.000 A 
ATOM     29  C   UNL     1       0.815   3.255  19.892  0.00  0.00    +0.000 A 
ATOM     30  C   UNL     1       1.019   2.944  21.237  0.00  0.00    +0.000 A 
ATOM     31  C   UNL     1       2.313   2.670  21.732  0.00  0.00    +0.000 A 
ATOM     32  C   UNL     1       3.431   2.732  20.897  0.00  0.00    +0.000 A 
ATOM     33  C   UNL     1       3.207   3.079  19.581  0.00  0.00    +0.000 A 
ATOM     34  C   UNL     1       4.156   3.684  18.652  0.00  0.00    +0.000 C 
ATOM     35  O   UNL     1       5.362   3.697  18.812  0.00  0.00    +0.000 OA
ENDBRANCH  24  25
ENDBRANCH   5  24
TORSDOF 4
ENDMDL
MODEL 2
REMARK VINA RESULT:     -10.4      1.939      3.384
REMARK  Name = 
REMARK  4 active torsions:
REMARK  status: ('A' for Active; 'I' for Inactive)
REMARK    1  A    between atoms: C_2  and  C_3
REMARK    2  A    between atoms: C_7  and  C_8
REMARK    3  A    between atoms: C_8  and  N_9
REMARK    4  A    between atoms: C_24  and  C_25
REMARK                            x       y       z     vdW  Elec       q    Type
REMARK                         _______ _______ _______ _____ _____    ______ ____
ROOT
ATOM      1  C   UNL     1       2.319   7.217  18.900  0.00  0.00    +0.000 A 
ATOM      2  C   UNL     1       1.792   6.906  20.158  0.00  0.00    +0.000 A 
ATOM      3  C   UNL     1       1.885   5.617  20.675  0.00  0.00    +0.000 A 
ATOM      4  C   UNL     1       2.328   4.582  19.860  0.00  0.00    +0.000 A 
ATOM      5  C   UNL     1       2.689   4.826  18.525  0.00  0.00    +0.000 A 
ATOM      6  C   UNL     1       2.759   6.160  18.083  0.00  0.00    +0.000 A 
ENDROOT
BRANCH   1   8
ATOM      7  O   UNL     1       3.070   8.788  17.355  0.00  0.00    +0.000 OA
ATOM      8  C   UNL     1       2.344   8.608  18.331  0.00  0.00    +0.000 C 
ATOM      9  N   UNL     1       1.588   9.658  18.898  0.00  0.00    +0.000 N 
ATOM     10  C   UNL     1       1.408  10.853  18.068  0.00  0.00    +0.000 C 
ATOM     11  C   UNL     1       1.152  12.123  18.880  0.00  0.00    +0.000 C 
ATOM     12  C   UNL     1       0.063  11.959  19.942  0.00  0.00    +0.000 C 
ATOM     13  C   UNL     1       0.361  10.732  20.798  0.00  0.00    +0.000 C 
ATOM     14  C   UNL     1       0.621   9.482  19.975  0.00  0.00    +0.000 C 
BRANCH  12  15
ATOM     15  C   UNL     1      -1.317  11.917  19.352  0.00  0.00    +0.000 A 
ATOM     16  N   UNL     1      -1.632  11.552  18.123  0.00  0.00    +0.000 NA
ATOM     17  N   UNL     1      -2.993  11.604  17.986  0.00  0.00    +0.000 NA
ATOM     18  C   UNL     1      -3.504  12.014  19.128  0.00  0.00    +0.000 A 
ATOM     19  C   UNL     1      -4.833  12.253  19.555  0.00  0.00    +0.000 A 
ATOM     20  C   UNL     1      -5.062  12.668  20.818  0.00  0.00    +0.000 A 
ATOM     21  C   UNL     1      -3.966  12.884  21.752  0.00  0.00    +0.000 A 
ATOM     22  C   UNL     1      -2.706  12.666  21.341  0.00  0.00    +0.000 A 
ATOM     23  N   UNL     1      -2.476  12.232  20.036  0.00  0.00    +0.000 N 
ENDBRANCH  12  15
ENDBRANCH   1   8
BRANCH   5  24
ATOM     24  C   UNL     1       3.026   3.665  17.585  0.00  0.00    +0.000 C 
BRANCH  24  25
ATOM     25  N   UNL     1       4.457   3.519  17.443  0.00  0.00    +0.000 N 
ATOM     26  C   UNL     1       5.224   3.580  18.579  0.00  0.00    +0.000 C 
ATOM     27  O   UNL     1       5.026   3.080  19.671  0.00  0.00    +0.000 OA
ATOM     28  C   UNL     1       6.256   4.571  18.305  0.00  0.00    +0.000 A 
ATOM     29  C   UNL     1       6.895   5.380  19.222  0.00  0.00    +0.000 A 
ATOM     30  C   UNL     1       7.477   6.550  18.733  0.00  0.00    +0.000 A 
ATOM     31  C   UNL     1       7.435   6.863  17.356  0.00  0.00    +0.000 A 
ATOM     32  C   UNL     1       6.783   6.025  16.448  0.00  0.00    +0.000 A 
ATOM     33  C   UNL     1       6.183   4.896  16.962  0.00  0.00    +0.000 A 
ATOM     34  C   UNL     1       5.070   4.146  16.388  0.00  0.00    +0.000 C 
ATOM     35  O   UNL     1       4.706   4.234  15.231  0.00  0.00    +0.000 OA
ENDBRANCH  24  25
ENDBRANCH   5  24
TORSDOF 4
ENDMDL
MODEL 3
REMARK VINA RESULT:     -10.4      3.185      4.305
REMARK  Name = 
REMARK  4 active torsions:
REMARK  status: ('A' for Active; 'I' for Inactive)
REMARK    1  A    between atoms: C_2  and  C_3
REMARK    2  A    between atoms: C_7  and  C_8
REMARK    3  A    between atoms: C_8  and  N_9
REMARK    4  A    between atoms: C_24  and  C_25
REMARK                            x       y       z     vdW  Elec       q    Type
REMARK                         _______ _______ _______ _____ _____    ______ ____
ROOT
ATOM      1  C   UNL     1       3.012   6.830  18.739  0.00  0.00    +0.000 A 
ATOM      2  C   UNL     1       3.396   7.680  17.697  0.00  0.00    +0.000 A 
ATOM      3  C   UNL     1       4.153   7.208  16.629  0.00  0.00    +0.000 A 
ATOM      4  C   UNL     1       4.701   5.932  16.688  0.00  0.00    +0.000 A 
ATOM      5  C   UNL     1       4.492   5.115  17.811  0.00  0.00    +0.000 A 
ATOM      6  C   UNL     1       3.579   5.543  18.791  0.00  0.00    +0.000 A 
ENDROOT
BRANCH   1   8
ATOM      7  O   UNL     1       2.055   6.497  20.835  0.00  0.00    +0.000 OA
ATOM      8  C   UNL     1       2.111   7.251  19.865  0.00  0.00    +0.000 C 
ATOM      9  N   UNL     1       1.351   8.441  19.806  0.00  0.00    +0.000 N 
ATOM     10  C   UNL     1       0.801   8.926  21.075  0.00  0.00    +0.000 C 
ATOM     11  C   UNL     1      -0.449   9.791  20.904  0.00  0.00    +0.000 C 
ATOM     12  C   UNL     1      -0.288  10.895  19.856  0.00  0.00    +0.000 C 
ATOM     13  C   UNL     1       0.228  10.295  18.552  0.00  0.00    +0.000 C 
ATOM     14  C   UNL     1       1.464   9.432  18.742  0.00  0.00    +0.000 C 
BRANCH  12  15
ATOM     15  C   UNL     1       0.574  12.027  20.339  0.00  0.00    +0.000 A 
ATOM     16  N   UNL     1       1.535  11.950  21.241  0.00  0.00    +0.000 NA
ATOM     17  N   UNL     1       2.113  13.185  21.370  0.00  0.00    +0.000 NA
ATOM     18  C   UNL     1       1.494  14.014  20.556  0.00  0.00    +0.000 A 
ATOM     19  C   UNL     1       1.663  15.392  20.279  0.00  0.00    +0.000 A 
ATOM     20  C   UNL     1       0.871  15.989  19.365  0.00  0.00    +0.000 A 
ATOM     21  C   UNL     1      -0.163  15.245  18.661  0.00  0.00    +0.000 A 
ATOM     22  C   UNL     1      -0.327  13.939  18.933  0.00  0.00    +0.000 A 
ATOM     23  N   UNL     1       0.498  13.327  19.875  0.00  0.00    +0.000 N 
ENDBRANCH  12  15
ENDBRANCH   1   8
BRANCH   5  24
ATOM     24  C   UNL     1       5.222   3.775  17.946  0.00  0.00    +0.000 C 
BRANCH  24  25
ATOM     25  N   UNL     1       4.302   2.725  18.320  0.00  0.00    +0.000 N 
ATOM     26  C   UNL     1       3.038   2.760  17.789  0.00  0.00    +0.000 C 
ATOM     27  O   UNL     1       2.687   3.009  16.651  0.00  0.00    +0.000 OA
ATOM     28  C   UNL     1       2.131   2.655  18.924  0.00  0.00    +0.000 A 
ATOM     29  C   UNL     1       0.855   3.172  19.019  0.00  0.00    +0.000 A 
ATOM     30  C   UNL     1       0.351   3.376  20.304  0.00  0.00    +0.000 A 
ATOM     31  C   UNL     1       1.109   3.035  21.446  0.00  0.00    +0.000 A 
ATOM     32  C   UNL     1       2.398   2.510  21.322  0.00  0.00    +0.000 A 
ATOM     33  C   UNL     1       2.887   2.354  20.043  0.00  0.00    +0.000 A 
ATOM     34  C   UNL     1       4.287   2.316  19.630  0.00  0.00    +0.000 C 
ATOM     35  O   UNL     1       5.221   2.119  20.384  0.00  0.00    +0.000 OA
ENDBRANCH  24  25
ENDBRANCH   5  24
TORSDOF 4
ENDMDL
MODEL 4
REMARK VINA RESULT:     -10.3      5.396      8.875
REMARK  Name = 
REMARK  4 active torsions:
REMARK  status: ('A' for Active; 'I' for Inactive)
REMARK    1  A    between atoms: C_2  and  C_3
REMARK    2  A    between atoms: C_7  and  C_8
REMARK    3  A    between atoms: C_8  and  N_9
REMARK    4  A    between atoms: C_24  and  C_25
REMARK                            x       y       z     vdW  Elec       q    Type
REMARK                         _______ _______ _______ _____ _____    ______ ____
ROOT
ATOM      1  C   UNL     1       1.576  13.498  19.967  0.00  0.00    +0.000 A 
ATOM      2  C   UNL     1       0.764  14.250  19.110  0.00  0.00    +0.000 A 
ATOM      3  C   UNL     1      -0.389  13.703  18.553  0.00  0.00    +0.000 A 
ATOM      4  C   UNL     1      -0.637  12.342  18.687  0.00  0.00    +0.000 A 
ATOM      5  C   UNL     1       0.259  11.517  19.385  0.00  0.00    +0.000 A 
ATOM      6  C   UNL     1       1.317  12.120  20.089  0.00  0.00    +0.000 A 
ENDROOT
BRANCH   1   8
ATOM      7  O   UNL     1       2.726  14.066  21.909  0.00  0.00    +0.000 OA
ATOM      8  C   UNL     1       2.773  14.059  20.680  0.00  0.00    +0.000 C 
ATOM      9  N   UNL     1       3.887  14.571  19.978  0.00  0.00    +0.000 N 
ATOM     10  C   UNL     1       5.117  14.754  20.753  0.00  0.00    +0.000 C 
ATOM     11  C   UNL     1       6.047  15.821  20.173  0.00  0.00    +0.000 C 
ATOM     12  C   UNL     1       6.299  15.661  18.672  0.00  0.00    +0.000 C 
ATOM     13  C   UNL     1       4.967  15.540  17.938  0.00  0.00    +0.000 C 
ATOM     14  C   UNL     1       4.054  14.482  18.532  0.00  0.00    +0.000 C 
BRANCH  12  15
ATOM     15  C   UNL     1       7.224  14.519  18.361  0.00  0.00    +0.000 A 
ATOM     16  N   UNL     1       7.030  13.579  17.454  0.00  0.00    +0.000 NA
ATOM     17  N   UNL     1       8.119  12.750  17.444  0.00  0.00    +0.000 NA
ATOM     18  C   UNL     1       8.968  13.178  18.354  0.00  0.00    +0.000 A 
ATOM     19  C   UNL     1      10.237  12.714  18.777  0.00  0.00    +0.000 A 
ATOM     20  C   UNL     1      10.899  13.376  19.748  0.00  0.00    +0.000 A 
ATOM     21  C   UNL     1      10.329  14.558  20.378  0.00  0.00    +0.000 A 
ATOM     22  C   UNL     1       9.120  14.991  19.981  0.00  0.00    +0.000 A 
ATOM     23  N   UNL     1       8.444  14.305  18.974  0.00  0.00    +0.000 N 
ENDBRANCH  12  15
ENDBRANCH   1   8
BRANCH   5  24
ATOM     24  C   UNL     1       0.069   9.997  19.400  0.00  0.00    +0.000 C 
BRANCH  24  25
ATOM     25  N   UNL     1       1.331   9.324  19.607  0.00  0.00    +0.000 N 
ATOM     26  C   UNL     1       1.999   8.858  18.503  0.00  0.00    +0.000 C 
ATOM     27  O   UNL     1       2.172   9.392  17.424  0.00  0.00    +0.000 OA
ATOM     28  C   UNL     1       2.293   7.458  18.784  0.00  0.00    +0.000 A 
ATOM     29  C   UNL     1       2.427   6.438  17.864  0.00  0.00    +0.000 A 
ATOM     30  C   UNL     1       2.237   5.137  18.334  0.00  0.00    +0.000 A 
ATOM     31  C   UNL     1       1.951   4.889  19.694  0.00  0.00    +0.000 A 
ATOM     32  C   UNL     1       1.822   5.941  20.605  0.00  0.00    +0.000 A 
ATOM     33  C   UNL     1       1.977   7.218  20.109  0.00  0.00    +0.000 A 
ATOM     34  C   UNL     1       1.435   8.454  20.663  0.00  0.00    +0.000 C 
ATOM     35  O   UNL     1       1.018   8.573  21.800  0.00  0.00    +0.000 OA
ENDBRANCH  24  25
ENDBRANCH   5  24
TORSDOF 4
ENDMDL
MODEL 5
REMARK VINA RESULT:     -10.0      2.826      3.522
REMARK  Name = 
REMARK  4 active torsions:
REMARK  status: ('A' for Active; 'I' for Inactive)
REMARK    1  A    between atoms: C_2  and  C_3
REMARK    2  A    between atoms: C_7  and  C_8
REMARK    3  A    between atoms: C_8  and  N_9
REMARK    4  A    between atoms: C_24  and  C_25
REMARK                            x       y       z     vdW  Elec       q    Type
REMARK                         _______ _______ _______ _____ _____    ______ ____
ROOT
ATOM      1  C   UNL     1       1.173   8.859  19.033  0.00  0.00    +0.000 A 
ATOM      2  C   UNL     1       1.029   8.341  20.325  0.00  0.00    +0.000 A 
ATOM      3  C   UNL     1       1.856   7.318  20.782  0.00  0.00    +0.000 A 
ATOM      4  C   UNL     1       2.701   6.668  19.890  0.00  0.00    +0.000 A 
ATOM      5  C   UNL     1       2.734   7.039  18.536  0.00  0.00    +0.000 A 
ATOM      6  C   UNL     1       2.027   8.189  18.138  0.00  0.00    +0.000 A 
ENDROOT
BRANCH   1   8
ATOM      7  O   UNL     1      -0.479   9.781  17.676  0.00  0.00    +0.000 OA
ATOM      8  C   UNL     1       0.384  10.029  18.516  0.00  0.00    +0.000 C 
ATOM      9  N   UNL     1       0.633  11.348  18.957  0.00  0.00    +0.000 N 
ATOM     10  C   UNL     1      -0.408  12.338  18.668  0.00  0.00    +0.000 C 
ATOM     11  C   UNL     1       0.121  13.771  18.592  0.00  0.00    +0.000 C 
ATOM     12  C   UNL     1       1.007  14.158  19.778  0.00  0.00    +0.000 C 
ATOM     13  C   UNL     1       2.098  13.109  19.968  0.00  0.00    +0.000 C 
ATOM     14  C   UNL     1       1.555  11.692  20.033  0.00  0.00    +0.000 C 
BRANCH  12  15
ATOM     15  C   UNL     1       0.219  14.391  21.035  0.00  0.00    +0.000 A 
ATOM     16  N   UNL     1       0.433  13.825  22.209  0.00  0.00    +0.000 NA
ATOM     17  N   UNL     1      -0.467  14.332  23.109  0.00  0.00    +0.000 NA
ATOM     18  C   UNL     1      -1.235  15.195  22.478  0.00  0.00    +0.000 A 
ATOM     19  C   UNL     1      -2.318  16.003  22.900  0.00  0.00    +0.000 A 
ATOM     20  C   UNL     1      -2.923  16.821  22.014  0.00  0.00    +0.000 A 
ATOM     21  C   UNL     1      -2.489  16.883  20.626  0.00  0.00    +0.000 A 
ATOM     22  C   UNL     1      -1.467  16.108  20.226  0.00  0.00    +0.000 A 
ATOM     23  N   UNL     1      -0.843  15.269  21.148  0.00  0.00    +0.000 N 
ENDBRANCH  12  15
ENDBRANCH   1   8
BRANCH   5  24
ATOM     24  C   UNL     1       3.545   6.224  17.524  0.00  0.00    +0.000 C 
BRANCH  24  25
ATOM     25  N   UNL     1       3.284   4.811  17.677  0.00  0.00    +0.000 N 
ATOM     26  C   UNL     1       1.977   4.409  17.789  0.00  0.00    +0.000 C 
ATOM     27  O   UNL     1       1.000   4.780  17.167  0.00  0.00    +0.000 OA
ATOM     28  C   UNL     1       1.923   3.578  18.985  0.00  0.00    +0.000 A 
ATOM     29  C   UNL     1       0.840   3.397  19.822  0.00  0.00    +0.000 A 
ATOM     30  C   UNL     1       1.113   2.970  21.122  0.00  0.00    +0.000 A 
ATOM     31  C   UNL     1       2.437   2.707  21.540  0.00  0.00    +0.000 A 
ATOM     32  C   UNL     1       3.515   2.897  20.671  0.00  0.00    +0.000 A 
ATOM     33  C   UNL     1       3.222   3.356  19.405  0.00  0.00    +0.000 A 
ATOM     34  C   UNL     1       4.106   4.087  18.502  0.00  0.00    +0.000 C 
ATOM     35  O   UNL     1       5.316   4.137  18.617  0.00  0.00    +0.000 OA
ENDBRANCH  24  25
ENDBRANCH   5  24
TORSDOF 4
ENDMDL
MODEL 6
REMARK VINA RESULT:     -10.0      2.504      3.267
REMARK  Name = 
REMARK  4 active torsions:
REMARK  status: ('A' for Active; 'I' for Inactive)
REMARK    1  A    between atoms: C_2  and  C_3
REMARK    2  A    between atoms: C_7  and  C_8
REMARK    3  A    between atoms: C_8  and  N_9
REMARK    4  A    between atoms: C_24  and  C_25
REMARK                            x       y       z     vdW  Elec       q    Type
REMARK                         _______ _______ _______ _____ _____    ______ ____
ROOT
ATOM      1  C   UNL     1       1.144   8.769  19.086  0.00  0.00    +0.000 A 
ATOM      2  C   UNL     1       1.024   8.261  20.384  0.00  0.00    +0.000 A 
ATOM      3  C   UNL     1       1.881   7.265  20.845  0.00  0.00    +0.000 A 
ATOM      4  C   UNL     1       2.737   6.629  19.953  0.00  0.00    +0.000 A 
ATOM      5  C   UNL     1       2.749   6.987  18.595  0.00  0.00    +0.000 A 
ATOM      6  C   UNL     1       2.009   8.113  18.191  0.00  0.00    +0.000 A 
ENDROOT
BRANCH   1   8
ATOM      7  O   UNL     1      -0.170   9.769  17.446  0.00  0.00    +0.000 OA
ATOM      8  C   UNL     1       0.320   9.913  18.564  0.00  0.00    +0.000 C 
ATOM      9  N   UNL     1       0.135  11.099  19.309  0.00  0.00    +0.000 N 
ATOM     10  C   UNL     1      -0.954  11.978  18.874  0.00  0.00    +0.000 C 
ATOM     11  C   UNL     1      -0.746  13.442  19.264  0.00  0.00    +0.000 C 
ATOM     12  C   UNL     1      -0.369  13.634  20.735  0.00  0.00    +0.000 C 
ATOM     13  C   UNL     1       0.809  12.729  21.085  0.00  0.00    +0.000 C 
ATOM     14  C   UNL     1       0.588  11.282  20.683  0.00  0.00    +0.000 C 
BRANCH  12  15
ATOM     15  C   UNL     1      -1.535  13.430  21.660  0.00  0.00    +0.000 A 
ATOM     16  N   UNL     1      -2.544  12.598  21.476  0.00  0.00    +0.000 NA
ATOM     17  N   UNL     1      -3.374  12.672  22.563  0.00  0.00    +0.000 NA
ATOM     18  C   UNL     1      -2.875  13.557  23.400  0.00  0.00    +0.000 A 
ATOM     19  C   UNL     1      -3.306  14.035  24.661  0.00  0.00    +0.000 A 
ATOM     20  C   UNL     1      -2.568  14.959  25.310  0.00  0.00    +0.000 A 
ATOM     21  C   UNL     1      -1.338  15.483  24.735  0.00  0.00    +0.000 A 
ATOM     22  C   UNL     1      -0.937  15.035  23.534  0.00  0.00    +0.000 A 
ATOM     23  N   UNL     1      -1.701  14.076  22.871  0.00  0.00    +0.000 N 
ENDBRANCH  12  15
ENDBRANCH   1   8
BRANCH   5  24
ATOM     24  C   UNL     1       3.573   6.183  17.585  0.00  0.00    +0.000 C 
BRANCH  24  25
ATOM     25  N   UNL     1       3.323   4.767  17.729  0.00  0.00    +0.000 N 
ATOM     26  C   UNL     1       2.018   4.352  17.821  0.00  0.00    +0.000 C 
ATOM     27  O   UNL     1       1.047   4.717  17.186  0.00  0.00    +0.000 OA
ATOM     28  C   UNL     1       1.954   3.518  19.014  0.00  0.00    +0.000 A 
ATOM     29  C   UNL     1       0.861   3.325  19.834  0.00  0.00    +0.000 A 
ATOM     30  C   UNL     1       1.119   2.895  21.137  0.00  0.00    +0.000 A 
ATOM     31  C   UNL     1       2.438   2.644  21.573  0.00  0.00    +0.000 A 
ATOM     32  C   UNL     1       3.528   2.845  20.721  0.00  0.00    +0.000 A 
ATOM     33  C   UNL     1       3.249   3.306  19.452  0.00  0.00    +0.000 A 
ATOM     34  C   UNL     1       4.140   4.047  18.565  0.00  0.00    +0.000 C 
ATOM     35  O   UNL     1       5.347   4.109  18.697  0.00  0.00    +0.000 OA
ENDBRANCH  24  25
ENDBRANCH   5  24
TORSDOF 4
ENDMDL
MODEL 7
REMARK VINA RESULT:      -9.9      3.162      4.157
REMARK  Name = 
REMARK  4 active torsions:
REMARK  status: ('A' for Active; 'I' for Inactive)
REMARK    1  A    between atoms: C_2  and  C_3
REMARK    2  A    between atoms: C_7  and  C_8
REMARK    3  A    between atoms: C_8  and  N_9
REMARK    4  A    between atoms: C_24  and  C_25
REMARK                            x       y       z     vdW  Elec       q    Type
REMARK                         _______ _______ _______ _____ _____    ______ ____
ROOT
ATOM      1  C   UNL     1       3.097   6.746  18.702  0.00  0.00    +0.000 A 
ATOM      2  C   UNL     1       3.488   7.582  17.650  0.00  0.00    +0.000 A 
ATOM      3  C   UNL     1       4.212   7.084  16.571  0.00  0.00    +0.000 A 
ATOM      4  C   UNL     1       4.723   5.793  16.625  0.00  0.00    +0.000 A 
ATOM      5  C   UNL     1       4.510   4.985  17.753  0.00  0.00    +0.000 A 
ATOM      6  C   UNL     1       3.626   5.443  18.748  0.00  0.00    +0.000 A 
ENDROOT
BRANCH   1   8
ATOM      7  O   UNL     1       2.237   6.493  20.850  0.00  0.00    +0.000 OA
ATOM      8  C   UNL     1       2.228   7.197  19.842  0.00  0.00    +0.000 C 
ATOM      9  N   UNL     1       1.427   8.357  19.754  0.00  0.00    +0.000 N 
ATOM     10  C   UNL     1       0.913   8.891  21.019  0.00  0.00    +0.000 C 
ATOM     11  C   UNL     1      -0.371   9.706  20.856  0.00  0.00    +0.000 C 
ATOM     12  C   UNL     1      -0.290  10.758  19.748  0.00  0.00    +0.000 C 
ATOM     13  C   UNL     1       0.193  10.107  18.456  0.00  0.00    +0.000 C 
ATOM     14  C   UNL     1       1.463   9.295  18.637  0.00  0.00    +0.000 C 
BRANCH  12  15
ATOM     15  C   UNL     1       0.551  11.940  20.136  0.00  0.00    +0.000 A 
ATOM     16  N   UNL     1       1.728  12.263  19.630  0.00  0.00    +0.000 NA
ATOM     17  N   UNL     1       2.147  13.430  20.211  0.00  0.00    +0.000 NA
ATOM     18  C   UNL     1       1.231  13.809  21.077  0.00  0.00    +0.000 A 
ATOM     19  C   UNL     1       1.138  14.919  21.951  0.00  0.00    +0.000 A 
ATOM     20  C   UNL     1       0.049  15.058  22.736  0.00  0.00    +0.000 A 
ATOM     21  C   UNL     1      -1.031  14.083  22.707  0.00  0.00    +0.000 A 
ATOM     22  C   UNL     1      -0.935  13.026  21.884  0.00  0.00    +0.000 A 
ATOM     23  N   UNL     1       0.190  12.890  21.072  0.00  0.00    +0.000 N 
ENDBRANCH  12  15
ENDBRANCH   1   8
BRANCH   5  24
ATOM     24  C   UNL     1       5.202   3.625  17.880  0.00  0.00    +0.000 C 
BRANCH  24  25
ATOM     25  N   UNL     1       4.264   2.609  18.300  0.00  0.00    +0.000 N 
ATOM     26  C   UNL     1       2.989   2.666  17.797  0.00  0.00    +0.000 C 
ATOM     27  O   UNL     1       2.617   2.899  16.663  0.00  0.00    +0.000 OA
ATOM     28  C   UNL     1       2.106   2.611  18.956  0.00  0.00    +0.000 A 
ATOM     29  C   UNL     1       0.847   3.165  19.067  0.00  0.00    +0.000 A 
ATOM     30  C   UNL     1       0.379   3.411  20.359  0.00  0.00    +0.000 A 
ATOM     31  C   UNL     1       1.154   3.075  21.490  0.00  0.00    +0.000 A 
ATOM     32  C   UNL     1       2.426   2.513  21.349  0.00  0.00    +0.000 A 
ATOM     33  C   UNL     1       2.880   2.315  20.063  0.00  0.00    +0.000 A 
ATOM     34  C   UNL     1       4.268   2.230  19.619  0.00  0.00    +0.000 C 
ATOM     35  O   UNL     1       5.214   2.024  20.355  0.00  0.00    +0.000 OA
ENDBRANCH  24  25
ENDBRANCH   5  24
TORSDOF 4
ENDMDL
MODEL 8
REMARK VINA RESULT:      -9.9      2.014      2.427
REMARK  Name = 
REMARK  4 active torsions:
REMARK  status: ('A' for Active; 'I' for Inactive)
REMARK    1  A    between atoms: C_2  and  C_3
REMARK    2  A    between atoms: C_7  and  C_8
REMARK    3  A    between atoms: C_8  and  N_9
REMARK    4  A    between atoms: C_24  and  C_25
REMARK                            x       y       z     vdW  Elec       q    Type
REMARK                         _______ _______ _______ _____ _____    ______ ____
ROOT
ATOM      1  C   UNL     1       1.195   8.692  19.173  0.00  0.00    +0.000 A 
ATOM      2  C   UNL     1       1.178   8.192  20.480  0.00  0.00    +0.000 A 
ATOM      3  C   UNL     1       2.079   7.209  20.882  0.00  0.00    +0.000 A 
ATOM      4  C   UNL     1       2.873   6.577  19.933  0.00  0.00    +0.000 A 
ATOM      5  C   UNL     1       2.781   6.924  18.576  0.00  0.00    +0.000 A 
ATOM      6  C   UNL     1       2.000   8.039  18.221  0.00  0.00    +0.000 A 
ENDROOT
BRANCH   1   8
ATOM      7  O   UNL     1      -0.085   9.758  17.547  0.00  0.00    +0.000 OA
ATOM      8  C   UNL     1       0.322   9.822  18.706  0.00  0.00    +0.000 C 
ATOM      9  N   UNL     1      -0.000  10.911  19.545  0.00  0.00    +0.000 N 
ATOM     10  C   UNL     1      -1.123  11.751  19.121  0.00  0.00    +0.000 C 
ATOM     11  C   UNL     1      -1.052  13.180  19.663  0.00  0.00    +0.000 C 
ATOM     12  C   UNL     1      -0.785  13.249  21.168  0.00  0.00    +0.000 C 
ATOM     13  C   UNL     1       0.434  12.398  21.513  0.00  0.00    +0.000 C 
ATOM     14  C   UNL     1       0.350  10.986  20.960  0.00  0.00    +0.000 C 
BRANCH  12  15
ATOM     15  C   UNL     1      -1.988  12.873  21.985  0.00  0.00    +0.000 A 
ATOM     16  N   UNL     1      -2.018  12.005  22.980  0.00  0.00    +0.000 NA
ATOM     17  N   UNL     1      -3.286  11.977  23.497  0.00  0.00    +0.000 NA
ATOM     18  C   UNL     1      -4.028  12.818  22.808  0.00  0.00    +0.000 A 
ATOM     19  C   UNL     1      -5.392  13.189  22.895  0.00  0.00    +0.000 A 
ATOM     20  C   UNL     1      -5.887  14.108  22.041  0.00  0.00    +0.000 A 
ATOM     21  C   UNL     1      -5.048  14.724  21.024  0.00  0.00    +0.000 A 
ATOM     22  C   UNL     1      -3.756  14.363  20.938  0.00  0.00    +0.000 A 
ATOM     23  N   UNL     1      -3.249  13.416  21.826  0.00  0.00    +0.000 N 
ENDBRANCH  12  15
ENDBRANCH   1   8
BRANCH   5  24
ATOM     24  C   UNL     1       3.539   6.123  17.513  0.00  0.00    +0.000 C 
BRANCH  24  25
ATOM     25  N   UNL     1       3.296   4.707  17.669  0.00  0.00    +0.000 N 
ATOM     26  C   UNL     1       1.995   4.288  17.785  0.00  0.00    +0.000 C 
ATOM     27  O   UNL     1       1.011   4.646  17.165  0.00  0.00    +0.000 OA
ATOM     28  C   UNL     1       1.953   3.459  18.983  0.00  0.00    +0.000 A 
ATOM     29  C   UNL     1       0.876   3.266  19.822  0.00  0.00    +0.000 A 
ATOM     30  C   UNL     1       1.157   2.844  21.122  0.00  0.00    +0.000 A 
ATOM     31  C   UNL     1       2.485   2.599  21.537  0.00  0.00    +0.000 A 
ATOM     32  C   UNL     1       3.558   2.801  20.666  0.00  0.00    +0.000 A 
ATOM     33  C   UNL     1       3.257   3.254  19.399  0.00  0.00    +0.000 A 
ATOM     34  C   UNL     1       4.129   3.994  18.493  0.00  0.00    +0.000 C 
ATOM     35  O   UNL     1       5.339   4.060  18.605  0.00  0.00    +0.000 OA
ENDBRANCH  24  25
ENDBRANCH   5  24
TORSDOF 4
ENDMDL
MODEL 9
REMARK VINA RESULT:      -9.9      3.337      4.814
REMARK  Name = 
REMARK  4 active torsions:
REMARK  status: ('A' for Active; 'I' for Inactive)
REMARK    1  A    between atoms: C_2  and  C_3
REMARK    2  A    between atoms: C_7  and  C_8
REMARK    3  A    between atoms: C_8  and  N_9
REMARK    4  A    between atoms: C_24  and  C_25
REMARK                            x       y       z     vdW  Elec       q    Type
REMARK                         _______ _______ _______ _____ _____    ______ ____
ROOT
ATOM      1  C   UNL     1       3.011   6.967  18.692  0.00  0.00    +0.000 A 
ATOM      2  C   UNL     1       3.390   7.751  17.596  0.00  0.00    +0.000 A 
ATOM      3  C   UNL     1       4.209   7.235  16.596  0.00  0.00    +0.000 A 
ATOM      4  C   UNL     1       4.818   5.999  16.778  0.00  0.00    +0.000 A 
ATOM      5  C   UNL     1       4.609   5.264  17.956  0.00  0.00    +0.000 A 
ATOM      6  C   UNL     1       3.639   5.721  18.867  0.00  0.00    +0.000 A 
ENDROOT
BRANCH   1   8
ATOM      7  O   UNL     1       1.850   6.658  20.686  0.00  0.00    +0.000 OA
ATOM      8  C   UNL     1       2.048   7.430  19.749  0.00  0.00    +0.000 C 
ATOM      9  N   UNL     1       1.388   8.676  19.662  0.00  0.00    +0.000 N 
ATOM     10  C   UNL     1       0.767   9.171  20.894  0.00  0.00    +0.000 C 
ATOM     11  C   UNL     1      -0.394  10.134  20.643  0.00  0.00    +0.000 C 
ATOM     12  C   UNL     1      -0.059  11.248  19.649  0.00  0.00    +0.000 C 
ATOM     13  C   UNL     1       0.523  10.642  18.376  0.00  0.00    +0.000 C 
ATOM     14  C   UNL     1       1.669   9.682  18.644  0.00  0.00    +0.000 C 
BRANCH  12  15
ATOM     15  C   UNL     1       0.839  12.297  20.239  0.00  0.00    +0.000 A 
ATOM     16  N   UNL     1       0.955  12.598  21.520  0.00  0.00    +0.000 NA
ATOM     17  N   UNL     1       1.908  13.573  21.655  0.00  0.00    +0.000 NA
ATOM     18  C   UNL     1       2.360  13.872  20.455  0.00  0.00    +0.000 A 
ATOM     19  C   UNL     1       3.332  14.795  19.999  0.00  0.00    +0.000 A 
ATOM     20  C   UNL     1       3.604  14.878  18.680  0.00  0.00    +0.000 A 
ATOM     21  C   UNL     1       2.910  14.041  17.713  0.00  0.00    +0.000 A 
ATOM     22  C   UNL     1       1.981  13.173  18.148  0.00  0.00    +0.000 A 
ATOM     23  N   UNL     1       1.709  13.089  19.512  0.00  0.00    +0.000 N 
ENDBRANCH  12  15
ENDBRANCH   1   8
BRANCH   5  24
ATOM     24  C   UNL     1       5.399   3.980  18.225  0.00  0.00    +0.000 C 
BRANCH  24  25
ATOM     25  N   UNL     1       4.507   2.879  18.508  0.00  0.00    +0.000 N 
ATOM     26  C   UNL     1       3.293   2.857  17.871  0.00  0.00    +0.000 C 
ATOM     27  O   UNL     1       3.025   3.106  16.710  0.00  0.00    +0.000 OA
ATOM     28  C   UNL     1       2.299   2.687  18.924  0.00  0.00    +0.000 A 
ATOM     29  C   UNL     1       0.995   3.136  18.915  0.00  0.00    +0.000 A 
ATOM     30  C   UNL     1       0.373   3.293  20.155  0.00  0.00    +0.000 A 
ATOM     31  C   UNL     1       1.049   2.973  21.353  0.00  0.00    +0.000 A 
ATOM     32  C   UNL     1       2.370   2.518  21.334  0.00  0.00    +0.000 A 
ATOM     33  C   UNL     1       2.973   2.407  20.099  0.00  0.00    +0.000 A 
ATOM     34  C   UNL     1       4.403   2.448  19.806  0.00  0.00    +0.000 C 
ATOM     35  O   UNL     1       5.279   2.287  20.634  0.00  0.00    +0.000 OA
ENDBRANCH  24  25
ENDBRANCH   5  24
TORSDOF 4
ENDMDL
