MODEL 1
REMARK VINA RESULT:      -8.9      0.000      0.000
REMARK  Name = 
REMARK  3 active torsions:
REMARK  status: ('A' for Active; 'I' for Inactive)
REMARK    1  A    between atoms: C_5  and  N_6
REMARK    2  A    between atoms: C_7  and  C_9
REMARK    3  A    between atoms: C_14  and  C_15
REMARK                            x       y       z     vdW  Elec       q    Type
REMARK                         _______ _______ _______ _____ _____    ______ ____
ROOT
ATOM      1  C   UNL     1       2.494   7.241  19.245  0.00  0.00    +0.000 A 
ATOM      2  C   UNL     1       2.499   7.974  18.042  0.00  0.00    +0.000 A 
ATOM      3  C   UNL     1       1.764   9.161  17.915  0.00  0.00    +0.000 A 
ATOM      4  C   UNL     1       1.033   9.604  19.022  0.00  0.00    +0.000 A 
ATOM      5  N   UNL     1       0.241  10.706  19.182  0.00  0.00    +0.000 NA
ATOM      6  C   UNL     1      -0.197  10.602  20.426  0.00  0.00    +0.000 A 
ATOM      7  O   UNL     1       0.274   9.504  21.105  0.00  0.00    +0.000 OA
ATOM      8  C   UNL     1       1.062   8.864  20.194  0.00  0.00    +0.000 A 
ATOM      9  C   UNL     1       1.775   7.686  20.368  0.00  0.00    +0.000 A 
ENDROOT
BRANCH   6  10
ATOM     10  C   UNL     1      -1.141  11.464  21.129  0.00  0.00    +0.000 A 
ATOM     11  C   UNL     1      -1.998  12.291  20.385  0.00  0.00    +0.000 A 
ATOM     12  C   UNL     1      -2.966  13.074  21.017  0.00  0.00    +0.000 A 
ATOM     13  C   UNL     1      -3.083  13.044  22.405  0.00  0.00    +0.000 A 
ATOM     14  C   UNL     1      -2.222  12.250  23.160  0.00  0.00    +0.000 A 
ATOM     15  C   UNL     1      -1.253  11.467  22.527  0.00  0.00    +0.000 A 
ENDBRANCH   6  10
BRANCH   1  17
ATOM     16  N   UNL     1       4.410   5.900  18.570  0.00  0.00    +0.000 N 
ATOM     17  C   UNL     1       3.298   5.998  19.380  0.00  0.00    +0.000 C 
ATOM     18  O   UNL     1       2.960   5.129  20.175  0.00  0.00    +0.000 OA
ATOM     19  H   UNL     1       4.413   6.447  17.714  0.00  0.00    +0.000 HD
BRANCH  16  24
ATOM     20  O   UNL     1       7.604   4.842  15.173  0.00  0.00    +0.000 OA
ATOM     21  C   UNL     1       6.963   4.775  16.216  0.00  0.00    +0.000 C 
ATOM     22  C   UNL     1       7.198   5.712  17.373  0.00  0.00    +0.000 C 
ATOM     23  C   UNL     1       6.753   5.061  18.672  0.00  0.00    +0.000 C 
ATOM     24  C   UNL     1       5.263   4.718  18.600  0.00  0.00    +0.000 C 
ATOM     25  C   UNL     1       4.965   3.889  17.342  0.00  0.00    +0.000 C 
ATOM     26  O   UNL     1       3.864   3.376  17.140  0.00  0.00    +0.000 OA
ATOM     27  N   UNL     1       5.919   3.895  16.351  0.00  0.00    +0.000 N 
ATOM     28  H   UNL     1       5.693   3.365  15.521  0.00  0.00    +0.000 HD
ENDBRANCH  16  24
ENDBRANCH   1  17
TORSDOF 3
ENDMDL
MODEL 2
REMARK VINA RESULT:      -8.8      5.605      7.963
REMARK  Name = 
REMARK  3 active torsions:
REMARK  status: ('A' for Active; 'I' for Inactive)
REMARK    1  A    between atoms: C_5  and  N_6
REMARK    2  A    between atoms: C_7  and  C_9
REMARK    3  A    between atoms: C_14  and  C_15
REMARK                            x       y       z     vdW  Elec       q    Type
REMARK                         _______ _______ _______ _____ _____    ______ ____
ROOT
ATOM      1  C   UNL     1       6.046   5.622  17.498  0.00  0.00    +0.000 A 
ATOM      2  C   UNL     1       6.981   5.151  18.440  0.00  0.00    +0.000 A 
ATOM      3  C   UNL     1       7.983   5.990  18.948  0.00  0.00    +0.000 A 
ATOM      4  C   UNL     1       8.019   7.315  18.501  0.00  0.00    +0.000 A 
ATOM      5  N   UNL     1       8.867   8.339  18.819  0.00  0.00    +0.000 NA
ATOM      6  C   UNL     1       8.431   9.350  18.087  0.00  0.00    +0.000 A 
ATOM      7  O   UNL     1       7.331   9.060  17.315  0.00  0.00    +0.000 OA
ATOM      8  C   UNL     1       7.075   7.748  17.584  0.00  0.00    +0.000 A 
ATOM      9  C   UNL     1       6.065   6.955  17.054  0.00  0.00    +0.000 A 
ENDROOT
BRANCH   6  10
ATOM     10  C   UNL     1       8.997  10.689  17.962  0.00  0.00    +0.000 A 
ATOM     11  C   UNL     1       8.145  11.770  17.689  0.00  0.00    +0.000 A 
ATOM     12  C   UNL     1       8.637  13.076  17.637  0.00  0.00    +0.000 A 
ATOM     13  C   UNL     1       9.992  13.314  17.851  0.00  0.00    +0.000 A 
ATOM     14  C   UNL     1      10.857  12.249  18.096  0.00  0.00    +0.000 A 
ATOM     15  C   UNL     1      10.364  10.942  18.147  0.00  0.00    +0.000 A 
ENDBRANCH   6  10
BRANCH   1  17
ATOM     16  N   UNL     1       3.928   4.475  17.851  0.00  0.00    +0.000 N 
ATOM     17  C   UNL     1       4.972   4.732  16.985  0.00  0.00    +0.000 C 
ATOM     18  O   UNL     1       5.043   4.269  15.853  0.00  0.00    +0.000 OA
ATOM     19  H   UNL     1       4.112   4.570  18.844  0.00  0.00    +0.000 HD
BRANCH  16  24
ATOM     20  O   UNL     1       0.894   2.491  20.968  0.00  0.00    +0.000 OA
ATOM     21  C   UNL     1       1.407   2.814  19.902  0.00  0.00    +0.000 C 
ATOM     22  C   UNL     1       1.290   4.207  19.337  0.00  0.00    +0.000 C 
ATOM     23  C   UNL     1       1.456   4.174  17.827  0.00  0.00    +0.000 C 
ATOM     24  C   UNL     1       2.828   3.599  17.464  0.00  0.00    +0.000 C 
ATOM     25  C   UNL     1       3.039   2.244  18.154  0.00  0.00    +0.000 C 
ATOM     26  O   UNL     1       4.006   1.525  17.904  0.00  0.00    +0.000 OA
ATOM     27  N   UNL     1       2.204   1.942  19.205  0.00  0.00    +0.000 N 
ATOM     28  H   UNL     1       2.376   1.057  19.662  0.00  0.00    +0.000 HD
ENDBRANCH  16  24
ENDBRANCH   1  17
TORSDOF 3
ENDMDL
MODEL 3
REMARK VINA RESULT:      -8.5      0.823      1.086
REMARK  Name = 
REMARK  3 active torsions:
REMARK  status: ('A' for Active; 'I' for Inactive)
REMARK    1  A    between atoms: C_5  and  N_6
REMARK    2  A    between atoms: C_7  and  C_9
REMARK    3  A    between atoms: C_14  and  C_15
REMARK                            x       y       z     vdW  Elec       q    Type
REMARK                         _______ _______ _______ _____ _____    ______ ____
ROOT
ATOM      1  C   UNL     1       2.302   7.205  19.297  0.00  0.00    +0.000 A 
ATOM      2  C   UNL     1       2.215   7.933  18.094  0.00  0.00    +0.000 A 
ATOM      3  C   UNL     1       1.628   9.206  18.060  0.00  0.00    +0.000 A 
ATOM      4  C   UNL     1       1.143   9.739  19.259  0.00  0.00    +0.000 A 
ATOM      5  N   UNL     1       0.535  10.935  19.520  0.00  0.00    +0.000 NA
ATOM      6  C   UNL     1       0.288  10.887  20.818  0.00  0.00    +0.000 A 
ATOM      7  O   UNL     1       0.713   9.736  21.436  0.00  0.00    +0.000 OA
ATOM      8  C   UNL     1       1.259   9.000  20.426  0.00  0.00    +0.000 A 
ATOM      9  C   UNL     1       1.831   7.738  20.510  0.00  0.00    +0.000 A 
ENDROOT
BRANCH   6  10
ATOM     10  C   UNL     1      -0.416  11.864  21.642  0.00  0.00    +0.000 A 
ATOM     11  C   UNL     1      -1.488  11.440  22.443  0.00  0.00    +0.000 A 
ATOM     12  C   UNL     1      -2.137  12.329  23.301  0.00  0.00    +0.000 A 
ATOM     13  C   UNL     1      -1.724  13.658  23.365  0.00  0.00    +0.000 A 
ATOM     14  C   UNL     1      -0.679  14.102  22.558  0.00  0.00    +0.000 A 
ATOM     15  C   UNL     1      -0.030  13.212  21.697  0.00  0.00    +0.000 A 
ENDBRANCH   6  10
BRANCH   1  17
ATOM     16  N   UNL     1       4.175   5.768  18.703  0.00  0.00    +0.000 N 
ATOM     17  C   UNL     1       2.949   5.867  19.329  0.00  0.00    +0.000 C 
ATOM     18  O   UNL     1       2.396   4.928  19.886  0.00  0.00    +0.000 OA
ATOM     19  H   UNL     1       4.382   6.443  17.974  0.00  0.00    +0.000 HD
BRANCH  16  24
ATOM     20  O   UNL     1       7.620   4.795  15.533  0.00  0.00    +0.000 OA
ATOM     21  C   UNL     1       6.858   4.668  16.486  0.00  0.00    +0.000 C 
ATOM     22  C   UNL     1       7.050   5.414  17.782  0.00  0.00    +0.000 C 
ATOM     23  C   UNL     1       6.393   4.656  18.923  0.00  0.00    +0.000 C 
ATOM     24  C   UNL     1       4.894   4.500  18.652  0.00  0.00    +0.000 C 
ATOM     25  C   UNL     1       4.663   3.882  17.266  0.00  0.00    +0.000 C 
ATOM     26  O   UNL     1       3.547   3.531  16.883  0.00  0.00    +0.000 OA
ATOM     27  N   UNL     1       5.722   3.905  16.388  0.00  0.00    +0.000 N 
ATOM     28  H   UNL     1       5.542   3.517  15.473  0.00  0.00    +0.000 HD
ENDBRANCH  16  24
ENDBRANCH   1  17
TORSDOF 3
ENDMDL
MODEL 4
REMARK VINA RESULT:      -8.3      2.453      9.469
REMARK  Name = 
REMARK  3 active torsions:
REMARK  status: ('A' for Active; 'I' for Inactive)
REMARK    1  A    between atoms: C_5  and  N_6
REMARK    2  A    between atoms: C_7  and  C_9
REMARK    3  A    between atoms: C_14  and  C_15
REMARK                            x       y       z     vdW  Elec       q    Type
REMARK                         _______ _______ _______ _____ _____    ______ ____
ROOT
ATOM      1  C   UNL     1       2.541   6.946  19.031  0.00  0.00    +0.000 A 
ATOM      2  C   UNL     1       2.382   5.605  19.432  0.00  0.00    +0.000 A 
ATOM      3  C   UNL     1       2.995   4.561  18.725  0.00  0.00    +0.000 A 
ATOM      4  C   UNL     1       3.779   4.890  17.615  0.00  0.00    +0.000 A 
ATOM      5  N   UNL     1       4.482   4.095  16.754  0.00  0.00    +0.000 NA
ATOM      6  C   UNL     1       5.017   4.950  15.899  0.00  0.00    +0.000 A 
ATOM      7  O   UNL     1       4.724   6.268  16.154  0.00  0.00    +0.000 OA
ATOM      8  C   UNL     1       3.924   6.222  17.257  0.00  0.00    +0.000 A 
ATOM      9  C   UNL     1       3.339   7.289  17.926  0.00  0.00    +0.000 A 
ENDROOT
BRANCH   6  10
ATOM     10  C   UNL     1       5.818   4.664  14.713  0.00  0.00    +0.000 A 
ATOM     11  C   UNL     1       5.309   3.793  13.737  0.00  0.00    +0.000 A 
ATOM     12  C   UNL     1       6.011   3.553  12.554  0.00  0.00    +0.000 A 
ATOM     13  C   UNL     1       7.237   4.177  12.337  0.00  0.00    +0.000 A 
ATOM     14  C   UNL     1       7.770   5.023  13.308  0.00  0.00    +0.000 A 
ATOM     15  C   UNL     1       7.067   5.262  14.492  0.00  0.00    +0.000 A 
ENDBRANCH   6  10
BRANCH   1  17
ATOM     16  N   UNL     1       1.517   9.154  19.076  0.00  0.00    +0.000 N 
ATOM     17  C   UNL     1       1.910   8.049  19.803  0.00  0.00    +0.000 C 
ATOM     18  O   UNL     1       1.765   7.949  21.015  0.00  0.00    +0.000 OA
ATOM     19  H   UNL     1       1.988   9.323  18.193  0.00  0.00    +0.000 HD
BRANCH  16  24
ATOM     20  O   UNL     1      -2.087  11.669  17.191  0.00  0.00    +0.000 OA
ATOM     21  C   UNL     1      -1.240  11.287  17.992  0.00  0.00    +0.000 C 
ATOM     22  C   UNL     1      -1.386  10.008  18.777  0.00  0.00    +0.000 C 
ATOM     23  C   UNL     1      -0.574  10.086  20.059  0.00  0.00    +0.000 C 
ATOM     24  C   UNL     1       0.905  10.306  19.729  0.00  0.00    +0.000 C 
ATOM     25  C   UNL     1       1.071  11.518  18.800  0.00  0.00    +0.000 C 
ATOM     26  O   UNL     1       2.176  11.975  18.511  0.00  0.00    +0.000 OA
ATOM     27  N   UNL     1      -0.056  11.963  18.148  0.00  0.00    +0.000 N 
ATOM     28  H   UNL     1       0.079  12.744  17.522  0.00  0.00    +0.000 HD
ENDBRANCH  16  24
ENDBRANCH   1  17
TORSDOF 3
ENDMDL
MODEL 5
REMARK VINA RESULT:      -8.2      2.778      9.966
REMARK  Name = 
REMARK  3 active torsions:
REMARK  status: ('A' for Active; 'I' for Inactive)
REMARK    1  A    between atoms: C_5  and  N_6
REMARK    2  A    between atoms: C_7  and  C_9
REMARK    3  A    between atoms: C_14  and  C_15
REMARK                            x       y       z     vdW  Elec       q    Type
REMARK                         _______ _______ _______ _____ _____    ______ ____
ROOT
ATOM      1  C   UNL     1       0.313  10.287  21.124  0.00  0.00    +0.000 A 
ATOM      2  C   UNL     1       0.197  11.015  19.923  0.00  0.00    +0.000 A 
ATOM      3  C   UNL     1       0.748  10.531  18.729  0.00  0.00    +0.000 A 
ATOM      4  C   UNL     1       1.405   9.297  18.759  0.00  0.00    +0.000 A 
ATOM      5  N   UNL     1       2.026   8.594  17.765  0.00  0.00    +0.000 NA
ATOM      6  C   UNL     1       2.475   7.511  18.377  0.00  0.00    +0.000 A 
ATOM      7  O   UNL     1       2.173   7.447  19.716  0.00  0.00    +0.000 OA
ATOM      8  C   UNL     1       1.488   8.603  19.956  0.00  0.00    +0.000 A 
ATOM      9  C   UNL     1       0.958   9.039  21.163  0.00  0.00    +0.000 A 
ENDROOT
BRANCH   6  10
ATOM     10  C   UNL     1       3.281   6.427  17.825  0.00  0.00    +0.000 A 
ATOM     11  C   UNL     1       2.834   5.103  17.960  0.00  0.00    +0.000 A 
ATOM     12  C   UNL     1       3.538   4.046  17.381  0.00  0.00    +0.000 A 
ATOM     13  C   UNL     1       4.704   4.301  16.663  0.00  0.00    +0.000 A 
ATOM     14  C   UNL     1       5.177   5.606  16.542  0.00  0.00    +0.000 A 
ATOM     15  C   UNL     1       4.472   6.664  17.124  0.00  0.00    +0.000 A 
ENDBRANCH   6  10
BRANCH   1  17
ATOM     16  N   UNL     1      -1.058  11.941  22.270  0.00  0.00    +0.000 N 
ATOM     17  C   UNL     1      -0.297  10.795  22.381  0.00  0.00    +0.000 C 
ATOM     18  O   UNL     1      -0.112  10.206  23.438  0.00  0.00    +0.000 OA
ATOM     19  H   UNL     1      -0.863  12.555  21.485  0.00  0.00    +0.000 HD
BRANCH  16  24
ATOM     20  O   UNL     1      -4.609  15.133  22.022  0.00  0.00    +0.000 OA
ATOM     21  C   UNL     1      -3.785  14.357  22.494  0.00  0.00    +0.000 C 
ATOM     22  C   UNL     1      -3.951  12.860  22.428  0.00  0.00    +0.000 C 
ATOM     23  C   UNL     1      -3.176  12.199  23.555  0.00  0.00    +0.000 C 
ATOM     24  C   UNL     1      -1.689  12.543  23.439  0.00  0.00    +0.000 C 
ATOM     25  C   UNL     1      -1.498  14.064  23.347  0.00  0.00    +0.000 C 
ATOM     26  O   UNL     1      -0.385  14.588  23.388  0.00  0.00    +0.000 OA
ATOM     27  N   UNL     1      -2.606  14.813  23.027  0.00  0.00    +0.000 N 
ATOM     28  H   UNL     1      -2.454  15.809  22.946  0.00  0.00    +0.000 HD
ENDBRANCH  16  24
ENDBRANCH   1  17
TORSDOF 3
ENDMDL
MODEL 6
REMARK VINA RESULT:      -8.1      2.637      9.933
REMARK  Name = 
REMARK  3 active torsions:
REMARK  status: ('A' for Active; 'I' for Inactive)
REMARK    1  A    between atoms: C_5  and  N_6
REMARK    2  A    between atoms: C_7  and  C_9
REMARK    3  A    between atoms: C_14  and  C_15
REMARK                            x       y       z     vdW  Elec       q    Type
REMARK                         _______ _______ _______ _____ _____    ______ ____
ROOT
ATOM      1  C   UNL     1       0.352  10.326  19.701  0.00  0.00    +0.000 A 
ATOM      2  C   UNL     1       0.387   9.543  20.872  0.00  0.00    +0.000 A 
ATOM      3  C   UNL     1       1.124   8.351  20.923  0.00  0.00    +0.000 A 
ATOM      4  C   UNL     1       1.834   7.967  19.781  0.00  0.00    +0.000 A 
ATOM      5  N   UNL     1       2.623   6.876  19.548  0.00  0.00    +0.000 NA
ATOM      6  C   UNL     1       3.019   7.034  18.296  0.00  0.00    +0.000 A 
ATOM      7  O   UNL     1       2.553   8.176  17.691  0.00  0.00    +0.000 OA
ATOM      8  C   UNL     1       1.787   8.770  18.652  0.00  0.00    +0.000 A 
ATOM      9  C   UNL     1       1.074   9.957  18.553  0.00  0.00    +0.000 A 
ENDROOT
BRANCH   6  10
ATOM     10  C   UNL     1       3.829   6.133  17.482  0.00  0.00    +0.000 A 
ATOM     11  C   UNL     1       3.611   4.749  17.569  0.00  0.00    +0.000 A 
ATOM     12  C   UNL     1       4.313   3.860  16.752  0.00  0.00    +0.000 A 
ATOM     13  C   UNL     1       5.247   4.346  15.841  0.00  0.00    +0.000 A 
ATOM     14  C   UNL     1       5.495   5.715  15.761  0.00  0.00    +0.000 A 
ATOM     15  C   UNL     1       4.793   6.605  16.580  0.00  0.00    +0.000 A 
ENDBRANCH   6  10
BRANCH   1  17
ATOM     16  N   UNL     1      -1.227  11.855  20.747  0.00  0.00    +0.000 N 
ATOM     17  C   UNL     1      -0.410  11.602  19.665  0.00  0.00    +0.000 C 
ATOM     18  O   UNL     1      -0.297  12.360  18.710  0.00  0.00    +0.000 OA
ATOM     19  H   UNL     1      -1.549  11.057  21.285  0.00  0.00    +0.000 HD
BRANCH  16  24
ATOM     20  O   UNL     1      -4.914  12.423  23.738  0.00  0.00    +0.000 OA
ATOM     21  C   UNL     1      -4.065  12.678  22.890  0.00  0.00    +0.000 C 
ATOM     22  C   UNL     1      -2.617  12.909  23.238  0.00  0.00    +0.000 C 
ATOM     23  C   UNL     1      -1.954  13.765  22.172  0.00  0.00    +0.000 C 
ATOM     24  C   UNL     1      -2.038  13.066  20.813  0.00  0.00    +0.000 C 
ATOM     25  C   UNL     1      -3.490  12.677  20.500  0.00  0.00    +0.000 C 
ATOM     26  O   UNL     1      -3.827  12.231  19.404  0.00  0.00    +0.000 OA
ATOM     27  N   UNL     1      -4.375  12.670  21.553  0.00  0.00    +0.000 N 
ATOM     28  H   UNL     1      -5.319  12.387  21.332  0.00  0.00    +0.000 HD
ENDBRANCH  16  24
ENDBRANCH   1  17
TORSDOF 3
ENDMDL
MODEL 7
REMARK VINA RESULT:      -8.0      2.492      3.587
REMARK  Name = 
REMARK  3 active torsions:
REMARK  status: ('A' for Active; 'I' for Inactive)
REMARK    1  A    between atoms: C_5  and  N_6
REMARK    2  A    between atoms: C_7  and  C_9
REMARK    3  A    between atoms: C_14  and  C_15
REMARK                            x       y       z     vdW  Elec       q    Type
REMARK                         _______ _______ _______ _____ _____    ______ ____
ROOT
ATOM      1  C   UNL     1       2.191   7.949  18.519  0.00  0.00    +0.000 A 
ATOM      2  C   UNL     1       2.375   9.000  17.599  0.00  0.00    +0.000 A 
ATOM      3  C   UNL     1       1.925  10.297  17.884  0.00  0.00    +0.000 A 
ATOM      4  C   UNL     1       1.300  10.521  19.114  0.00  0.00    +0.000 A 
ATOM      5  N   UNL     1       0.773  11.662  19.650  0.00  0.00    +0.000 NA
ATOM      6  C   UNL     1       0.309  11.274  20.826  0.00  0.00    +0.000 A 
ATOM      7  O   UNL     1       0.514   9.945  21.109  0.00  0.00    +0.000 OA
ATOM      8  C   UNL     1       1.149   9.466  20.000  0.00  0.00    +0.000 A 
ATOM      9  C   UNL     1       1.577   8.167  19.764  0.00  0.00    +0.000 A 
ENDROOT
BRANCH   6  10
ATOM     10  C   UNL     1      -0.427  12.058  21.813  0.00  0.00    +0.000 A 
ATOM     11  C   UNL     1      -0.100  13.411  21.995  0.00  0.00    +0.000 A 
ATOM     12  C   UNL     1      -0.829  14.213  22.874  0.00  0.00    +0.000 A 
ATOM     13  C   UNL     1      -1.892  13.668  23.590  0.00  0.00    +0.000 A 
ATOM     14  C   UNL     1      -2.213  12.320  23.443  0.00  0.00    +0.000 A 
ATOM     15  C   UNL     1      -1.482  11.517  22.562  0.00  0.00    +0.000 A 
ENDBRANCH   6  10
BRANCH   1  17
ATOM     16  N   UNL     1       2.060   5.543  18.868  0.00  0.00    +0.000 N 
ATOM     17  C   UNL     1       2.695   6.583  18.219  0.00  0.00    +0.000 C 
ATOM     18  O   UNL     1       3.625   6.425  17.438  0.00  0.00    +0.000 OA
ATOM     19  H   UNL     1       1.586   5.758  19.740  0.00  0.00    +0.000 HD
BRANCH  16  24
ATOM     20  O   UNL     1       1.644   2.134  22.195  0.00  0.00    +0.000 OA
ATOM     21  C   UNL     1       1.879   2.676  21.120  0.00  0.00    +0.000 C 
ATOM     22  C   UNL     1       0.788   3.112  20.176  0.00  0.00    +0.000 C 
ATOM     23  C   UNL     1       1.319   3.168  18.754  0.00  0.00    +0.000 C 
ATOM     24  C   UNL     1       2.481   4.161  18.669  0.00  0.00    +0.000 C 
ATOM     25  C   UNL     1       3.543   3.834  19.728  0.00  0.00    +0.000 C 
ATOM     26  O   UNL     1       4.632   4.406  19.762  0.00  0.00    +0.000 OA
ATOM     27  N   UNL     1       3.161   3.007  20.759  0.00  0.00    +0.000 N 
ATOM     28  H   UNL     1       3.866   2.824  21.460  0.00  0.00    +0.000 HD
ENDBRANCH  16  24
ENDBRANCH   1  17
TORSDOF 3
ENDMDL
MODEL 8
REMARK VINA RESULT:      -8.0      2.606      3.485
REMARK  Name = 
REMARK  3 active torsions:
REMARK  status: ('A' for Active; 'I' for Inactive)
REMARK    1  A    between atoms: C_5  and  N_6
REMARK    2  A    between atoms: C_7  and  C_9
REMARK    3  A    between atoms: C_14  and  C_15
REMARK                            x       y       z     vdW  Elec       q    Type
REMARK                         _______ _______ _______ _____ _____    ______ ____
ROOT
ATOM      1  C   UNL     1       1.820   8.368  19.214  0.00  0.00    +0.000 A 
ATOM      2  C   UNL     1       1.589   9.258  18.148  0.00  0.00    +0.000 A 
ATOM      3  C   UNL     1       0.874  10.448  18.341  0.00  0.00    +0.000 A 
ATOM      4  C   UNL     1       0.406  10.733  19.628  0.00  0.00    +0.000 A 
ATOM      5  N   UNL     1      -0.306  11.799  20.101  0.00  0.00    +0.000 NA
ATOM      6  C   UNL     1      -0.473  11.524  21.384  0.00  0.00    +0.000 A 
ATOM      7  O   UNL     1       0.103  10.345  21.793  0.00  0.00    +0.000 OA
ATOM      8  C   UNL     1       0.664   9.840  20.656  0.00  0.00    +0.000 A 
ATOM      9  C   UNL     1       1.367   8.651  20.514  0.00  0.00    +0.000 A 
ENDROOT
BRANCH   6  10
ATOM     10  C   UNL     1      -1.224  12.278  22.381  0.00  0.00    +0.000 A 
ATOM     11  C   UNL     1      -0.739  13.525  22.807  0.00  0.00    +0.000 A 
ATOM     12  C   UNL     1      -1.466  14.310  23.703  0.00  0.00    +0.000 A 
ATOM     13  C   UNL     1      -2.688  13.854  24.190  0.00  0.00    +0.000 A 
ATOM     14  C   UNL     1      -3.172  12.607  23.800  0.00  0.00    +0.000 A 
ATOM     15  C   UNL     1      -2.443  11.820  22.903  0.00  0.00    +0.000 A 
ENDBRANCH   6  10
BRANCH   1  17
ATOM     16  N   UNL     1       2.256   6.044  19.796  0.00  0.00    +0.000 N 
ATOM     17  C   UNL     1       2.602   7.121  19.006  0.00  0.00    +0.000 C 
ATOM     18  O   UNL     1       3.499   7.088  18.172  0.00  0.00    +0.000 OA
ATOM     19  H   UNL     1       1.794   6.243  20.679  0.00  0.00    +0.000 HD
BRANCH  16  24
ATOM     20  O   UNL     1       0.197   1.950  18.434  0.00  0.00    +0.000 OA
ATOM     21  C   UNL     1       1.062   2.750  18.773  0.00  0.00    +0.000 C 
ATOM     22  C   UNL     1       1.594   3.810  17.843  0.00  0.00    +0.000 C 
ATOM     23  C   UNL     1       2.994   4.221  18.267  0.00  0.00    +0.000 C 
ATOM     24  C   UNL     1       2.967   4.775  19.694  0.00  0.00    +0.000 C 
ATOM     25  C   UNL     1       2.286   3.776  20.642  0.00  0.00    +0.000 C 
ATOM     26  O   UNL     1       2.272   3.937  21.862  0.00  0.00    +0.000 OA
ATOM     27  N   UNL     1       1.527   2.785  20.064  0.00  0.00    +0.000 N 
ATOM     28  H   UNL     1       1.067   2.154  20.705  0.00  0.00    +0.000 HD
ENDBRANCH  16  24
ENDBRANCH   1  17
TORSDOF 3
ENDMDL
MODEL 9
REMARK VINA RESULT:      -7.9      2.029      3.040
REMARK  Name = 
REMARK  3 active torsions:
REMARK  status: ('A' for Active; 'I' for Inactive)
REMARK    1  A    between atoms: C_5  and  N_6
REMARK    2  A    between atoms: C_7  and  C_9
REMARK    3  A    between atoms: C_14  and  C_15
REMARK                            x       y       z     vdW  Elec       q    Type
REMARK                         _______ _______ _______ _____ _____    ______ ____
ROOT
ATOM      1  C   UNL     1       2.068   7.997  19.133  0.00  0.00    +0.000 A 
ATOM      2  C   UNL     1       1.759   7.591  20.446  0.00  0.00    +0.000 A 
ATOM      3  C   UNL     1       0.964   8.388  21.282  0.00  0.00    +0.000 A 
ATOM      4  C   UNL     1       0.475   9.594  20.770  0.00  0.00    +0.000 A 
ATOM      5  N   UNL     1      -0.309  10.553  21.346  0.00  0.00    +0.000 NA
ATOM      6  C   UNL     1      -0.439  11.467  20.398  0.00  0.00    +0.000 A 
ATOM      7  O   UNL     1       0.199  11.160  19.221  0.00  0.00    +0.000 OA
ATOM      8  C   UNL     1       0.789   9.955  19.468  0.00  0.00    +0.000 A 
ATOM      9  C   UNL     1       1.570   9.200  18.604  0.00  0.00    +0.000 A 
ENDROOT
BRANCH   6  10
ATOM     10  C   UNL     1      -1.118  12.756  20.471  0.00  0.00    +0.000 A 
ATOM     11  C   UNL     1      -2.380  12.833  21.082  0.00  0.00    +0.000 A 
ATOM     12  C   UNL     1      -3.028  14.059  21.238  0.00  0.00    +0.000 A 
ATOM     13  C   UNL     1      -2.423  15.226  20.777  0.00  0.00    +0.000 A 
ATOM     14  C   UNL     1      -1.184  15.165  20.143  0.00  0.00    +0.000 A 
ATOM     15  C   UNL     1      -0.536  13.936  19.986  0.00  0.00    +0.000 A 
ENDBRANCH   6  10
BRANCH   1  17
ATOM     16  N   UNL     1       2.992   5.807  18.610  0.00  0.00    +0.000 N 
ATOM     17  C   UNL     1       2.890   7.133  18.245  0.00  0.00    +0.000 C 
ATOM     18  O   UNL     1       3.435   7.607  17.256  0.00  0.00    +0.000 OA
ATOM     19  H   UNL     1       2.845   5.579  19.588  0.00  0.00    +0.000 HD
BRANCH  16  24
ATOM     20  O   UNL     1       4.898   1.802  20.397  0.00  0.00    +0.000 OA
ATOM     21  C   UNL     1       4.569   2.663  19.588  0.00  0.00    +0.000 C 
ATOM     22  C   UNL     1       3.154   2.809  19.090  0.00  0.00    +0.000 C 
ATOM     23  C   UNL     1       3.146   3.482  17.727  0.00  0.00    +0.000 C 
ATOM     24  C   UNL     1       3.788   4.869  17.826  0.00  0.00    +0.000 C 
ATOM     25  C   UNL     1       5.175   4.771  18.476  0.00  0.00    +0.000 C 
ATOM     26  O   UNL     1       5.941   5.732  18.535  0.00  0.00    +0.000 OA
ATOM     27  N   UNL     1       5.463   3.613  19.162  0.00  0.00    +0.000 N 
ATOM     28  H   UNL     1       6.371   3.579  19.604  0.00  0.00    +0.000 HD
ENDBRANCH  16  24
ENDBRANCH   1  17
TORSDOF 3
ENDMDL
