MODEL 1
REMARK VINA RESULT:      -9.2      0.000      0.000
REMARK  Name = 
REMARK  6 active torsions:
REMARK  status: ('A' for Active; 'I' for Inactive)
REMARK    1  A    between atoms: C_2  and  O_3
REMARK    2  A    between atoms: C_2  and  C_4
REMARK    3  A    between atoms: C_8  and  S_9
REMARK    4  A    between atoms: S_9  and  N_12
REMARK    5  A    between atoms: N_12  and  C_13
REMARK    6  A    between atoms: C_17  and  C_18
REMARK                            x       y       z     vdW  Elec       q    Type
REMARK                         _______ _______ _______ _____ _____    ______ ____
ROOT
ATOM      1  N   UNL     1       2.865   5.492  20.057  0.00  0.00    +0.000 N 
ATOM      2  H   UNL     1       3.385   5.352  20.922  0.00  0.00    +0.000 HD
ENDROOT
BRANCH   1   3
ATOM      3  C   UNL     1       2.397   6.790  19.738  0.00  0.00    +0.000 A 
ATOM      4  C   UNL     1       2.558   7.285  18.446  0.00  0.00    +0.000 A 
ATOM      5  C   UNL     1       2.022   8.522  18.106  0.00  0.00    +0.000 A 
ATOM      6  C   UNL     1       1.339   9.274  19.065  0.00  0.00    +0.000 A 
ATOM      7  C   UNL     1       1.205   8.812  20.382  0.00  0.00    +0.000 A 
ATOM      8  C   UNL     1       1.737   7.552  20.705  0.00  0.00    +0.000 A 
BRANCH   7   9
ATOM      9  C   UNL     1       0.497   9.581  21.405  0.00  0.00    +0.000 A 
ATOM     10  N   UNL     1       0.687   9.508  22.719  0.00  0.00    +0.000 NA
ATOM     11  N   UNL     1      -0.172  10.398  23.362  0.00  0.00    +0.000 NA
ATOM     12  C   UNL     1      -0.846  10.994  22.419  0.00  0.00    +0.000 A 
ATOM     13  N   UNL     1      -0.461  10.515  21.209  0.00  0.00    +0.000 N 
ATOM     14  C   UNL     1      -1.114  11.182  20.109  0.00  0.00    +0.000 C 
ATOM     15  C   UNL     1      -1.742  12.410  20.790  0.00  0.00    +0.000 C 
ATOM     16  C   UNL     1      -1.862  12.051  22.294  0.00  0.00    +0.000 C 
ENDBRANCH   7   9
ENDBRANCH   1   3
BRANCH   1  17
ATOM     17  S   UNL     1       3.142   4.343  18.867  0.00  0.00    +0.000 S 
ATOM     18  O   UNL     1       2.251   4.586  17.753  0.00  0.00    +0.000 OA
ATOM     19  O   UNL     1       3.185   3.061  19.536  0.00  0.00    +0.000 OA
BRANCH  17  24
ATOM     20  C   UNL     1       6.446   4.780  16.567  0.00  0.00    +0.000 A 
ATOM     21  C   UNL     1       7.382   5.290  17.476  0.00  0.00    +0.000 A 
ATOM     22  C   UNL     1       7.025   5.508  18.811  0.00  0.00    +0.000 A 
ATOM     23  C   UNL     1       5.728   5.225  19.238  0.00  0.00    +0.000 A 
ATOM     24  C   UNL     1       4.794   4.721  18.325  0.00  0.00    +0.000 A 
ATOM     25  C   UNL     1       5.155   4.463  16.999  0.00  0.00    +0.000 A 
BRANCH  20  27
ATOM     26  O   UNL     1       7.609   5.334  14.565  0.00  0.00    +0.000 OA
ATOM     27  C   UNL     1       6.872   4.569  15.159  0.00  0.00    +0.000 C 
BRANCH  27  28
ATOM     28  O   UNL     1       6.322   3.477  14.587  0.00  0.00    +0.000 OA
ATOM     29  H   UNL     1       5.347   3.462  14.571  0.00  0.00    +0.000 HD
ENDBRANCH  27  28
ENDBRANCH  20  27
ENDBRANCH  17  24
ENDBRANCH   1  17
TORSDOF 6
ENDMDL
MODEL 2
REMARK VINA RESULT:      -9.1      2.787      4.610
REMARK  Name = 
REMARK  6 active torsions:
REMARK  status: ('A' for Active; 'I' for Inactive)
REMARK    1  A    between atoms: C_2  and  O_3
REMARK    2  A    between atoms: C_2  and  C_4
REMARK    3  A    between atoms: C_8  and  S_9
REMARK    4  A    between atoms: S_9  and  N_12
REMARK    5  A    between atoms: N_12  and  C_13
REMARK    6  A    between atoms: C_17  and  C_18
REMARK                            x       y       z     vdW  Elec       q    Type
REMARK                         _______ _______ _______ _____ _____    ______ ____
ROOT
ATOM      1  N   UNL     1       5.202   4.341  16.500  0.00  0.00    +0.000 N 
ATOM      2  H   UNL     1       5.103   3.382  16.169  0.00  0.00    +0.000 HD
ENDROOT
BRANCH   1   3
ATOM      3  C   UNL     1       4.394   4.784  17.576  0.00  0.00    +0.000 A 
ATOM      4  C   UNL     1       4.266   3.993  18.715  0.00  0.00    +0.000 A 
ATOM      5  C   UNL     1       3.547   4.462  19.808  0.00  0.00    +0.000 A 
ATOM      6  C   UNL     1       2.938   5.719  19.754  0.00  0.00    +0.000 A 
ATOM      7  C   UNL     1       3.019   6.511  18.599  0.00  0.00    +0.000 A 
ATOM      8  C   UNL     1       3.764   6.029  17.511  0.00  0.00    +0.000 A 
BRANCH   7   9
ATOM      9  C   UNL     1       2.389   7.828  18.517  0.00  0.00    +0.000 A 
ATOM     10  N   UNL     1       2.359   8.624  17.452  0.00  0.00    +0.000 NA
ATOM     11  N   UNL     1       1.662   9.790  17.763  0.00  0.00    +0.000 NA
ATOM     12  C   UNL     1       1.277   9.661  19.002  0.00  0.00    +0.000 A 
ATOM     13  N   UNL     1       1.708   8.471  19.492  0.00  0.00    +0.000 N 
ATOM     14  C   UNL     1       1.256   8.225  20.841  0.00  0.00    +0.000 C 
ATOM     15  C   UNL     1       0.176   9.304  21.031  0.00  0.00    +0.000 C 
ATOM     16  C   UNL     1       0.487  10.411  19.991  0.00  0.00    +0.000 C 
ENDBRANCH   7   9
ENDBRANCH   1   3
BRANCH   1  17
ATOM     17  S   UNL     1       6.675   5.064  16.153  0.00  0.00    +0.000 S 
ATOM     18  O   UNL     1       7.732   4.339  16.825  0.00  0.00    +0.000 OA
ATOM     19  O   UNL     1       6.490   6.486  16.348  0.00  0.00    +0.000 OA
BRANCH  17  24
ATOM     20  C   UNL     1       6.188   3.602  12.409  0.00  0.00    +0.000 A 
ATOM     21  C   UNL     1       7.149   4.314  11.679  0.00  0.00    +0.000 A 
ATOM     22  C   UNL     1       7.967   5.253  12.315  0.00  0.00    +0.000 A 
ATOM     23  C   UNL     1       7.821   5.489  13.681  0.00  0.00    +0.000 A 
ATOM     24  C   UNL     1       6.856   4.780  14.406  0.00  0.00    +0.000 A 
ATOM     25  C   UNL     1       6.062   3.811  13.785  0.00  0.00    +0.000 A 
BRANCH  20  27
ATOM     26  O   UNL     1       5.740   1.517  11.351  0.00  0.00    +0.000 OA
ATOM     27  C   UNL     1       5.341   2.617  11.688  0.00  0.00    +0.000 C 
BRANCH  27  28
ATOM     28  O   UNL     1       4.106   3.078  11.395  0.00  0.00    +0.000 OA
ATOM     29  H   UNL     1       4.071   3.999  11.077  0.00  0.00    +0.000 HD
ENDBRANCH  27  28
ENDBRANCH  20  27
ENDBRANCH  17  24
ENDBRANCH   1  17
TORSDOF 6
ENDMDL
MODEL 3
REMARK VINA RESULT:      -9.1      1.738      2.209
REMARK  Name = 
REMARK  6 active torsions:
REMARK  status: ('A' for Active; 'I' for Inactive)
REMARK    1  A    between atoms: C_2  and  O_3
REMARK    2  A    between atoms: C_2  and  C_4
REMARK    3  A    between atoms: C_8  and  S_9
REMARK    4  A    between atoms: S_9  and  N_12
REMARK    5  A    between atoms: N_12  and  C_13
REMARK    6  A    between atoms: C_17  and  C_18
REMARK                            x       y       z     vdW  Elec       q    Type
REMARK                         _______ _______ _______ _____ _____    ______ ____
ROOT
ATOM      1  N   UNL     1       2.554   5.988  20.440  0.00  0.00    +0.000 N 
ATOM      2  H   UNL     1       3.140   6.034  21.272  0.00  0.00    +0.000 HD
ENDROOT
BRANCH   1   3
ATOM      3  C   UNL     1       2.191   7.193  19.789  0.00  0.00    +0.000 A 
ATOM      4  C   UNL     1       2.465   7.354  18.432  0.00  0.00    +0.000 A 
ATOM      5  C   UNL     1       2.032   8.496  17.768  0.00  0.00    +0.000 A 
ATOM      6  C   UNL     1       1.340   9.488  18.467  0.00  0.00    +0.000 A 
ATOM      7  C   UNL     1       1.093   9.364  19.842  0.00  0.00    +0.000 A 
ATOM      8  C   UNL     1       1.522   8.196  20.494  0.00  0.00    +0.000 A 
BRANCH   7   9
ATOM      9  C   UNL     1       0.373  10.389  20.597  0.00  0.00    +0.000 A 
ATOM     10  N   UNL     1       0.755  10.936  21.747  0.00  0.00    +0.000 NA
ATOM     11  N   UNL     1      -0.192  11.877  22.150  0.00  0.00    +0.000 NA
ATOM     12  C   UNL     1      -1.110  11.884  21.225  0.00  0.00    +0.000 A 
ATOM     13  N   UNL     1      -0.794  10.983  20.261  0.00  0.00    +0.000 N 
ATOM     14  C   UNL     1      -1.731  10.986  19.163  0.00  0.00    +0.000 C 
ATOM     15  C   UNL     1      -2.529  12.278  19.411  0.00  0.00    +0.000 C 
ATOM     16  C   UNL     1      -2.353  12.608  20.916  0.00  0.00    +0.000 C 
ENDBRANCH   7   9
ENDBRANCH   1   3
BRANCH   1  17
ATOM     17  S   UNL     1       2.592   4.525  19.622  0.00  0.00    +0.000 S 
ATOM     18  O   UNL     1       1.536   4.505  18.632  0.00  0.00    +0.000 OA
ATOM     19  O   UNL     1       2.705   3.494  20.630  0.00  0.00    +0.000 OA
BRANCH  17  24
ATOM     20  C   UNL     1       6.458   5.273  18.675  0.00  0.00    +0.000 A 
ATOM     21  C   UNL     1       6.563   4.733  17.387  0.00  0.00    +0.000 A 
ATOM     22  C   UNL     1       5.456   4.132  16.779  0.00  0.00    +0.000 A 
ATOM     23  C   UNL     1       4.242   4.062  17.461  0.00  0.00    +0.000 A 
ATOM     24  C   UNL     1       4.142   4.597  18.751  0.00  0.00    +0.000 A 
ATOM     25  C   UNL     1       5.234   5.235  19.349  0.00  0.00    +0.000 A 
BRANCH  20  27
ATOM     26  O   UNL     1       8.271   6.814  18.755  0.00  0.00    +0.000 OA
ATOM     27  C   UNL     1       7.662   5.898  19.280  0.00  0.00    +0.000 C 
BRANCH  27  28
ATOM     28  O   UNL     1       8.049   5.319  20.437  0.00  0.00    +0.000 OA
ATOM     29  H   UNL     1       8.193   5.933  21.180  0.00  0.00    +0.000 HD
ENDBRANCH  27  28
ENDBRANCH  20  27
ENDBRANCH  17  24
ENDBRANCH   1  17
TORSDOF 6
ENDMDL
MODEL 4
REMARK VINA RESULT:      -9.1      2.719      4.469
REMARK  Name = 
REMARK  6 active torsions:
REMARK  status: ('A' for Active; 'I' for Inactive)
REMARK    1  A    between atoms: C_2  and  O_3
REMARK    2  A    between atoms: C_2  and  C_4
REMARK    3  A    between atoms: C_8  and  S_9
REMARK    4  A    between atoms: S_9  and  N_12
REMARK    5  A    between atoms: N_12  and  C_13
REMARK    6  A    between atoms: C_17  and  C_18
REMARK                            x       y       z     vdW  Elec       q    Type
REMARK                         _______ _______ _______ _____ _____    ______ ____
ROOT
ATOM      1  N   UNL     1       4.727   4.743  16.387  0.00  0.00    +0.000 N 
ATOM      2  H   UNL     1       4.370   4.130  15.655  0.00  0.00    +0.000 HD
ENDROOT
BRANCH   1   3
ATOM      3  C   UNL     1       4.089   4.747  17.651  0.00  0.00    +0.000 A 
ATOM      4  C   UNL     1       4.196   3.634  18.482  0.00  0.00    +0.000 A 
ATOM      5  C   UNL     1       3.647   3.667  19.759  0.00  0.00    +0.000 A 
ATOM      6  C   UNL     1       2.973   4.809  20.199  0.00  0.00    +0.000 A 
ATOM      7  C   UNL     1       2.816   5.922  19.360  0.00  0.00    +0.000 A 
ATOM      8  C   UNL     1       3.392   5.879  18.080  0.00  0.00    +0.000 A 
BRANCH   7   9
ATOM      9  C   UNL     1       2.113   7.128  19.795  0.00  0.00    +0.000 A 
ATOM     10  N   UNL     1       1.587   7.345  20.997  0.00  0.00    +0.000 NA
ATOM     11  N   UNL     1       1.005   8.611  21.028  0.00  0.00    +0.000 NA
ATOM     12  C   UNL     1       1.209   9.130  19.850  0.00  0.00    +0.000 A 
ATOM     13  N   UNL     1       1.883   8.247  19.071  0.00  0.00    +0.000 N 
ATOM     14  C   UNL     1       2.209   8.781  17.771  0.00  0.00    +0.000 C 
ATOM     15  C   UNL     1       1.930  10.284  17.951  0.00  0.00    +0.000 C 
ATOM     16  C   UNL     1       0.952  10.398  19.149  0.00  0.00    +0.000 C 
ENDBRANCH   7   9
ENDBRANCH   1   3
BRANCH   1  17
ATOM     17  S   UNL     1       6.330   5.201  16.211  0.00  0.00    +0.000 S 
ATOM     18  O   UNL     1       7.165   4.327  17.008  0.00  0.00    +0.000 OA
ATOM     19  O   UNL     1       6.367   6.638  16.375  0.00  0.00    +0.000 OA
BRANCH  17  24
ATOM     20  C   UNL     1       6.140   3.612  12.492  0.00  0.00    +0.000 A 
ATOM     21  C   UNL     1       7.186   4.270  11.829  0.00  0.00    +0.000 A 
ATOM     22  C   UNL     1       7.972   5.208  12.504  0.00  0.00    +0.000 A 
ATOM     23  C   UNL     1       7.710   5.500  13.842  0.00  0.00    +0.000 A 
ATOM     24  C   UNL     1       6.661   4.846  14.499  0.00  0.00    +0.000 A 
ATOM     25  C   UNL     1       5.896   3.877  13.842  0.00  0.00    +0.000 A 
BRANCH  20  27
ATOM     26  O   UNL     1       4.222   2.870  11.294  0.00  0.00    +0.000 OA
ATOM     27  C   UNL     1       5.332   2.625  11.731  0.00  0.00    +0.000 C 
BRANCH  27  28
ATOM     28  O   UNL     1       5.923   1.417  11.616  0.00  0.00    +0.000 OA
ATOM     29  H   UNL     1       5.805   0.976  10.755  0.00  0.00    +0.000 HD
ENDBRANCH  27  28
ENDBRANCH  20  27
ENDBRANCH  17  24
ENDBRANCH   1  17
TORSDOF 6
ENDMDL
MODEL 5
REMARK VINA RESULT:      -9.1      4.157      5.909
REMARK  Name = 
REMARK  6 active torsions:
REMARK  status: ('A' for Active; 'I' for Inactive)
REMARK    1  A    between atoms: C_2  and  O_3
REMARK    2  A    between atoms: C_2  and  C_4
REMARK    3  A    between atoms: C_8  and  S_9
REMARK    4  A    between atoms: S_9  and  N_12
REMARK    5  A    between atoms: N_12  and  C_13
REMARK    6  A    between atoms: C_17  and  C_18
REMARK                            x       y       z     vdW  Elec       q    Type
REMARK                         _______ _______ _______ _____ _____    ______ ____
ROOT
ATOM      1  N   UNL     1       5.776   6.382  16.225  0.00  0.00    +0.000 N 
ATOM      2  H   UNL     1       5.995   7.016  15.459  0.00  0.00    +0.000 HD
ENDROOT
BRANCH   1   3
ATOM      3  C   UNL     1       4.578   6.575  16.957  0.00  0.00    +0.000 A 
ATOM      4  C   UNL     1       4.074   7.862  17.127  0.00  0.00    +0.000 A 
ATOM      5  C   UNL     1       2.854   8.049  17.768  0.00  0.00    +0.000 A 
ATOM      6  C   UNL     1       2.146   6.948  18.256  0.00  0.00    +0.000 A 
ATOM      7  C   UNL     1       2.660   5.648  18.133  0.00  0.00    +0.000 A 
ATOM      8  C   UNL     1       3.885   5.475  17.467  0.00  0.00    +0.000 A 
BRANCH   7   9
ATOM      9  C   UNL     1       1.940   4.479  18.637  0.00  0.00    +0.000 A 
ATOM     10  N   UNL     1       1.242   3.609  17.913  0.00  0.00    +0.000 NA
ATOM     11  N   UNL     1       0.708   2.632  18.751  0.00  0.00    +0.000 NA
ATOM     12  C   UNL     1       1.111   2.929  19.955  0.00  0.00    +0.000 A 
ATOM     13  N   UNL     1       1.866   4.056  19.919  0.00  0.00    +0.000 N 
ATOM     14  C   UNL     1       2.408   4.408  21.209  0.00  0.00    +0.000 C 
ATOM     15  C   UNL     1       2.158   3.132  22.033  0.00  0.00    +0.000 C 
ATOM     16  C   UNL     1       1.011   2.375  21.314  0.00  0.00    +0.000 C 
ENDBRANCH   7   9
ENDBRANCH   1   3
BRANCH   1  17
ATOM     17  S   UNL     1       6.519   4.881  16.140  0.00  0.00    +0.000 S 
ATOM     18  O   UNL     1       5.598   3.866  16.606  0.00  0.00    +0.000 OA
ATOM     19  O   UNL     1       7.831   5.038  16.727  0.00  0.00    +0.000 OA
BRANCH  17  24
ATOM     20  C   UNL     1       6.134   3.500  12.353  0.00  0.00    +0.000 A 
ATOM     21  C   UNL     1       7.091   4.253  11.658  0.00  0.00    +0.000 A 
ATOM     22  C   UNL     1       7.875   5.194  12.332  0.00  0.00    +0.000 A 
ATOM     23  C   UNL     1       7.699   5.393  13.701  0.00  0.00    +0.000 A 
ATOM     24  C   UNL     1       6.738   4.644  14.390  0.00  0.00    +0.000 A 
ATOM     25  C   UNL     1       5.978   3.673  13.731  0.00  0.00    +0.000 A 
BRANCH  20  27
ATOM     26  O   UNL     1       4.216   2.763  11.151  0.00  0.00    +0.000 OA
ATOM     27  C   UNL     1       5.323   2.515  11.592  0.00  0.00    +0.000 C 
BRANCH  27  28
ATOM     28  O   UNL     1       5.909   1.302  11.484  0.00  0.00    +0.000 OA
ATOM     29  H   UNL     1       5.475   0.586  11.983  0.00  0.00    +0.000 HD
ENDBRANCH  27  28
ENDBRANCH  20  27
ENDBRANCH  17  24
ENDBRANCH   1  17
TORSDOF 6
ENDMDL
MODEL 6
REMARK VINA RESULT:      -9.0      1.547      1.958
REMARK  Name = 
REMARK  6 active torsions:
REMARK  status: ('A' for Active; 'I' for Inactive)
REMARK    1  A    between atoms: C_2  and  O_3
REMARK    2  A    between atoms: C_2  and  C_4
REMARK    3  A    between atoms: C_8  and  S_9
REMARK    4  A    between atoms: S_9  and  N_12
REMARK    5  A    between atoms: N_12  and  C_13
REMARK    6  A    between atoms: C_17  and  C_18
REMARK                            x       y       z     vdW  Elec       q    Type
REMARK                         _______ _______ _______ _____ _____    ______ ____
ROOT
ATOM      1  N   UNL     1       2.997   6.090  19.910  0.00  0.00    +0.000 N 
ATOM      2  H   UNL     1       3.818   6.099  20.514  0.00  0.00    +0.000 HD
ENDROOT
BRANCH   1   3
ATOM      3  C   UNL     1       2.334   7.310  19.631  0.00  0.00    +0.000 A 
ATOM      4  C   UNL     1       2.333   7.815  18.333  0.00  0.00    +0.000 A 
ATOM      5  C   UNL     1       1.610   8.965  18.037  0.00  0.00    +0.000 A 
ATOM      6  C   UNL     1       0.902   9.623  19.046  0.00  0.00    +0.000 A 
ATOM      7  C   UNL     1       0.928   9.155  20.368  0.00  0.00    +0.000 A 
ATOM      8  C   UNL     1       1.648   7.981  20.647  0.00  0.00    +0.000 A 
BRANCH   7   9
ATOM      9  C   UNL     1       0.198   9.826  21.443  0.00  0.00    +0.000 A 
ATOM     10  N   UNL     1      -0.291   9.257  22.541  0.00  0.00    +0.000 NA
ATOM     11  N   UNL     1      -0.916  10.224  23.326  0.00  0.00    +0.000 NA
ATOM     12  C   UNL     1      -0.775  11.353  22.689  0.00  0.00    +0.000 A 
ATOM     13  N   UNL     1      -0.099  11.143  21.531  0.00  0.00    +0.000 N 
ATOM     14  C   UNL     1       0.160  12.362  20.805  0.00  0.00    +0.000 C 
ATOM     15  C   UNL     1      -0.166  13.446  21.848  0.00  0.00    +0.000 C 
ATOM     16  C   UNL     1      -1.102  12.774  22.885  0.00  0.00    +0.000 C 
ENDBRANCH   7   9
ENDBRANCH   1   3
BRANCH   1  17
ATOM     17  S   UNL     1       2.895   4.779  18.869  0.00  0.00    +0.000 S 
ATOM     18  O   UNL     1       1.752   4.950  17.998  0.00  0.00    +0.000 OA
ATOM     19  O   UNL     1       3.054   3.594  19.684  0.00  0.00    +0.000 OA
BRANCH  17  24
ATOM     20  C   UNL     1       6.481   6.019  17.455  0.00  0.00    +0.000 A 
ATOM     21  C   UNL     1       6.643   5.230  16.309  0.00  0.00    +0.000 A 
ATOM     22  C   UNL     1       5.659   4.306  15.941  0.00  0.00    +0.000 A 
ATOM     23  C   UNL     1       4.515   4.161  16.725  0.00  0.00    +0.000 A 
ATOM     24  C   UNL     1       4.360   4.947  17.873  0.00  0.00    +0.000 A 
ATOM     25  C   UNL     1       5.320   5.901  18.225  0.00  0.00    +0.000 A 
BRANCH  20  27
ATOM     26  O   UNL     1       7.851   7.933  17.102  0.00  0.00    +0.000 OA
ATOM     27  C   UNL     1       7.555   6.984  17.805  0.00  0.00    +0.000 C 
BRANCH  27  28
ATOM     28  O   UNL     1       8.204   6.678  18.949  0.00  0.00    +0.000 OA
ATOM     29  H   UNL     1       8.527   5.761  19.011  0.00  0.00    +0.000 HD
ENDBRANCH  27  28
ENDBRANCH  20  27
ENDBRANCH  17  24
ENDBRANCH   1  17
TORSDOF 6
ENDMDL
MODEL 7
REMARK VINA RESULT:      -9.0      2.692      3.951
REMARK  Name = 
REMARK  6 active torsions:
REMARK  status: ('A' for Active; 'I' for Inactive)
REMARK    1  A    between atoms: C_2  and  O_3
REMARK    2  A    between atoms: C_2  and  C_4
REMARK    3  A    between atoms: C_8  and  S_9
REMARK    4  A    between atoms: S_9  and  N_12
REMARK    5  A    between atoms: N_12  and  C_13
REMARK    6  A    between atoms: C_17  and  C_18
REMARK                            x       y       z     vdW  Elec       q    Type
REMARK                         _______ _______ _______ _____ _____    ______ ____
ROOT
ATOM      1  N   UNL     1       6.171   4.063  18.976  0.00  0.00    +0.000 N 
ATOM      2  H   UNL     1       6.453   3.681  19.878  0.00  0.00    +0.000 HD
ENDROOT
BRANCH   1   3
ATOM      3  C   UNL     1       4.796   4.287  18.724  0.00  0.00    +0.000 A 
ATOM      4  C   UNL     1       4.064   3.348  18.000  0.00  0.00    +0.000 A 
ATOM      5  C   UNL     1       2.696   3.519  17.826  0.00  0.00    +0.000 A 
ATOM      6  C   UNL     1       2.060   4.642  18.361  0.00  0.00    +0.000 A 
ATOM      7  C   UNL     1       2.787   5.621  19.055  0.00  0.00    +0.000 A 
ATOM      8  C   UNL     1       4.166   5.423  19.237  0.00  0.00    +0.000 A 
BRANCH   7   9
ATOM      9  C   UNL     1       2.146   6.806  19.623  0.00  0.00    +0.000 A 
ATOM     10  N   UNL     1       1.686   6.938  20.863  0.00  0.00    +0.000 NA
ATOM     11  N   UNL     1       1.150   8.213  21.027  0.00  0.00    +0.000 NA
ATOM     12  C   UNL     1       1.314   8.823  19.887  0.00  0.00    +0.000 A 
ATOM     13  N   UNL     1       1.920   7.988  19.005  0.00  0.00    +0.000 N 
ATOM     14  C   UNL     1       2.201   8.619  17.738  0.00  0.00    +0.000 C 
ATOM     15  C   UNL     1       1.982  10.109  18.053  0.00  0.00    +0.000 C 
ATOM     16  C   UNL     1       1.067  10.152  19.305  0.00  0.00    +0.000 C 
ENDBRANCH   7   9
ENDBRANCH   1   3
BRANCH   1  17
ATOM     17  S   UNL     1       7.362   4.918  18.162  0.00  0.00    +0.000 S 
ATOM     18  O   UNL     1       8.488   4.043  17.910  0.00  0.00    +0.000 OA
ATOM     19  O   UNL     1       7.521   6.172  18.864  0.00  0.00    +0.000 OA
BRANCH  17  24
ATOM     20  C   UNL     1       6.315   4.760  14.253  0.00  0.00    +0.000 A 
ATOM     21  C   UNL     1       5.422   5.833  14.137  0.00  0.00    +0.000 A 
ATOM     22  C   UNL     1       5.124   6.629  15.247  0.00  0.00    +0.000 A 
ATOM     23  C   UNL     1       5.710   6.349  16.480  0.00  0.00    +0.000 A 
ATOM     24  C   UNL     1       6.597   5.272  16.595  0.00  0.00    +0.000 A 
ATOM     25  C   UNL     1       6.932   4.496  15.480  0.00  0.00    +0.000 A 
BRANCH  20  27
ATOM     26  O   UNL     1       7.271   4.343  12.113  0.00  0.00    +0.000 OA
ATOM     27  C   UNL     1       6.598   3.942  13.046  0.00  0.00    +0.000 C 
BRANCH  27  28
ATOM     28  O   UNL     1       5.995   2.734  13.058  0.00  0.00    +0.000 OA
ATOM     29  H   UNL     1       5.623   2.464  13.917  0.00  0.00    +0.000 HD
ENDBRANCH  27  28
ENDBRANCH  20  27
ENDBRANCH  17  24
ENDBRANCH   1  17
TORSDOF 6
ENDMDL
MODEL 8
REMARK VINA RESULT:      -8.9      4.323      8.384
REMARK  Name = 
REMARK  6 active torsions:
REMARK  status: ('A' for Active; 'I' for Inactive)
REMARK    1  A    between atoms: C_2  and  O_3
REMARK    2  A    between atoms: C_2  and  C_4
REMARK    3  A    between atoms: C_8  and  S_9
REMARK    4  A    between atoms: S_9  and  N_12
REMARK    5  A    between atoms: N_12  and  C_13
REMARK    6  A    between atoms: C_17  and  C_18
REMARK                            x       y       z     vdW  Elec       q    Type
REMARK                         _______ _______ _______ _____ _____    ______ ____
ROOT
ATOM      1  N   UNL     1       4.122   2.749  18.328  0.00  0.00    +0.000 N 
ATOM      2  H   UNL     1       4.414   1.776  18.262  0.00  0.00    +0.000 HD
ENDROOT
BRANCH   1   3
ATOM      3  C   UNL     1       5.066   3.770  18.057  0.00  0.00    +0.000 A 
ATOM      4  C   UNL     1       5.532   4.573  19.095  0.00  0.00    +0.000 A 
ATOM      5  C   UNL     1       6.523   5.517  18.850  0.00  0.00    +0.000 A 
ATOM      6  C   UNL     1       7.036   5.671  17.560  0.00  0.00    +0.000 A 
ATOM      7  C   UNL     1       6.548   4.901  16.493  0.00  0.00    +0.000 A 
ATOM      8  C   UNL     1       5.559   3.940  16.761  0.00  0.00    +0.000 A 
BRANCH   7   9
ATOM      9  C   UNL     1       7.067   5.044  15.133  0.00  0.00    +0.000 A 
ATOM     10  N   UNL     1       8.140   5.738  14.767  0.00  0.00    +0.000 NA
ATOM     11  N   UNL     1       8.314   5.630  13.388  0.00  0.00    +0.000 NA
ATOM     12  C   UNL     1       7.351   4.862  12.962  0.00  0.00    +0.000 A 
ATOM     13  N   UNL     1       6.569   4.488  14.006  0.00  0.00    +0.000 N 
ATOM     14  C   UNL     1       5.520   3.575  13.620  0.00  0.00    +0.000 C 
ATOM     15  C   UNL     1       5.953   3.150  12.206  0.00  0.00    +0.000 C 
ATOM     16  C   UNL     1       6.901   4.265  11.695  0.00  0.00    +0.000 C 
ENDBRANCH   7   9
ENDBRANCH   1   3
BRANCH   1  17
ATOM     17  S   UNL     1       2.474   3.011  18.158  0.00  0.00    +0.000 S 
ATOM     18  O   UNL     1       1.754   2.056  18.973  0.00  0.00    +0.000 OA
ATOM     19  O   UNL     1       2.222   3.136  16.739  0.00  0.00    +0.000 OA
BRANCH  17  24
ATOM     20  C   UNL     1       2.167   7.018  18.652  0.00  0.00    +0.000 A 
ATOM     21  C   UNL     1       1.918   7.135  20.026  0.00  0.00    +0.000 A 
ATOM     22  C   UNL     1       1.843   5.993  20.831  0.00  0.00    +0.000 A 
ATOM     23  C   UNL     1       2.006   4.731  20.262  0.00  0.00    +0.000 A 
ATOM     24  C   UNL     1       2.249   4.618  18.888  0.00  0.00    +0.000 A 
ATOM     25  C   UNL     1       2.365   5.756  18.084  0.00  0.00    +0.000 A 
BRANCH  20  27
ATOM     26  O   UNL     1       1.355   9.101  17.833  0.00  0.00    +0.000 OA
ATOM     27  C   UNL     1       2.235   8.259  17.839  0.00  0.00    +0.000 C 
BRANCH  27  28
ATOM     28  O   UNL     1       3.341   8.340  17.068  0.00  0.00    +0.000 OA
ATOM     29  H   UNL     1       4.183   8.173  17.530  0.00  0.00    +0.000 HD
ENDBRANCH  27  28
ENDBRANCH  20  27
ENDBRANCH  17  24
ENDBRANCH   1  17
TORSDOF 6
ENDMDL
MODEL 9
REMARK VINA RESULT:      -8.9      0.900      1.672
REMARK  Name = 
REMARK  6 active torsions:
REMARK  status: ('A' for Active; 'I' for Inactive)
REMARK    1  A    between atoms: C_2  and  O_3
REMARK    2  A    between atoms: C_2  and  C_4
REMARK    3  A    between atoms: C_8  and  S_9
REMARK    4  A    between atoms: S_9  and  N_12
REMARK    5  A    between atoms: N_12  and  C_13
REMARK    6  A    between atoms: C_17  and  C_18
REMARK                            x       y       z     vdW  Elec       q    Type
REMARK                         _______ _______ _______ _____ _____    ______ ____
ROOT
ATOM      1  N   UNL     1       3.061   5.712  19.988  0.00  0.00    +0.000 N 
ATOM      2  H   UNL     1       3.485   5.761  20.913  0.00  0.00    +0.000 HD
ENDROOT
BRANCH   1   3
ATOM      3  C   UNL     1       2.689   6.914  19.339  0.00  0.00    +0.000 A 
ATOM      4  C   UNL     1       3.175   7.189  18.062  0.00  0.00    +0.000 A 
ATOM      5  C   UNL     1       2.743   8.324  17.385  0.00  0.00    +0.000 A 
ATOM      6  C   UNL     1       1.837   9.196  17.993  0.00  0.00    +0.000 A 
ATOM      7  C   UNL     1       1.371   8.960  19.295  0.00  0.00    +0.000 A 
ATOM      8  C   UNL     1       1.803   7.800  19.959  0.00  0.00    +0.000 A 
BRANCH   7   9
ATOM      9  C   UNL     1       0.425   9.859  19.955  0.00  0.00    +0.000 A 
ATOM     10  N   UNL     1      -0.416  10.698  19.357  0.00  0.00    +0.000 NA
ATOM     11  N   UNL     1      -1.156  11.380  20.321  0.00  0.00    +0.000 NA
ATOM     12  C   UNL     1      -0.754  10.923  21.474  0.00  0.00    +0.000 A 
ATOM     13  N   UNL     1       0.215   9.992  21.284  0.00  0.00    +0.000 N 
ATOM     14  C   UNL     1       0.659   9.387  22.517  0.00  0.00    +0.000 C 
ATOM     15  C   UNL     1      -0.421   9.838  23.516  0.00  0.00    +0.000 C 
ATOM     16  C   UNL     1      -1.076  11.101  22.899  0.00  0.00    +0.000 C 
ENDBRANCH   7   9
ENDBRANCH   1   3
BRANCH   1  17
ATOM     17  S   UNL     1       3.400   4.316  19.123  0.00  0.00    +0.000 S 
ATOM     18  O   UNL     1       2.453   4.188  18.036  0.00  0.00    +0.000 OA
ATOM     19  O   UNL     1       3.579   3.262  20.098  0.00  0.00    +0.000 OA
BRANCH  17  24
ATOM     20  C   UNL     1       6.447   4.708  16.485  0.00  0.00    +0.000 A 
ATOM     21  C   UNL     1       7.485   5.190  17.293  0.00  0.00    +0.000 A 
ATOM     22  C   UNL     1       7.278   5.403  18.660  0.00  0.00    +0.000 A 
ATOM     23  C   UNL     1       6.029   5.142  19.222  0.00  0.00    +0.000 A 
ATOM     24  C   UNL     1       4.992   4.666  18.411  0.00  0.00    +0.000 A 
ATOM     25  C   UNL     1       5.203   4.414  17.051  0.00  0.00    +0.000 A 
BRANCH  20  27
ATOM     26  O   UNL     1       6.164   3.641  14.376  0.00  0.00    +0.000 OA
ATOM     27  C   UNL     1       6.715   4.501  15.039  0.00  0.00    +0.000 C 
BRANCH  27  28
ATOM     28  O   UNL     1       7.666   5.322  14.543  0.00  0.00    +0.000 OA
ATOM     29  H   UNL     1       7.820   5.248  13.584  0.00  0.00    +0.000 HD
ENDBRANCH  27  28
ENDBRANCH  20  27
ENDBRANCH  17  24
ENDBRANCH   1  17
TORSDOF 6
ENDMDL
