MODEL 1
REMARK VINA RESULT:      -8.7      0.000      0.000
REMARK  Name = 
REMARK  6 active torsions:
REMARK  status: ('A' for Active; 'I' for Inactive)
REMARK    1  A    between atoms: C_1  and  C_2
REMARK    2  A    between atoms: C_6  and  O_7
REMARK    3  A    between atoms: O_7  and  C_8
REMARK    4  A    between atoms: C_13  and  C_14
REMARK    5  A    between atoms: C_14  and  N_15
REMARK    6  A    between atoms: N_18  and  C_19
REMARK                            x       y       z     vdW  Elec       q    Type
REMARK                         _______ _______ _______ _____ _____    ______ ____
ROOT
ATOM      1  C   UNL     1       2.282   6.293  20.236  0.00  0.00    +0.000 C 
ENDROOT
BRANCH   1   7
ATOM      2  C   UNL     1       2.479   4.618  18.300  0.00  0.00    +0.000 A 
ATOM      3  C   UNL     1       2.197   3.345  17.772  0.00  0.00    +0.000 A 
ATOM      4  C   UNL     1       1.333   2.473  18.430  0.00  0.00    +0.000 A 
ATOM      5  C   UNL     1       0.803   2.830  19.663  0.00  0.00    +0.000 A 
ATOM      6  C   UNL     1       1.152   4.053  20.240  0.00  0.00    +0.000 A 
ATOM      7  C   UNL     1       1.993   4.966  19.572  0.00  0.00    +0.000 A 
BRANCH   2   8
ATOM      8  O   UNL     1       3.243   5.551  17.617  0.00  0.00    +0.000 OA
BRANCH   8  14
ATOM      9  C   UNL     1       7.854   5.739  19.233  0.00  0.00    +0.000 C 
ATOM     10  C   UNL     1       6.856   5.312  18.197  0.00  0.00    +0.000 A 
ATOM     11  C   UNL     1       7.267   4.590  17.069  0.00  0.00    +0.000 A 
ATOM     12  C   UNL     1       6.350   4.256  16.073  0.00  0.00    +0.000 A 
ATOM     13  C   UNL     1       5.013   4.626  16.205  0.00  0.00    +0.000 A 
ATOM     14  C   UNL     1       4.572   5.259  17.371  0.00  0.00    +0.000 A 
ATOM     15  C   UNL     1       5.500   5.640  18.345  0.00  0.00    +0.000 A 
ENDBRANCH   8  14
ENDBRANCH   2   8
ENDBRANCH   1   7
BRANCH   1  16
ATOM     16  N   UNL     1       2.095   7.428  19.353  0.00  0.00    +0.000 N 
ATOM     17  C   UNL     1       1.585   8.604  19.853  0.00  0.00    +0.000 C 
ATOM     18  O   UNL     1       1.395   8.828  21.037  0.00  0.00    +0.000 OA
ATOM     19  N   UNL     1       1.309   9.504  18.858  0.00  0.00    +0.000 N 
ATOM     20  H   UNL     1       1.810   7.193  18.414  0.00  0.00    +0.000 HD
ATOM     21  H   UNL     1       1.842   9.391  18.009  0.00  0.00    +0.000 HD
BRANCH  19  22
ATOM     22  C   UNL     1       0.782  10.834  19.181  0.00  0.00    +0.000 C 
ATOM     23  C   UNL     1      -0.590  11.045  18.517  0.00  0.00    +0.000 C 
ATOM     24  C   UNL     1      -1.219  12.365  18.977  0.00  0.00    +0.000 C 
ATOM     25  C   UNL     1      -0.245  13.481  18.897  0.00  0.00    +0.000 A 
ATOM     26  N   UNL     1      -0.470  14.775  18.880  0.00  0.00    +0.000 NA
ATOM     27  C   UNL     1       0.791  15.306  18.813  0.00  0.00    +0.000 A 
ATOM     28  N   UNL     1       1.785  14.415  18.779  0.00  0.00    +0.000 NA
ATOM     29  N   UNL     1       1.105  13.260  18.859  0.00  0.00    +0.000 N 
ATOM     30  C   UNL     1       1.751  11.968  18.788  0.00  0.00    +0.000 C 
ENDBRANCH  19  22
ENDBRANCH   1  16
TORSDOF 5
ENDMDL
MODEL 2
REMARK VINA RESULT:      -8.6      0.668      1.455
REMARK  Name = 
REMARK  6 active torsions:
REMARK  status: ('A' for Active; 'I' for Inactive)
REMARK    1  A    between atoms: C_1  and  C_2
REMARK    2  A    between atoms: C_6  and  O_7
REMARK    3  A    between atoms: O_7  and  C_8
REMARK    4  A    between atoms: C_13  and  C_14
REMARK    5  A    between atoms: C_14  and  N_15
REMARK    6  A    between atoms: N_18  and  C_19
REMARK                            x       y       z     vdW  Elec       q    Type
REMARK                         _______ _______ _______ _____ _____    ______ ____
ROOT
ATOM      1  C   UNL     1       2.304   6.101  20.477  0.00  0.00    +0.000 C 
ENDROOT
BRANCH   1   7
ATOM      2  C   UNL     1       2.430   4.511  18.465  0.00  0.00    +0.000 A 
ATOM      3  C   UNL     1       2.100   3.274  17.882  0.00  0.00    +0.000 A 
ATOM      4  C   UNL     1       1.212   2.402  18.508  0.00  0.00    +0.000 A 
ATOM      5  C   UNL     1       0.704   2.720  19.760  0.00  0.00    +0.000 A 
ATOM      6  C   UNL     1       1.099   3.903  20.390  0.00  0.00    +0.000 A 
ATOM      7  C   UNL     1       1.965   4.817  19.756  0.00  0.00    +0.000 A 
BRANCH   2   8
ATOM      8  O   UNL     1       3.219   5.449  17.818  0.00  0.00    +0.000 OA
BRANCH   8  14
ATOM      9  C   UNL     1       6.511   4.174  14.434  0.00  0.00    +0.000 C 
ATOM     10  C   UNL     1       6.177   4.535  15.853  0.00  0.00    +0.000 A 
ATOM     11  C   UNL     1       7.182   4.599  16.826  0.00  0.00    +0.000 A 
ATOM     12  C   UNL     1       6.860   4.865  18.156  0.00  0.00    +0.000 A 
ATOM     13  C   UNL     1       5.534   5.086  18.521  0.00  0.00    +0.000 A 
ATOM     14  C   UNL     1       4.534   5.123  17.543  0.00  0.00    +0.000 A 
ATOM     15  C   UNL     1       4.849   4.805  16.219  0.00  0.00    +0.000 A 
ENDBRANCH   8  14
ENDBRANCH   2   8
ENDBRANCH   1   7
BRANCH   1  16
ATOM     16  N   UNL     1       2.081   7.286  19.672  0.00  0.00    +0.000 N 
ATOM     17  C   UNL     1       1.573   8.424  20.257  0.00  0.00    +0.000 C 
ATOM     18  O   UNL     1       1.414   8.572  21.457  0.00  0.00    +0.000 OA
ATOM     19  N   UNL     1       1.261   9.380  19.327  0.00  0.00    +0.000 N 
ATOM     20  H   UNL     1       1.772   7.107  18.728  0.00  0.00    +0.000 HD
ATOM     21  H   UNL     1       1.772   9.325  18.459  0.00  0.00    +0.000 HD
BRANCH  19  22
ATOM     22  C   UNL     1       0.730  10.681  19.745  0.00  0.00    +0.000 C 
ATOM     23  C   UNL     1      -0.807  10.686  19.668  0.00  0.00    +0.000 C 
ATOM     24  C   UNL     1      -1.375  11.983  20.253  0.00  0.00    +0.000 C 
ATOM     25  C   UNL     1      -0.664  13.171  19.722  0.00  0.00    +0.000 A 
ATOM     26  N   UNL     1      -1.045  14.428  19.711  0.00  0.00    +0.000 NA
ATOM     27  C   UNL     1       0.011  15.065  19.115  0.00  0.00    +0.000 A 
ATOM     28  N   UNL     1       1.023  14.275  18.748  0.00  0.00    +0.000 NA
ATOM     29  N   UNL     1       0.583  13.076  19.166  0.00  0.00    +0.000 N 
ATOM     30  C   UNL     1       1.315  11.852  18.928  0.00  0.00    +0.000 C 
ENDBRANCH  19  22
ENDBRANCH   1  16
TORSDOF 5
ENDMDL
MODEL 3
REMARK VINA RESULT:      -8.5      3.057      9.136
REMARK  Name = 
REMARK  6 active torsions:
REMARK  status: ('A' for Active; 'I' for Inactive)
REMARK    1  A    between atoms: C_1  and  C_2
REMARK    2  A    between atoms: C_6  and  O_7
REMARK    3  A    between atoms: O_7  and  C_8
REMARK    4  A    between atoms: C_13  and  C_14
REMARK    5  A    between atoms: C_14  and  N_15
REMARK    6  A    between atoms: N_18  and  C_19
REMARK                            x       y       z     vdW  Elec       q    Type
REMARK                         _______ _______ _______ _____ _____    ______ ____
ROOT
ATOM      1  C   UNL     1       0.842   9.875  19.448  0.00  0.00    +0.000 C 
ENDROOT
BRANCH   1   7
ATOM      2  C   UNL     1      -0.787  11.320  20.809  0.00  0.00    +0.000 A 
ATOM      3  C   UNL     1      -1.467  11.559  22.017  0.00  0.00    +0.000 A 
ATOM      4  C   UNL     1      -1.175  10.821  23.162  0.00  0.00    +0.000 A 
ATOM      5  C   UNL     1      -0.257   9.782  23.093  0.00  0.00    +0.000 A 
ATOM      6  C   UNL     1       0.354   9.474  21.876  0.00  0.00    +0.000 A 
ATOM      7  C   UNL     1       0.102  10.234  20.716  0.00  0.00    +0.000 A 
BRANCH   2   8
ATOM      8  O   UNL     1      -0.972  12.108  19.685  0.00  0.00    +0.000 OA
BRANCH   8  14
ATOM      9  C   UNL     1      -2.816  10.605  15.412  0.00  0.00    +0.000 C 
ATOM     10  C   UNL     1      -3.020  11.112  16.810  0.00  0.00    +0.000 A 
ATOM     11  C   UNL     1      -4.311  11.297  17.318  0.00  0.00    +0.000 A 
ATOM     12  C   UNL     1      -4.499  11.834  18.591  0.00  0.00    +0.000 A 
ATOM     13  C   UNL     1      -3.397  12.174  19.373  0.00  0.00    +0.000 A 
ATOM     14  C   UNL     1      -2.103  11.903  18.916  0.00  0.00    +0.000 A 
ATOM     15  C   UNL     1      -1.914  11.413  17.621  0.00  0.00    +0.000 A 
ENDBRANCH   8  14
ENDBRANCH   2   8
ENDBRANCH   1   7
BRANCH   1  16
ATOM     16  N   UNL     1       1.666   8.690  19.581  0.00  0.00    +0.000 N 
ATOM     17  C   UNL     1       2.195   8.097  18.458  0.00  0.00    +0.000 C 
ATOM     18  O   UNL     1       2.143   8.570  17.335  0.00  0.00    +0.000 OA
ATOM     19  N   UNL     1       2.793   6.898  18.747  0.00  0.00    +0.000 N 
ATOM     20  H   UNL     1       1.386   8.058  20.317  0.00  0.00    +0.000 HD
ATOM     21  H   UNL     1       3.121   6.793  19.696  0.00  0.00    +0.000 HD
BRANCH  19  22
ATOM     22  C   UNL     1       3.444   6.116  17.692  0.00  0.00    +0.000 C 
ATOM     23  C   UNL     1       3.446   4.620  18.054  0.00  0.00    +0.000 C 
ATOM     24  C   UNL     1       3.980   3.781  16.888  0.00  0.00    +0.000 C 
ATOM     25  C   UNL     1       5.236   4.351  16.344  0.00  0.00    +0.000 A 
ATOM     26  N   UNL     1       6.152   3.776  15.598  0.00  0.00    +0.000 NA
ATOM     27  C   UNL     1       7.061   4.780  15.397  0.00  0.00    +0.000 A 
ATOM     28  N   UNL     1       6.766   5.944  15.981  0.00  0.00    +0.000 NA
ATOM     29  N   UNL     1       5.588   5.656  16.559  0.00  0.00    +0.000 N 
ATOM     30  C   UNL     1       4.878   6.601  17.392  0.00  0.00    +0.000 C 
ENDBRANCH  19  22
ENDBRANCH   1  16
TORSDOF 5
ENDMDL
MODEL 4
REMARK VINA RESULT:      -8.4      2.057      2.708
REMARK  Name = 
REMARK  6 active torsions:
REMARK  status: ('A' for Active; 'I' for Inactive)
REMARK    1  A    between atoms: C_1  and  C_2
REMARK    2  A    between atoms: C_6  and  O_7
REMARK    3  A    between atoms: O_7  and  C_8
REMARK    4  A    between atoms: C_13  and  C_14
REMARK    5  A    between atoms: C_14  and  N_15
REMARK    6  A    between atoms: N_18  and  C_19
REMARK                            x       y       z     vdW  Elec       q    Type
REMARK                         _______ _______ _______ _____ _____    ______ ____
ROOT
ATOM      1  C   UNL     1       2.645   6.320  20.139  0.00  0.00    +0.000 C 
ENDROOT
BRANCH   1   7
ATOM      2  C   UNL     1       2.494   4.571  18.264  0.00  0.00    +0.000 A 
ATOM      3  C   UNL     1       2.050   3.312  17.822  0.00  0.00    +0.000 A 
ATOM      4  C   UNL     1       1.189   2.542  18.601  0.00  0.00    +0.000 A 
ATOM      5  C   UNL     1       0.824   2.986  19.865  0.00  0.00    +0.000 A 
ATOM      6  C   UNL     1       1.335   4.191  20.352  0.00  0.00    +0.000 A 
ATOM      7  C   UNL     1       2.175   5.003  19.564  0.00  0.00    +0.000 A 
BRANCH   2   8
ATOM      8  O   UNL     1       3.258   5.410  17.469  0.00  0.00    +0.000 OA
BRANCH   8  14
ATOM      9  C   UNL     1       6.539   4.078  14.096  0.00  0.00    +0.000 C 
ATOM     10  C   UNL     1       6.204   4.433  15.515  0.00  0.00    +0.000 A 
ATOM     11  C   UNL     1       7.203   4.458  16.497  0.00  0.00    +0.000 A 
ATOM     12  C   UNL     1       6.878   4.719  17.827  0.00  0.00    +0.000 A 
ATOM     13  C   UNL     1       5.556   4.974  18.185  0.00  0.00    +0.000 A 
ATOM     14  C   UNL     1       4.566   5.050  17.200  0.00  0.00    +0.000 A 
ATOM     15  C   UNL     1       4.881   4.737  15.875  0.00  0.00    +0.000 A 
ENDBRANCH   8  14
ENDBRANCH   2   8
ENDBRANCH   1   7
BRANCH   1  16
ATOM     16  N   UNL     1       1.664   6.953  20.998  0.00  0.00    +0.000 N 
ATOM     17  C   UNL     1       1.309   8.264  20.780  0.00  0.00    +0.000 C 
ATOM     18  O   UNL     1       1.659   8.924  19.815  0.00  0.00    +0.000 OA
ATOM     19  N   UNL     1       0.513   8.751  21.782  0.00  0.00    +0.000 N 
ATOM     20  H   UNL     1       1.697   6.665  21.965  0.00  0.00    +0.000 HD
ATOM     21  H   UNL     1      -0.018   8.060  22.291  0.00  0.00    +0.000 HD
BRANCH  19  22
ATOM     22  C   UNL     1       0.002  10.125  21.728  0.00  0.00    +0.000 C 
ATOM     23  C   UNL     1      -0.781  10.459  23.010  0.00  0.00    +0.000 C 
ATOM     24  C   UNL     1      -1.181  11.938  23.031  0.00  0.00    +0.000 C 
ATOM     25  C   UNL     1      -1.781  12.353  21.739  0.00  0.00    +0.000 A 
ATOM     26  N   UNL     1      -2.529  13.399  21.472  0.00  0.00    +0.000 NA
ATOM     27  C   UNL     1      -2.771  13.270  20.130  0.00  0.00    +0.000 A 
ATOM     28  N   UNL     1      -2.223  12.199  19.550  0.00  0.00    +0.000 NA
ATOM     29  N   UNL     1      -1.576  11.642  20.588  0.00  0.00    +0.000 N 
ATOM     30  C   UNL     1      -0.868  10.386  20.480  0.00  0.00    +0.000 C 
ENDBRANCH  19  22
ENDBRANCH   1  16
TORSDOF 5
ENDMDL
MODEL 5
REMARK VINA RESULT:      -8.3      2.147      2.507
REMARK  Name = 
REMARK  6 active torsions:
REMARK  status: ('A' for Active; 'I' for Inactive)
REMARK    1  A    between atoms: C_1  and  C_2
REMARK    2  A    between atoms: C_6  and  O_7
REMARK    3  A    between atoms: O_7  and  C_8
REMARK    4  A    between atoms: C_13  and  C_14
REMARK    5  A    between atoms: C_14  and  N_15
REMARK    6  A    between atoms: N_18  and  C_19
REMARK                            x       y       z     vdW  Elec       q    Type
REMARK                         _______ _______ _______ _____ _____    ______ ____
ROOT
ATOM      1  C   UNL     1       3.045   5.878  19.680  0.00  0.00    +0.000 C 
ENDROOT
BRANCH   1   7
ATOM      2  C   UNL     1       3.751   3.453  19.219  0.00  0.00    +0.000 A 
ATOM      3  C   UNL     1       3.388   2.114  18.988  0.00  0.00    +0.000 A 
ATOM      4  C   UNL     1       2.057   1.757  18.788  0.00  0.00    +0.000 A 
ATOM      5  C   UNL     1       1.064   2.721  18.896  0.00  0.00    +0.000 A 
ATOM      6  C   UNL     1       1.405   4.037  19.219  0.00  0.00    +0.000 A 
ATOM      7  C   UNL     1       2.749   4.425  19.386  0.00  0.00    +0.000 A 
BRANCH   2   8
ATOM      8  O   UNL     1       5.073   3.858  19.309  0.00  0.00    +0.000 OA
BRANCH   8  14
ATOM      9  C   UNL     1       7.805   7.581  17.701  0.00  0.00    +0.000 C 
ATOM     10  C   UNL     1       7.037   6.320  17.431  0.00  0.00    +0.000 A 
ATOM     11  C   UNL     1       6.968   5.793  16.135  0.00  0.00    +0.000 A 
ATOM     12  C   UNL     1       6.196   4.662  15.874  0.00  0.00    +0.000 A 
ATOM     13  C   UNL     1       5.501   4.039  16.908  0.00  0.00    +0.000 A 
ATOM     14  C   UNL     1       5.641   4.496  18.222  0.00  0.00    +0.000 A 
ATOM     15  C   UNL     1       6.372   5.660  18.476  0.00  0.00    +0.000 A 
ENDBRANCH   8  14
ENDBRANCH   2   8
ENDBRANCH   1   7
BRANCH   1  16
ATOM     16  N   UNL     1       2.089   6.485  20.586  0.00  0.00    +0.000 N 
ATOM     17  C   UNL     1       1.715   7.797  20.403  0.00  0.00    +0.000 C 
ATOM     18  O   UNL     1       2.022   8.476  19.438  0.00  0.00    +0.000 OA
ATOM     19  N   UNL     1       0.950   8.258  21.442  0.00  0.00    +0.000 N 
ATOM     20  H   UNL     1       2.161   6.182  21.545  0.00  0.00    +0.000 HD
ATOM     21  H   UNL     1       0.445   7.553  21.957  0.00  0.00    +0.000 HD
BRANCH  19  22
ATOM     22  C   UNL     1       0.424   9.627  21.431  0.00  0.00    +0.000 C 
ATOM     23  C   UNL     1      -0.373   9.908  22.717  0.00  0.00    +0.000 C 
ATOM     24  C   UNL     1      -0.789  11.381  22.785  0.00  0.00    +0.000 C 
ATOM     25  C   UNL     1      -1.385  11.833  21.504  0.00  0.00    +0.000 A 
ATOM     26  N   UNL     1      -2.142  12.879  21.266  0.00  0.00    +0.000 NA
ATOM     27  C   UNL     1      -2.373  12.793  19.919  0.00  0.00    +0.000 A 
ATOM     28  N   UNL     1      -1.808  11.749  19.307  0.00  0.00    +0.000 NA
ATOM     29  N   UNL     1      -1.163  11.164  20.330  0.00  0.00    +0.000 N 
ATOM     30  C   UNL     1      -0.439   9.920  20.186  0.00  0.00    +0.000 C 
ENDBRANCH  19  22
ENDBRANCH   1  16
TORSDOF 5
ENDMDL
MODEL 6
REMARK VINA RESULT:      -8.2      2.224      2.857
REMARK  Name = 
REMARK  6 active torsions:
REMARK  status: ('A' for Active; 'I' for Inactive)
REMARK    1  A    between atoms: C_1  and  C_2
REMARK    2  A    between atoms: C_6  and  O_7
REMARK    3  A    between atoms: O_7  and  C_8
REMARK    4  A    between atoms: C_13  and  C_14
REMARK    5  A    between atoms: C_14  and  N_15
REMARK    6  A    between atoms: N_18  and  C_19
REMARK                            x       y       z     vdW  Elec       q    Type
REMARK                         _______ _______ _______ _____ _____    ______ ____
ROOT
ATOM      1  C   UNL     1       2.892   5.624  20.130  0.00  0.00    +0.000 C 
ENDROOT
BRANCH   1   7
ATOM      2  C   UNL     1       3.399   3.464  18.838  0.00  0.00    +0.000 A 
ATOM      3  C   UNL     1       2.968   2.211  18.366  0.00  0.00    +0.000 A 
ATOM      4  C   UNL     1       1.634   1.824  18.476  0.00  0.00    +0.000 A 
ATOM      5  C   UNL     1       0.731   2.652  19.130  0.00  0.00    +0.000 A 
ATOM      6  C   UNL     1       1.169   3.856  19.686  0.00  0.00    +0.000 A 
ATOM      7  C   UNL     1       2.505   4.283  19.550  0.00  0.00    +0.000 A 
BRANCH   2   8
ATOM      8  O   UNL     1       4.691   3.925  18.644  0.00  0.00    +0.000 OA
BRANCH   8  14
ATOM      9  C   UNL     1       6.053   3.779  13.950  0.00  0.00    +0.000 C 
ATOM     10  C   UNL     1       5.600   4.560  15.148  0.00  0.00    +0.000 A 
ATOM     11  C   UNL     1       5.407   5.945  15.063  0.00  0.00    +0.000 A 
ATOM     12  C   UNL     1       5.054   6.679  16.195  0.00  0.00    +0.000 A 
ATOM     13  C   UNL     1       4.875   6.033  17.416  0.00  0.00    +0.000 A 
ATOM     14  C   UNL     1       4.968   4.639  17.493  0.00  0.00    +0.000 A 
ATOM     15  C   UNL     1       5.372   3.909  16.371  0.00  0.00    +0.000 A 
ENDBRANCH   8  14
ENDBRANCH   2   8
ENDBRANCH   1   7
BRANCH   1  16
ATOM     16  N   UNL     1       1.812   6.271  20.848  0.00  0.00    +0.000 N 
ATOM     17  C   UNL     1       1.585   7.617  20.671  0.00  0.00    +0.000 C 
ATOM     18  O   UNL     1       2.145   8.310  19.838  0.00  0.00    +0.000 OA
ATOM     19  N   UNL     1       0.651   8.097  21.551  0.00  0.00    +0.000 N 
ATOM     20  H   UNL     1       1.651   5.921  21.780  0.00  0.00    +0.000 HD
ATOM     21  H   UNL     1      -0.006   7.416  21.902  0.00  0.00    +0.000 HD
BRANCH  19  22
ATOM     22  C   UNL     1       0.245   9.505  21.512  0.00  0.00    +0.000 C 
ATOM     23  C   UNL     1      -0.570   9.865  22.767  0.00  0.00    +0.000 C 
ATOM     24  C   UNL     1      -0.861  11.369  22.812  0.00  0.00    +0.000 C 
ATOM     25  C   UNL     1      -1.370  11.858  21.507  0.00  0.00    +0.000 A 
ATOM     26  N   UNL     1      -2.026  12.963  21.236  0.00  0.00    +0.000 NA
ATOM     27  C   UNL     1      -2.215  12.885  19.882  0.00  0.00    +0.000 A 
ATOM     28  N   UNL     1      -1.721  11.791  19.297  0.00  0.00    +0.000 NA
ATOM     29  N   UNL     1      -1.165  11.163  20.347  0.00  0.00    +0.000 N 
ATOM     30  C   UNL     1      -0.546   9.860  20.236  0.00  0.00    +0.000 C 
ENDBRANCH  19  22
ENDBRANCH   1  16
TORSDOF 5
ENDMDL
MODEL 7
REMARK VINA RESULT:      -8.2      2.374      2.671
REMARK  Name = 
REMARK  6 active torsions:
REMARK  status: ('A' for Active; 'I' for Inactive)
REMARK    1  A    between atoms: C_1  and  C_2
REMARK    2  A    between atoms: C_6  and  O_7
REMARK    3  A    between atoms: O_7  and  C_8
REMARK    4  A    between atoms: C_13  and  C_14
REMARK    5  A    between atoms: C_14  and  N_15
REMARK    6  A    between atoms: N_18  and  C_19
REMARK                            x       y       z     vdW  Elec       q    Type
REMARK                         _______ _______ _______ _____ _____    ______ ____
ROOT
ATOM      1  C   UNL     1       2.401   6.994  19.643  0.00  0.00    +0.000 C 
ENDROOT
BRANCH   1   7
ATOM      2  C   UNL     1       2.659   4.665  18.592  0.00  0.00    +0.000 A 
ATOM      3  C   UNL     1       2.498   3.272  18.692  0.00  0.00    +0.000 A 
ATOM      4  C   UNL     1       1.799   2.707  19.756  0.00  0.00    +0.000 A 
ATOM      5  C   UNL     1       1.322   3.521  20.774  0.00  0.00    +0.000 A 
ATOM      6  C   UNL     1       1.559   4.897  20.732  0.00  0.00    +0.000 A 
ATOM      7  C   UNL     1       2.229   5.492  19.645  0.00  0.00    +0.000 A 
BRANCH   2   8
ATOM      8  O   UNL     1       3.250   5.267  17.492  0.00  0.00    +0.000 OA
BRANCH   8  14
ATOM      9  C   UNL     1       7.802   5.774  19.204  0.00  0.00    +0.000 C 
ATOM     10  C   UNL     1       6.857   5.273  18.150  0.00  0.00    +0.000 A 
ATOM     11  C   UNL     1       7.339   4.572  17.038  0.00  0.00    +0.000 A 
ATOM     12  C   UNL     1       6.469   4.170  16.026  0.00  0.00    +0.000 A 
ATOM     13  C   UNL     1       5.108   4.451  16.126  0.00  0.00    +0.000 A 
ATOM     14  C   UNL     1       4.600   5.062  17.277  0.00  0.00    +0.000 A 
ATOM     15  C   UNL     1       5.479   5.512  18.267  0.00  0.00    +0.000 A 
ENDBRANCH   8  14
ENDBRANCH   2   8
ENDBRANCH   1   7
BRANCH   1  16
ATOM     16  N   UNL     1       1.672   7.655  20.707  0.00  0.00    +0.000 N 
ATOM     17  C   UNL     1       1.011   8.835  20.450  0.00  0.00    +0.000 C 
ATOM     18  O   UNL     1       0.867   9.320  19.341  0.00  0.00    +0.000 OA
ATOM     19  N   UNL     1       0.529   9.409  21.597  0.00  0.00    +0.000 N 
ATOM     20  H   UNL     1       2.093   7.582  21.621  0.00  0.00    +0.000 HD
ATOM     21  H   UNL     1       0.355   8.775  22.362  0.00  0.00    +0.000 HD
BRANCH  19  22
ATOM     22  C   UNL     1      -0.232  10.662  21.541  0.00  0.00    +0.000 C 
ATOM     23  C   UNL     1       0.704  11.847  21.246  0.00  0.00    +0.000 C 
ATOM     24  C   UNL     1      -0.102  13.133  21.028  0.00  0.00    +0.000 C 
ATOM     25  C   UNL     1      -1.120  13.317  22.090  0.00  0.00    +0.000 A 
ATOM     26  N   UNL     1      -1.759  14.409  22.444  0.00  0.00    +0.000 NA
ATOM     27  C   UNL     1      -2.572  13.976  23.457  0.00  0.00    +0.000 A 
ATOM     28  N   UNL     1      -2.470  12.679  23.758  0.00  0.00    +0.000 NA
ATOM     29  N   UNL     1      -1.557  12.273  22.859  0.00  0.00    +0.000 N 
ATOM     30  C   UNL     1      -1.043  10.922  22.827  0.00  0.00    +0.000 C 
ENDBRANCH  19  22
ENDBRANCH   1  16
TORSDOF 5
ENDMDL
MODEL 8
REMARK VINA RESULT:      -8.2      2.410      3.026
REMARK  Name = 
REMARK  6 active torsions:
REMARK  status: ('A' for Active; 'I' for Inactive)
REMARK    1  A    between atoms: C_1  and  C_2
REMARK    2  A    between atoms: C_6  and  O_7
REMARK    3  A    between atoms: O_7  and  C_8
REMARK    4  A    between atoms: C_13  and  C_14
REMARK    5  A    between atoms: C_14  and  N_15
REMARK    6  A    between atoms: N_18  and  C_19
REMARK                            x       y       z     vdW  Elec       q    Type
REMARK                         _______ _______ _______ _____ _____    ______ ____
ROOT
ATOM      1  C   UNL     1       2.561   7.006  19.688  0.00  0.00    +0.000 C 
ENDROOT
BRANCH   1   7
ATOM      2  C   UNL     1       2.558   4.711  18.538  0.00  0.00    +0.000 A 
ATOM      3  C   UNL     1       2.251   3.339  18.583  0.00  0.00    +0.000 A 
ATOM      4  C   UNL     1       1.509   2.806  19.635  0.00  0.00    +0.000 A 
ATOM      5  C   UNL     1       1.134   3.622  20.694  0.00  0.00    +0.000 A 
ATOM      6  C   UNL     1       1.515   4.966  20.704  0.00  0.00    +0.000 A 
ATOM      7  C   UNL     1       2.231   5.533  19.631  0.00  0.00    +0.000 A 
BRANCH   2   8
ATOM      8  O   UNL     1       3.195   5.293  17.453  0.00  0.00    +0.000 OA
BRANCH   8  14
ATOM      9  C   UNL     1       6.678   4.122  14.227  0.00  0.00    +0.000 C 
ATOM     10  C   UNL     1       6.266   4.465  15.629  0.00  0.00    +0.000 A 
ATOM     11  C   UNL     1       7.221   4.547  16.650  0.00  0.00    +0.000 A 
ATOM     12  C   UNL     1       6.828   4.796  17.965  0.00  0.00    +0.000 A 
ATOM     13  C   UNL     1       5.481   4.982  18.266  0.00  0.00    +0.000 A 
ATOM     14  C   UNL     1       4.529   5.001  17.240  0.00  0.00    +0.000 A 
ATOM     15  C   UNL     1       4.916   4.700  15.931  0.00  0.00    +0.000 A 
ENDBRANCH   8  14
ENDBRANCH   2   8
ENDBRANCH   1   7
BRANCH   1  16
ATOM     16  N   UNL     1       1.882   7.705  20.761  0.00  0.00    +0.000 N 
ATOM     17  C   UNL     1       1.110   8.808  20.476  0.00  0.00    +0.000 C 
ATOM     18  O   UNL     1       0.828   9.184  19.351  0.00  0.00    +0.000 OA
ATOM     19  N   UNL     1       0.691   9.445  21.615  0.00  0.00    +0.000 N 
ATOM     20  H   UNL     1       2.389   7.741  21.633  0.00  0.00    +0.000 HD
ATOM     21  H   UNL     1       0.636   8.868  22.441  0.00  0.00    +0.000 HD
BRANCH  19  22
ATOM     22  C   UNL     1      -0.168  10.631  21.533  0.00  0.00    +0.000 C 
ATOM     23  C   UNL     1       0.680  11.894  21.300  0.00  0.00    +0.000 C 
ATOM     24  C   UNL     1      -0.218  13.112  21.054  0.00  0.00    +0.000 C 
ATOM     25  C   UNL     1      -1.301  13.196  22.064  0.00  0.00    +0.000 A 
ATOM     26  N   UNL     1      -2.046  14.225  22.396  0.00  0.00    +0.000 NA
ATOM     27  C   UNL     1      -2.871  13.711  23.360  0.00  0.00    +0.000 A 
ATOM     28  N   UNL     1      -2.676  12.423  23.653  0.00  0.00    +0.000 NA
ATOM     29  N   UNL     1      -1.688  12.107  22.798  0.00  0.00    +0.000 N 
ATOM     30  C   UNL     1      -1.063  10.803  22.778  0.00  0.00    +0.000 C 
ENDBRANCH  19  22
ENDBRANCH   1  16
TORSDOF 5
ENDMDL
MODEL 9
REMARK VINA RESULT:      -8.1      1.083      1.609
REMARK  Name = 
REMARK  6 active torsions:
REMARK  status: ('A' for Active; 'I' for Inactive)
REMARK    1  A    between atoms: C_1  and  C_2
REMARK    2  A    between atoms: C_6  and  O_7
REMARK    3  A    between atoms: O_7  and  C_8
REMARK    4  A    between atoms: C_13  and  C_14
REMARK    5  A    between atoms: C_14  and  N_15
REMARK    6  A    between atoms: N_18  and  C_19
REMARK                            x       y       z     vdW  Elec       q    Type
REMARK                         _______ _______ _______ _____ _____    ______ ____
ROOT
ATOM      1  C   UNL     1       2.336   6.495  20.040  0.00  0.00    +0.000 C 
ENDROOT
BRANCH   1   7
ATOM      2  C   UNL     1       2.484   4.642  18.269  0.00  0.00    +0.000 A 
ATOM      3  C   UNL     1       2.188   3.326  17.873  0.00  0.00    +0.000 A 
ATOM      4  C   UNL     1       1.340   2.523  18.632  0.00  0.00    +0.000 A 
ATOM      5  C   UNL     1       0.841   2.998  19.838  0.00  0.00    +0.000 A 
ATOM      6  C   UNL     1       1.205   4.270  20.287  0.00  0.00    +0.000 A 
ATOM      7  C   UNL     1       2.030   5.112  19.514  0.00  0.00    +0.000 A 
BRANCH   2   8
ATOM      8  O   UNL     1       3.231   5.503  17.481  0.00  0.00    +0.000 OA
BRANCH   8  14
ATOM      9  C   UNL     1       7.797   5.791  19.208  0.00  0.00    +0.000 C 
ATOM     10  C   UNL     1       6.830   5.320  18.161  0.00  0.00    +0.000 A 
ATOM     11  C   UNL     1       7.276   4.564  17.070  0.00  0.00    +0.000 A 
ATOM     12  C   UNL     1       6.388   4.187  16.062  0.00  0.00    +0.000 A 
ATOM     13  C   UNL     1       5.045   4.548  16.147  0.00  0.00    +0.000 A 
ATOM     14  C   UNL     1       4.568   5.217  17.279  0.00  0.00    +0.000 A 
ATOM     15  C   UNL     1       5.467   5.639  18.263  0.00  0.00    +0.000 A 
ENDBRANCH   8  14
ENDBRANCH   2   8
ENDBRANCH   1   7
BRANCH   1  16
ATOM     16  N   UNL     1       2.128   7.541  19.057  0.00  0.00    +0.000 N 
ATOM     17  C   UNL     1       1.481   8.700  19.420  0.00  0.00    +0.000 C 
ATOM     18  O   UNL     1       1.174   8.992  20.564  0.00  0.00    +0.000 OA
ATOM     19  N   UNL     1       1.215   9.495  18.337  0.00  0.00    +0.000 N 
ATOM     20  H   UNL     1       1.944   7.214  18.120  0.00  0.00    +0.000 HD
ATOM     21  H   UNL     1       1.825   9.370  17.544  0.00  0.00    +0.000 HD
BRANCH  19  22
ATOM     22  C   UNL     1       0.552  10.793  18.510  0.00  0.00    +0.000 C 
ATOM     23  C   UNL     1       1.532  11.823  19.099  0.00  0.00    +0.000 C 
ATOM     24  C   UNL     1       0.896  13.217  19.133  0.00  0.00    +0.000 C 
ATOM     25  C   UNL     1      -0.471  13.172  19.707  0.00  0.00    +0.000 A 
ATOM     26  N   UNL     1      -1.194  14.151  20.202  0.00  0.00    +0.000 NA
ATOM     27  C   UNL     1      -2.357  13.524  20.562  0.00  0.00    +0.000 A 
ATOM     28  N   UNL     1      -2.395  12.210  20.326  0.00  0.00    +0.000 NA
ATOM     29  N   UNL     1      -1.194  12.011  19.759  0.00  0.00    +0.000 N 
ATOM     30  C   UNL     1      -0.720  10.699  19.379  0.00  0.00    +0.000 C 
ENDBRANCH  19  22
ENDBRANCH   1  16
TORSDOF 5
ENDMDL
