MODEL 1
REMARK VINA RESULT:      -8.7      0.000      0.000
REMARK  Name = 
REMARK  5 active torsions:
REMARK  status: ('A' for Active; 'I' for Inactive)
REMARK    1  A    between atoms: C_2  and  C_4
REMARK    2  A    between atoms: C_4  and  C_5
REMARK    3  A    between atoms: C_14  and  C_16
REMARK    4  A    between atoms: C_16  and  C_17
REMARK    5  A    between atoms: C_17  and  N_18
REMARK                            x       y       z     vdW  Elec       q    Type
REMARK                         _______ _______ _______ _____ _____    ______ ____
ROOT
ATOM      1  C   UNL     1       1.035   9.635  19.355  0.00  0.00    +0.000 A 
ATOM      2  C   UNL     1       0.185  10.080  20.383  0.00  0.00    +0.000 A 
ATOM      3  C   UNL     1      -0.077   9.283  21.496  0.00  0.00    +0.000 A 
ATOM      4  C   UNL     1       0.524   8.034  21.615  0.00  0.00    +0.000 A 
ATOM      5  C   UNL     1       1.353   7.557  20.595  0.00  0.00    +0.000 A 
ATOM      6  C   UNL     1       1.589   8.344  19.446  0.00  0.00    +0.000 A 
ATOM      7  C   UNL     1       2.456   7.718  18.380  0.00  0.00    +0.000 C 
ATOM      8  C   UNL     1       2.086   6.240  18.218  0.00  0.00    +0.000 C 
ATOM      9  N   UNL     1       2.096   5.476  19.471  0.00  0.00    +0.000 N 
ATOM     10  C   UNL     1       2.054   4.092  19.534  0.00  0.00    +0.000 C 
ATOM     11  O   UNL     1       2.091   3.485  20.607  0.00  0.00    +0.000 OA
ATOM     12  C   UNL     1       2.048   6.221  20.728  0.00  0.00    +0.000 C 
ENDROOT
BRANCH   1  13
ATOM     13  C   UNL     1       1.278  10.550  18.172  0.00  0.00    +0.000 C 
BRANCH  13  15
ATOM     14  N   UNL     1       2.770  12.392  17.514  0.00  0.00    +0.000 N 
ATOM     15  C   UNL     1       2.002  11.844  18.499  0.00  0.00    +0.000 C 
ATOM     16  O   UNL     1       1.857  12.429  19.568  0.00  0.00    +0.000 OA
ATOM     17  H   UNL     1       3.289  13.226  17.747  0.00  0.00    +0.000 HD
ATOM     18  H   UNL     1       3.071  11.859  16.710  0.00  0.00    +0.000 HD
ENDBRANCH  13  15
ENDBRANCH   1  13
BRANCH  10  19
ATOM     19  C   UNL     1       2.009   3.334  18.223  0.00  0.00    +0.000 C 
BRANCH  19  20
ATOM     20  C   UNL     1       3.379   2.742  17.914  0.00  0.00    +0.000 C 
BRANCH  20  21
ATOM     21  N   UNL     1       4.370   3.779  17.665  0.00  0.00    +0.000 N 
ATOM     22  N   UNL     1       4.309   4.392  16.446  0.00  0.00    +0.000 NA
ATOM     23  N   UNL     1       5.108   5.301  16.131  0.00  0.00    +0.000 NA
ATOM     24  C   UNL     1       6.067   5.738  17.052  0.00  0.00    +0.000 A 
ATOM     25  C   UNL     1       6.886   6.824  16.723  0.00  0.00    +0.000 A 
ATOM     26  C   UNL     1       7.847   7.298  17.623  0.00  0.00    +0.000 A 
ATOM     27  C   UNL     1       8.014   6.673  18.858  0.00  0.00    +0.000 A 
ATOM     28  C   UNL     1       7.216   5.584  19.195  0.00  0.00    +0.000 A 
ATOM     29  C   UNL     1       6.244   5.141  18.290  0.00  0.00    +0.000 A 
ATOM     30  C   UNL     1       5.336   4.044  18.615  0.00  0.00    +0.000 A 
ATOM     31  O   UNL     1       5.458   3.438  19.675  0.00  0.00    +0.000 OA
ENDBRANCH  20  21
ENDBRANCH  19  20
ENDBRANCH  10  19
TORSDOF 5
ENDMDL
MODEL 2
REMARK VINA RESULT:      -8.3      1.459      1.530
REMARK  Name = 
REMARK  5 active torsions:
REMARK  status: ('A' for Active; 'I' for Inactive)
REMARK    1  A    between atoms: C_2  and  C_4
REMARK    2  A    between atoms: C_4  and  C_5
REMARK    3  A    between atoms: C_14  and  C_16
REMARK    4  A    between atoms: C_16  and  C_17
REMARK    5  A    between atoms: C_17  and  N_18
REMARK                            x       y       z     vdW  Elec       q    Type
REMARK                         _______ _______ _______ _____ _____    ______ ____
ROOT
ATOM      1  C   UNL     1       0.507  10.325  19.634  0.00  0.00    +0.000 A 
ATOM      2  C   UNL     1      -0.283  10.520  20.782  0.00  0.00    +0.000 A 
ATOM      3  C   UNL     1      -0.305   9.576  21.808  0.00  0.00    +0.000 A 
ATOM      4  C   UNL     1       0.477   8.431  21.717  0.00  0.00    +0.000 A 
ATOM      5  C   UNL     1       1.250   8.199  20.575  0.00  0.00    +0.000 A 
ATOM      6  C   UNL     1       1.246   9.133  19.515  0.00  0.00    +0.000 A 
ATOM      7  C   UNL     1       2.074   8.767  18.306  0.00  0.00    +0.000 C 
ATOM      8  C   UNL     1       1.904   7.275  17.998  0.00  0.00    +0.000 C 
ATOM      9  N   UNL     1       2.157   6.392  19.142  0.00  0.00    +0.000 N 
ATOM     10  C   UNL     1       2.322   5.019  19.038  0.00  0.00    +0.000 C 
ATOM     11  O   UNL     1       2.560   4.314  20.021  0.00  0.00    +0.000 OA
ATOM     12  C   UNL     1       2.140   6.981  20.480  0.00  0.00    +0.000 C 
ENDROOT
BRANCH   1  13
ATOM     13  C   UNL     1       0.487  11.388  18.555  0.00  0.00    +0.000 C 
BRANCH  13  15
ATOM     14  N   UNL     1      -0.944  13.388  18.627  0.00  0.00    +0.000 N 
ATOM     15  C   UNL     1      -0.858  12.058  18.338  0.00  0.00    +0.000 C 
ATOM     16  O   UNL     1      -1.819  11.467  17.852  0.00  0.00    +0.000 OA
ATOM     17  H   UNL     1      -1.851  13.822  18.529  0.00  0.00    +0.000 HD
ATOM     18  H   UNL     1      -0.257  13.857  19.202  0.00  0.00    +0.000 HD
ENDBRANCH  13  15
ENDBRANCH   1  13
BRANCH  10  19
ATOM     19  C   UNL     1       2.243   4.409  17.653  0.00  0.00    +0.000 C 
BRANCH  19  20
ATOM     20  C   UNL     1       3.597   3.828  17.261  0.00  0.00    +0.000 C 
BRANCH  20  21
ATOM     21  N   UNL     1       4.647   4.836  17.299  0.00  0.00    +0.000 N 
ATOM     22  N   UNL     1       4.605   5.788  16.320  0.00  0.00    +0.000 NA
ATOM     23  N   UNL     1       5.454   6.704  16.262  0.00  0.00    +0.000 NA
ATOM     24  C   UNL     1       6.453   6.793  17.240  0.00  0.00    +0.000 A 
ATOM     25  C   UNL     1       7.333   7.881  17.220  0.00  0.00    +0.000 A 
ATOM     26  C   UNL     1       8.335   8.011  18.188  0.00  0.00    +0.000 A 
ATOM     27  C   UNL     1       8.482   7.038  19.176  0.00  0.00    +0.000 A 
ATOM     28  C   UNL     1       7.622   5.943  19.201  0.00  0.00    +0.000 A 
ATOM     29  C   UNL     1       6.611   5.845  18.238  0.00  0.00    +0.000 A 
ATOM     30  C   UNL     1       5.642   4.752  18.252  0.00  0.00    +0.000 A 
ATOM     31  O   UNL     1       5.742   3.853  19.079  0.00  0.00    +0.000 OA
ENDBRANCH  20  21
ENDBRANCH  19  20
ENDBRANCH  10  19
TORSDOF 5
ENDMDL
MODEL 3
REMARK VINA RESULT:      -8.2      1.161      1.617
REMARK  Name = 
REMARK  5 active torsions:
REMARK  status: ('A' for Active; 'I' for Inactive)
REMARK    1  A    between atoms: C_2  and  C_4
REMARK    2  A    between atoms: C_4  and  C_5
REMARK    3  A    between atoms: C_14  and  C_16
REMARK    4  A    between atoms: C_16  and  C_17
REMARK    5  A    between atoms: C_17  and  N_18
REMARK                            x       y       z     vdW  Elec       q    Type
REMARK                         _______ _______ _______ _____ _____    ______ ____
ROOT
ATOM      1  C   UNL     1       0.640  10.066  19.617  0.00  0.00    +0.000 A 
ATOM      2  C   UNL     1      -0.227  10.341  20.690  0.00  0.00    +0.000 A 
ATOM      3  C   UNL     1      -0.384   9.435  21.739  0.00  0.00    +0.000 A 
ATOM      4  C   UNL     1       0.339   8.247  21.746  0.00  0.00    +0.000 A 
ATOM      5  C   UNL     1       1.187   7.937  20.678  0.00  0.00    +0.000 A 
ATOM      6  C   UNL     1       1.319   8.833  19.594  0.00  0.00    +0.000 A 
ATOM      7  C   UNL     1       2.218   8.383  18.468  0.00  0.00    +0.000 C 
ATOM      8  C   UNL     1       1.991   6.893  18.191  0.00  0.00    +0.000 C 
ATOM      9  N   UNL     1       2.103   6.037  19.377  0.00  0.00    +0.000 N 
ATOM     10  C   UNL     1       2.199   4.654  19.328  0.00  0.00    +0.000 C 
ATOM     11  O   UNL     1       2.319   3.971  20.347  0.00  0.00    +0.000 OA
ATOM     12  C   UNL     1       2.012   6.670  20.691  0.00  0.00    +0.000 C 
ENDROOT
BRANCH   1  13
ATOM     13  C   UNL     1       0.765  11.092  18.509  0.00  0.00    +0.000 C 
BRANCH  13  15
ATOM     14  N   UNL     1       2.689  12.325  17.597  0.00  0.00    +0.000 N 
ATOM     15  C   UNL     1       1.897  12.089  18.683  0.00  0.00    +0.000 C 
ATOM     16  O   UNL     1       2.064  12.724  19.720  0.00  0.00    +0.000 OA
ATOM     17  H   UNL     1       3.470  12.952  17.727  0.00  0.00    +0.000 HD
ATOM     18  H   UNL     1       2.714  11.697  16.806  0.00  0.00    +0.000 HD
ENDBRANCH  13  15
ENDBRANCH   1  13
BRANCH  10  19
ATOM     19  C   UNL     1       2.197   4.003  17.959  0.00  0.00    +0.000 C 
BRANCH  19  20
ATOM     20  C   UNL     1       3.544   3.339  17.696  0.00  0.00    +0.000 C 
BRANCH  20  21
ATOM     21  N   UNL     1       4.653   4.202  18.075  0.00  0.00    +0.000 N 
ATOM     22  N   UNL     1       5.290   3.890  19.243  0.00  0.00    +0.000 NA
ATOM     23  N   UNL     1       6.260   4.560  19.659  0.00  0.00    +0.000 NA
ATOM     24  C   UNL     1       6.741   5.635  18.902  0.00  0.00    +0.000 A 
ATOM     25  C   UNL     1       7.889   6.312  19.330  0.00  0.00    +0.000 A 
ATOM     26  C   UNL     1       8.408   7.382  18.592  0.00  0.00    +0.000 A 
ATOM     27  C   UNL     1       7.768   7.803  17.427  0.00  0.00    +0.000 A 
ATOM     28  C   UNL     1       6.617   7.147  16.996  0.00  0.00    +0.000 A 
ATOM     29  C   UNL     1       6.129   6.063  17.735  0.00  0.00    +0.000 A 
ATOM     30  C   UNL     1       4.964   5.299  17.297  0.00  0.00    +0.000 A 
ATOM     31  O   UNL     1       4.344   5.643  16.296  0.00  0.00    +0.000 OA
ENDBRANCH  20  21
ENDBRANCH  19  20
ENDBRANCH  10  19
TORSDOF 5
ENDMDL
MODEL 4
REMARK VINA RESULT:      -8.1      3.166      8.956
REMARK  Name = 
REMARK  5 active torsions:
REMARK  status: ('A' for Active; 'I' for Inactive)
REMARK    1  A    between atoms: C_2  and  C_4
REMARK    2  A    between atoms: C_4  and  C_5
REMARK    3  A    between atoms: C_14  and  C_16
REMARK    4  A    between atoms: C_16  and  C_17
REMARK    5  A    between atoms: C_17  and  N_18
REMARK                            x       y       z     vdW  Elec       q    Type
REMARK                         _______ _______ _______ _____ _____    ______ ____
ROOT
ATOM      1  C   UNL     1       3.278   3.619  19.453  0.00  0.00    +0.000 A 
ATOM      2  C   UNL     1       3.601   2.863  18.312  0.00  0.00    +0.000 A 
ATOM      3  C   UNL     1       3.859   3.480  17.089  0.00  0.00    +0.000 A 
ATOM      4  C   UNL     1       3.822   4.866  16.988  0.00  0.00    +0.000 A 
ATOM      5  C   UNL     1       3.477   5.640  18.100  0.00  0.00    +0.000 A 
ATOM      6  C   UNL     1       3.176   5.018  19.332  0.00  0.00    +0.000 A 
ATOM      7  C   UNL     1       2.765   5.937  20.457  0.00  0.00    +0.000 C 
ATOM      8  C   UNL     1       1.836   7.030  19.917  0.00  0.00    +0.000 C 
ATOM      9  N   UNL     1       2.372   7.758  18.762  0.00  0.00    +0.000 N 
ATOM     10  C   UNL     1       1.838   8.942  18.278  0.00  0.00    +0.000 C 
ATOM     11  O   UNL     1       2.333   9.540  17.320  0.00  0.00    +0.000 OA
ATOM     12  C   UNL     1       3.474   7.150  18.019  0.00  0.00    +0.000 C 
ENDROOT
BRANCH   1  13
ATOM     13  C   UNL     1       3.008   2.887  20.752  0.00  0.00    +0.000 C 
BRANCH  13  15
ATOM     14  N   UNL     1       0.619   2.986  20.169  0.00  0.00    +0.000 N 
ATOM     15  C   UNL     1       1.546   2.814  21.156  0.00  0.00    +0.000 C 
ATOM     16  O   UNL     1       1.189   2.539  22.298  0.00  0.00    +0.000 OA
ATOM     17  H   UNL     1      -0.351   2.985  20.446  0.00  0.00    +0.000 HD
ATOM     18  H   UNL     1       0.857   3.401  19.278  0.00  0.00    +0.000 HD
ENDBRANCH  13  15
ENDBRANCH   1  13
BRANCH  10  19
ATOM     19  C   UNL     1       0.635   9.513  19.002  0.00  0.00    +0.000 C 
BRANCH  19  20
ATOM     20  C   UNL     1       1.036  10.765  19.774  0.00  0.00    +0.000 C 
BRANCH  20  21
ATOM     21  N   UNL     1       0.007  11.164  20.724  0.00  0.00    +0.000 N 
ATOM     22  N   UNL     1       0.256  10.883  22.037  0.00  0.00    +0.000 NA
ATOM     23  N   UNL     1      -0.556  11.189  22.937  0.00  0.00    +0.000 NA
ATOM     24  C   UNL     1      -1.735  11.870  22.611  0.00  0.00    +0.000 A 
ATOM     25  C   UNL     1      -2.585  12.295  23.638  0.00  0.00    +0.000 A 
ATOM     26  C   UNL     1      -3.765  12.990  23.352  0.00  0.00    +0.000 A 
ATOM     27  C   UNL     1      -4.120  13.250  22.029  0.00  0.00    +0.000 A 
ATOM     28  C   UNL     1      -3.290  12.822  20.995  0.00  0.00    +0.000 A 
ATOM     29  C   UNL     1      -2.102  12.150  21.304  0.00  0.00    +0.000 A 
ATOM     30  C   UNL     1      -1.164  11.733  20.265  0.00  0.00    +0.000 A 
ATOM     31  O   UNL     1      -1.439  11.908  19.083  0.00  0.00    +0.000 OA
ENDBRANCH  20  21
ENDBRANCH  19  20
ENDBRANCH  10  19
TORSDOF 5
ENDMDL
MODEL 5
REMARK VINA RESULT:      -8.1      3.438      8.991
REMARK  Name = 
REMARK  5 active torsions:
REMARK  status: ('A' for Active; 'I' for Inactive)
REMARK    1  A    between atoms: C_2  and  C_4
REMARK    2  A    between atoms: C_4  and  C_5
REMARK    3  A    between atoms: C_14  and  C_16
REMARK    4  A    between atoms: C_16  and  C_17
REMARK    5  A    between atoms: C_17  and  N_18
REMARK                            x       y       z     vdW  Elec       q    Type
REMARK                         _______ _______ _______ _____ _____    ______ ____
ROOT
ATOM      1  C   UNL     1       3.312   3.459  19.391  0.00  0.00    +0.000 A 
ATOM      2  C   UNL     1       3.593   2.729  18.223  0.00  0.00    +0.000 A 
ATOM      3  C   UNL     1       3.813   3.374  17.006  0.00  0.00    +0.000 A 
ATOM      4  C   UNL     1       3.780   4.763  16.939  0.00  0.00    +0.000 A 
ATOM      5  C   UNL     1       3.477   5.512  18.081  0.00  0.00    +0.000 A 
ATOM      6  C   UNL     1       3.213   4.861  19.306  0.00  0.00    +0.000 A 
ATOM      7  C   UNL     1       2.846   5.756  20.466  0.00  0.00    +0.000 C 
ATOM      8  C   UNL     1       1.906   6.865  19.984  0.00  0.00    +0.000 C 
ATOM      9  N   UNL     1       2.406   7.618  18.829  0.00  0.00    +0.000 N 
ATOM     10  C   UNL     1       1.862   8.816  18.391  0.00  0.00    +0.000 C 
ATOM     11  O   UNL     1       2.329   9.434  17.432  0.00  0.00    +0.000 OA
ATOM     12  C   UNL     1       3.479   7.023  18.035  0.00  0.00    +0.000 C 
ENDROOT
BRANCH   1  13
ATOM     13  C   UNL     1       3.082   2.698  20.681  0.00  0.00    +0.000 C 
BRANCH  13  15
ATOM     14  N   UNL     1       0.665   2.833  20.242  0.00  0.00    +0.000 N 
ATOM     15  C   UNL     1       1.648   2.697  21.179  0.00  0.00    +0.000 C 
ATOM     16  O   UNL     1       1.358   2.507  22.356  0.00  0.00    +0.000 OA
ATOM     17  H   UNL     1      -0.286   2.881  20.578  0.00  0.00    +0.000 HD
ATOM     18  H   UNL     1       0.856   3.183  19.313  0.00  0.00    +0.000 HD
ENDBRANCH  13  15
ENDBRANCH   1  13
BRANCH  10  19
ATOM     19  C   UNL     1       0.688   9.375  19.169  0.00  0.00    +0.000 C 
BRANCH  19  20
ATOM     20  C   UNL     1       0.332  10.764  18.651  0.00  0.00    +0.000 C 
BRANCH  20  21
ATOM     21  N   UNL     1      -1.101  10.906  18.433  0.00  0.00    +0.000 N 
ATOM     22  N   UNL     1      -1.625  10.204  17.385  0.00  0.00    +0.000 NA
ATOM     23  N   UNL     1      -2.844  10.248  17.112  0.00  0.00    +0.000 NA
ATOM     24  C   UNL     1      -3.712  10.999  17.915  0.00  0.00    +0.000 A 
ATOM     25  C   UNL     1      -5.087  10.957  17.658  0.00  0.00    +0.000 A 
ATOM     26  C   UNL     1      -5.987  11.683  18.447  0.00  0.00    +0.000 A 
ATOM     27  C   UNL     1      -5.516  12.479  19.491  0.00  0.00    +0.000 A 
ATOM     28  C   UNL     1      -4.149  12.541  19.750  0.00  0.00    +0.000 A 
ATOM     29  C   UNL     1      -3.269  11.788  18.964  0.00  0.00    +0.000 A 
ATOM     30  C   UNL     1      -1.832  11.765  19.229  0.00  0.00    +0.000 A 
ATOM     31  O   UNL     1      -1.359  12.470  20.114  0.00  0.00    +0.000 OA
ENDBRANCH  20  21
ENDBRANCH  19  20
ENDBRANCH  10  19
TORSDOF 5
ENDMDL
MODEL 6
REMARK VINA RESULT:      -8.1      2.963      8.842
REMARK  Name = 
REMARK  5 active torsions:
REMARK  status: ('A' for Active; 'I' for Inactive)
REMARK    1  A    between atoms: C_2  and  C_4
REMARK    2  A    between atoms: C_4  and  C_5
REMARK    3  A    between atoms: C_14  and  C_16
REMARK    4  A    between atoms: C_16  and  C_17
REMARK    5  A    between atoms: C_17  and  N_18
REMARK                            x       y       z     vdW  Elec       q    Type
REMARK                         _______ _______ _______ _____ _____    ______ ____
ROOT
ATOM      1  C   UNL     1       3.580   3.545  19.098  0.00  0.00    +0.000 A 
ATOM      2  C   UNL     1       3.935   2.855  17.925  0.00  0.00    +0.000 A 
ATOM      3  C   UNL     1       4.197   3.540  16.740  0.00  0.00    +0.000 A 
ATOM      4  C   UNL     1       4.131   4.928  16.709  0.00  0.00    +0.000 A 
ATOM      5  C   UNL     1       3.753   5.637  17.854  0.00  0.00    +0.000 A 
ATOM      6  C   UNL     1       3.448   4.945  19.047  0.00  0.00    +0.000 A 
ATOM      7  C   UNL     1       3.002   5.797  20.211  0.00  0.00    +0.000 C 
ATOM      8  C   UNL     1       2.057   6.896  19.714  0.00  0.00    +0.000 C 
ATOM      9  N   UNL     1       2.592   7.694  18.606  0.00  0.00    +0.000 N 
ATOM     10  C   UNL     1       2.039   8.890  18.175  0.00  0.00    +0.000 C 
ATOM     11  O   UNL     1       2.535   9.546  17.256  0.00  0.00    +0.000 OA
ATOM     12  C   UNL     1       3.718   7.148  17.849  0.00  0.00    +0.000 C 
ENDROOT
BRANCH   1  13
ATOM     13  C   UNL     1       3.308   2.741  20.354  0.00  0.00    +0.000 C 
BRANCH  13  15
ATOM     14  N   UNL     1       1.547   2.583  22.066  0.00  0.00    +0.000 N 
ATOM     15  C   UNL     1       1.843   2.622  20.735  0.00  0.00    +0.000 C 
ATOM     16  O   UNL     1       0.941   2.635  19.901  0.00  0.00    +0.000 OA
ATOM     17  H   UNL     1       0.578   2.455  22.318  0.00  0.00    +0.000 HD
ATOM     18  H   UNL     1       2.248   2.373  22.764  0.00  0.00    +0.000 HD
ENDBRANCH  13  15
ENDBRANCH   1  13
BRANCH  10  19
ATOM     19  C   UNL     1       0.814   9.397  18.909  0.00  0.00    +0.000 C 
BRANCH  19  20
ATOM     20  C   UNL     1       0.966  10.882  19.215  0.00  0.00    +0.000 C 
BRANCH  20  21
ATOM     21  N   UNL     1      -0.224  11.425  19.853  0.00  0.00    +0.000 N 
ATOM     22  N   UNL     1      -1.151  11.988  19.021  0.00  0.00    +0.000 NA
ATOM     23  N   UNL     1      -2.214  12.478  19.462  0.00  0.00    +0.000 NA
ATOM     24  C   UNL     1      -2.492  12.421  20.833  0.00  0.00    +0.000 A 
ATOM     25  C   UNL     1      -3.729  12.882  21.298  0.00  0.00    +0.000 A 
ATOM     26  C   UNL     1      -4.049  12.829  22.660  0.00  0.00    +0.000 A 
ATOM     27  C   UNL     1      -3.122  12.333  23.576  0.00  0.00    +0.000 A 
ATOM     28  C   UNL     1      -1.883  11.883  23.130  0.00  0.00    +0.000 A 
ATOM     29  C   UNL     1      -1.592  11.922  21.761  0.00  0.00    +0.000 A 
ATOM     30  C   UNL     1      -0.333  11.407  21.229  0.00  0.00    +0.000 A 
ATOM     31  O   UNL     1       0.530  10.988  21.992  0.00  0.00    +0.000 OA
ENDBRANCH  20  21
ENDBRANCH  19  20
ENDBRANCH  10  19
TORSDOF 5
ENDMDL
MODEL 7
REMARK VINA RESULT:      -8.1      2.381      4.680
REMARK  Name = 
REMARK  5 active torsions:
REMARK  status: ('A' for Active; 'I' for Inactive)
REMARK    1  A    between atoms: C_2  and  C_4
REMARK    2  A    between atoms: C_4  and  C_5
REMARK    3  A    between atoms: C_14  and  C_16
REMARK    4  A    between atoms: C_16  and  C_17
REMARK    5  A    between atoms: C_17  and  N_18
REMARK                            x       y       z     vdW  Elec       q    Type
REMARK                         _______ _______ _______ _____ _____    ______ ____
ROOT
ATOM      1  C   UNL     1       1.207   8.852  20.269  0.00  0.00    +0.000 A 
ATOM      2  C   UNL     1       0.886  10.196  20.003  0.00  0.00    +0.000 A 
ATOM      3  C   UNL     1       1.232  10.792  18.791  0.00  0.00    +0.000 A 
ATOM      4  C   UNL     1       1.885  10.051  17.813  0.00  0.00    +0.000 A 
ATOM      5  C   UNL     1       2.240   8.722  18.061  0.00  0.00    +0.000 A 
ATOM      6  C   UNL     1       1.927   8.125  19.302  0.00  0.00    +0.000 A 
ATOM      7  C   UNL     1       2.398   6.702  19.491  0.00  0.00    +0.000 C 
ATOM      8  C   UNL     1       3.808   6.545  18.912  0.00  0.00    +0.000 C 
ATOM      9  N   UNL     1       3.944   7.003  17.525  0.00  0.00    +0.000 N 
ATOM     10  C   UNL     1       5.037   6.722  16.720  0.00  0.00    +0.000 C 
ATOM     11  O   UNL     1       5.101   7.102  15.549  0.00  0.00    +0.000 OA
ATOM     12  C   UNL     1       2.911   7.890  16.992  0.00  0.00    +0.000 C 
ENDROOT
BRANCH   1  13
ATOM     13  C   UNL     1       0.804   8.264  21.605  0.00  0.00    +0.000 C 
BRANCH  13  15
ATOM     14  N   UNL     1      -0.717   9.754  22.838  0.00  0.00    +0.000 N 
ATOM     15  C   UNL     1       0.555   9.280  22.705  0.00  0.00    +0.000 C 
ATOM     16  O   UNL     1       1.427   9.618  23.501  0.00  0.00    +0.000 OA
ATOM     17  H   UNL     1      -0.872  10.466  23.538  0.00  0.00    +0.000 HD
ATOM     18  H   UNL     1      -1.403   9.660  22.101  0.00  0.00    +0.000 HD
ENDBRANCH  13  15
ENDBRANCH   1  13
BRANCH  10  19
ATOM     19  C   UNL     1       6.145   5.879  17.318  0.00  0.00    +0.000 C 
BRANCH  19  20
ATOM     20  C   UNL     1       5.850   4.399  17.104  0.00  0.00    +0.000 C 
BRANCH  20  21
ATOM     21  N   UNL     1       4.946   3.878  18.120  0.00  0.00    +0.000 N 
ATOM     22  N   UNL     1       5.493   3.639  19.349  0.00  0.00    +0.000 NA
ATOM     23  N   UNL     1       4.807   3.198  20.297  0.00  0.00    +0.000 NA
ATOM     24  C   UNL     1       3.436   2.977  20.120  0.00  0.00    +0.000 A 
ATOM     25  C   UNL     1       2.662   2.580  21.217  0.00  0.00    +0.000 A 
ATOM     26  C   UNL     1       1.286   2.362  21.083  0.00  0.00    +0.000 A 
ATOM     27  C   UNL     1       0.672   2.517  19.841  0.00  0.00    +0.000 A 
ATOM     28  C   UNL     1       1.431   2.898  18.738  0.00  0.00    +0.000 A 
ATOM     29  C   UNL     1       2.802   3.135  18.899  0.00  0.00    +0.000 A 
ATOM     30  C   UNL     1       3.635   3.597  17.792  0.00  0.00    +0.000 A 
ATOM     31  O   UNL     1       3.155   3.721  16.671  0.00  0.00    +0.000 OA
ENDBRANCH  20  21
ENDBRANCH  19  20
ENDBRANCH  10  19
TORSDOF 5
ENDMDL
MODEL 8
REMARK VINA RESULT:      -7.9      4.407      7.616
REMARK  Name = 
REMARK  5 active torsions:
REMARK  status: ('A' for Active; 'I' for Inactive)
REMARK    1  A    between atoms: C_2  and  C_4
REMARK    2  A    between atoms: C_4  and  C_5
REMARK    3  A    between atoms: C_14  and  C_16
REMARK    4  A    between atoms: C_16  and  C_17
REMARK    5  A    between atoms: C_17  and  N_18
REMARK                            x       y       z     vdW  Elec       q    Type
REMARK                         _______ _______ _______ _____ _____    ______ ____
ROOT
ATOM      1  C   UNL     1       3.596   3.162  19.276  0.00  0.00    +0.000 A 
ATOM      2  C   UNL     1       2.521   2.950  18.395  0.00  0.00    +0.000 A 
ATOM      3  C   UNL     1       2.607   3.318  17.053  0.00  0.00    +0.000 A 
ATOM      4  C   UNL     1       3.777   3.884  16.560  0.00  0.00    +0.000 A 
ATOM      5  C   UNL     1       4.851   4.131  17.420  0.00  0.00    +0.000 A 
ATOM      6  C   UNL     1       4.755   3.797  18.789  0.00  0.00    +0.000 A 
ATOM      7  C   UNL     1       5.949   4.150  19.644  0.00  0.00    +0.000 C 
ATOM      8  C   UNL     1       6.481   5.529  19.239  0.00  0.00    +0.000 C 
ATOM      9  N   UNL     1       6.754   5.672  17.805  0.00  0.00    +0.000 N 
ATOM     10  C   UNL     1       7.478   6.719  17.255  0.00  0.00    +0.000 C 
ATOM     11  O   UNL     1       7.709   6.789  16.046  0.00  0.00    +0.000 OA
ATOM     12  C   UNL     1       6.146   4.706  16.892  0.00  0.00    +0.000 C 
ENDROOT
BRANCH   1  13
ATOM     13  C   UNL     1       3.439   2.740  20.723  0.00  0.00    +0.000 C 
BRANCH  13  15
ATOM     14  N   UNL     1       1.439   2.572  22.146  0.00  0.00    +0.000 N 
ATOM     15  C   UNL     1       2.284   3.395  21.460  0.00  0.00    +0.000 C 
ATOM     16  O   UNL     1       2.140   4.613  21.514  0.00  0.00    +0.000 OA
ATOM     17  H   UNL     1       0.644   3.002  22.596  0.00  0.00    +0.000 HD
ATOM     18  H   UNL     1       1.401   1.577  21.971  0.00  0.00    +0.000 HD
ENDBRANCH  13  15
ENDBRANCH   1  13
BRANCH  10  19
ATOM     19  C   UNL     1       8.023   7.766  18.206  0.00  0.00    +0.000 C 
BRANCH  19  20
ATOM     20  C   UNL     1       7.741   9.162  17.663  0.00  0.00    +0.000 C 
BRANCH  20  21
ATOM     21  N   UNL     1       8.560  10.171  18.320  0.00  0.00    +0.000 N 
ATOM     22  N   UNL     1       9.309   9.743  19.380  0.00  0.00    +0.000 NA
ATOM     23  N   UNL     1      10.053  10.524  20.012  0.00  0.00    +0.000 NA
ATOM     24  C   UNL     1      10.162  11.862  19.612  0.00  0.00    +0.000 A 
ATOM     25  C   UNL     1      11.075  12.698  20.265  0.00  0.00    +0.000 A 
ATOM     26  C   UNL     1      11.222  14.036  19.884  0.00  0.00    +0.000 A 
ATOM     27  C   UNL     1      10.437  14.560  18.857  0.00  0.00    +0.000 A 
ATOM     28  C   UNL     1       9.516  13.744  18.207  0.00  0.00    +0.000 A 
ATOM     29  C   UNL     1       9.402  12.401  18.587  0.00  0.00    +0.000 A 
ATOM     30  C   UNL     1       8.498  11.484  17.899  0.00  0.00    +0.000 A 
ATOM     31  O   UNL     1       7.762  11.897  17.009  0.00  0.00    +0.000 OA
ENDBRANCH  20  21
ENDBRANCH  19  20
ENDBRANCH  10  19
TORSDOF 5
ENDMDL
MODEL 9
REMARK VINA RESULT:      -7.9      3.764      9.307
REMARK  Name = 
REMARK  5 active torsions:
REMARK  status: ('A' for Active; 'I' for Inactive)
REMARK    1  A    between atoms: C_2  and  C_4
REMARK    2  A    between atoms: C_4  and  C_5
REMARK    3  A    between atoms: C_14  and  C_16
REMARK    4  A    between atoms: C_16  and  C_17
REMARK    5  A    between atoms: C_17  and  N_18
REMARK                            x       y       z     vdW  Elec       q    Type
REMARK                         _______ _______ _______ _____ _____    ______ ____
ROOT
ATOM      1  C   UNL     1       4.435   4.325  17.805  0.00  0.00    +0.000 A 
ATOM      2  C   UNL     1       5.031   4.043  16.563  0.00  0.00    +0.000 A 
ATOM      3  C   UNL     1       5.275   5.055  15.636  0.00  0.00    +0.000 A 
ATOM      4  C   UNL     1       4.949   6.371  15.941  0.00  0.00    +0.000 A 
ATOM      5  C   UNL     1       4.331   6.676  17.158  0.00  0.00    +0.000 A 
ATOM      6  C   UNL     1       4.044   5.649  18.084  0.00  0.00    +0.000 A 
ATOM      7  C   UNL     1       3.330   6.073  19.345  0.00  0.00    +0.000 C 
ATOM      8  C   UNL     1       2.248   7.102  19.002  0.00  0.00    +0.000 C 
ATOM      9  N   UNL     1       2.730   8.244  18.217  0.00  0.00    +0.000 N 
ATOM     10  C   UNL     1       2.005   9.409  18.020  0.00  0.00    +0.000 C 
ATOM     11  O   UNL     1       2.457  10.359  17.376  0.00  0.00    +0.000 OA
ATOM     12  C   UNL     1       4.009   8.107  17.523  0.00  0.00    +0.000 C 
ENDROOT
BRANCH   1  13
ATOM     13  C   UNL     1       4.196   3.180  18.769  0.00  0.00    +0.000 C 
BRANCH  13  15
ATOM     14  N   UNL     1       4.061   0.758  18.354  0.00  0.00    +0.000 N 
ATOM     15  C   UNL     1       3.480   1.980  18.174  0.00  0.00    +0.000 C 
ATOM     16  O   UNL     1       2.389   2.070  17.620  0.00  0.00    +0.000 OA
ATOM     17  H   UNL     1       3.610  -0.033  17.917  0.00  0.00    +0.000 HD
ATOM     18  H   UNL     1       5.031   0.661  18.621  0.00  0.00    +0.000 HD
ENDBRANCH  13  15
ENDBRANCH   1  13
BRANCH  10  19
ATOM     19  C   UNL     1       0.639   9.500  18.669  0.00  0.00    +0.000 C 
BRANCH  19  20
ATOM     20  C   UNL     1      -0.433   9.701  17.603  0.00  0.00    +0.000 C 
BRANCH  20  21
ATOM     21  N   UNL     1      -1.563  10.465  18.114  0.00  0.00    +0.000 N 
ATOM     22  N   UNL     1      -1.344  11.172  19.262  0.00  0.00    +0.000 NA
ATOM     23  N   UNL     1      -2.243  11.867  19.784  0.00  0.00    +0.000 NA
ATOM     24  C   UNL     1      -3.496  11.965  19.167  0.00  0.00    +0.000 A 
ATOM     25  C   UNL     1      -4.458  12.826  19.706  0.00  0.00    +0.000 A 
ATOM     26  C   UNL     1      -5.717  12.961  19.110  0.00  0.00    +0.000 A 
ATOM     27  C   UNL     1      -6.035  12.214  17.976  0.00  0.00    +0.000 A 
ATOM     28  C   UNL     1      -5.093  11.344  17.435  0.00  0.00    +0.000 A 
ATOM     29  C   UNL     1      -3.831  11.243  18.033  0.00  0.00    +0.000 A 
ATOM     30  C   UNL     1      -2.783  10.393  17.473  0.00  0.00    +0.000 A 
ATOM     31  O   UNL     1      -3.018   9.691  16.495  0.00  0.00    +0.000 OA
ENDBRANCH  20  21
ENDBRANCH  19  20
ENDBRANCH  10  19
TORSDOF 5
ENDMDL
