MODEL 1
REMARK VINA RESULT:      -8.5      0.000      0.000
REMARK  Name = 
REMARK  5 active torsions:
REMARK  status: ('A' for Active; 'I' for Inactive)
REMARK    1  A    between atoms: C_2  and  C_4
REMARK    2  A    between atoms: C_4  and  N_5
REMARK    3  A    between atoms: C_4  and  C_21
REMARK    4  A    between atoms: N_5  and  C_6
REMARK    5  A    between atoms: C_10  and  C_11
REMARK                            x       y       z     vdW  Elec       q    Type
REMARK                         _______ _______ _______ _____ _____    ______ ____
ROOT
ATOM      1  C   UNL     1       3.982   4.224  17.035  0.00  0.00    +0.000 A 
ATOM      2  C   UNL     1       3.273   3.087  17.444  0.00  0.00    +0.000 A 
ATOM      3  C   UNL     1       2.125   3.191  18.231  0.00  0.00    +0.000 A 
ATOM      4  C   UNL     1       1.703   4.436  18.693  0.00  0.00    +0.000 A 
ATOM      5  C   UNL     1       2.437   5.596  18.404  0.00  0.00    +0.000 A 
ATOM      6  C   UNL     1       3.555   5.467  17.537  0.00  0.00    +0.000 A 
ENDROOT
BRANCH   5   7
ATOM      7  C   UNL     1       2.052   6.867  19.075  0.00  0.00    +0.000 A 
ATOM      8  N   UNL     1       1.917   8.035  18.458  0.00  0.00    +0.000 NA
ATOM      9  C   UNL     1       1.442   9.007  19.339  0.00  0.00    +0.000 A 
ATOM     10  C   UNL     1       1.149  10.353  19.038  0.00  0.00    +0.000 A 
ATOM     11  C   UNL     1       0.690  11.221  20.036  0.00  0.00    +0.000 A 
ATOM     12  C   UNL     1       0.514  10.759  21.340  0.00  0.00    +0.000 A 
ATOM     13  C   UNL     1       0.786   9.427  21.663  0.00  0.00    +0.000 A 
ATOM     14  C   UNL     1       1.251   8.572  20.647  0.00  0.00    +0.000 A 
ATOM     15  S   UNL     1       1.664   6.911  20.753  0.00  0.00    +0.000 S 
ENDBRANCH   5   7
BRANCH   1  16
ATOM     16  N   UNL     1       5.086   4.049  16.209  0.00  0.00    +0.000 N 
ATOM     17  H   UNL     1       5.091   3.209  15.645  0.00  0.00    +0.000 HD
BRANCH  16  18
ATOM     18  C   UNL     1       5.886   5.156  15.642  0.00  0.00    +0.000 C 
BRANCH  18  19
ATOM     19  C   UNL     1       6.738   5.782  16.749  0.00  0.00    +0.000 A 
ATOM     20  C   UNL     1       7.301   4.968  17.745  0.00  0.00    +0.000 A 
ATOM     21  C   UNL     1       8.051   5.523  18.786  0.00  0.00    +0.000 A 
ATOM     22  C   UNL     1       8.252   6.900  18.848  0.00  0.00    +0.000 A 
ATOM     23  C   UNL     1       7.712   7.724  17.868  0.00  0.00    +0.000 A 
ATOM     24  C   UNL     1       6.965   7.171  16.824  0.00  0.00    +0.000 A 
ENDBRANCH  18  19
BRANCH  18  26
ATOM     25  N   UNL     1       6.420   3.572  13.782  0.00  0.00    +0.000 N 
ATOM     26  C   UNL     1       6.787   4.709  14.455  0.00  0.00    +0.000 C 
ATOM     27  O   UNL     1       7.835   5.279  14.153  0.00  0.00    +0.000 OA
ATOM     28  H   UNL     1       6.988   3.288  12.996  0.00  0.00    +0.000 HD
ATOM     29  H   UNL     1       5.508   3.159  13.911  0.00  0.00    +0.000 HD
ENDBRANCH  18  26
ENDBRANCH  16  18
ENDBRANCH   1  16
TORSDOF 5
ENDMDL
MODEL 2
REMARK VINA RESULT:      -8.5      0.857      1.583
REMARK  Name = 
REMARK  5 active torsions:
REMARK  status: ('A' for Active; 'I' for Inactive)
REMARK    1  A    between atoms: C_2  and  C_4
REMARK    2  A    between atoms: C_4  and  N_5
REMARK    3  A    between atoms: C_4  and  C_21
REMARK    4  A    between atoms: N_5  and  C_6
REMARK    5  A    between atoms: C_10  and  C_11
REMARK                            x       y       z     vdW  Elec       q    Type
REMARK                         _______ _______ _______ _____ _____    ______ ____
ROOT
ATOM      1  C   UNL     1       4.106   4.293  17.167  0.00  0.00    +0.000 A 
ATOM      2  C   UNL     1       3.947   3.172  17.991  0.00  0.00    +0.000 A 
ATOM      3  C   UNL     1       3.093   3.197  19.094  0.00  0.00    +0.000 A 
ATOM      4  C   UNL     1       2.435   4.375  19.444  0.00  0.00    +0.000 A 
ATOM      5  C   UNL     1       2.643   5.557  18.718  0.00  0.00    +0.000 A 
ATOM      6  C   UNL     1       3.456   5.479  17.555  0.00  0.00    +0.000 A 
ENDROOT
BRANCH   5   7
ATOM      7  C   UNL     1       2.068   6.825  19.242  0.00  0.00    +0.000 A 
ATOM      8  N   UNL     1       1.657   7.008  20.492  0.00  0.00    +0.000 NA
ATOM      9  C   UNL     1       1.272   8.333  20.696  0.00  0.00    +0.000 A 
ATOM     10  C   UNL     1       0.811   8.905  21.900  0.00  0.00    +0.000 A 
ATOM     11  C   UNL     1       0.447  10.256  21.950  0.00  0.00    +0.000 A 
ATOM     12  C   UNL     1       0.540  11.051  20.808  0.00  0.00    +0.000 A 
ATOM     13  C   UNL     1       1.005  10.512  19.605  0.00  0.00    +0.000 A 
ATOM     14  C   UNL     1       1.362   9.151  19.574  0.00  0.00    +0.000 A 
ATOM     15  S   UNL     1       1.954   8.231  18.253  0.00  0.00    +0.000 S 
ENDBRANCH   5   7
BRANCH   1  16
ATOM     16  N   UNL     1       4.933   4.180  16.055  0.00  0.00    +0.000 N 
ATOM     17  H   UNL     1       4.616   3.552  15.327  0.00  0.00    +0.000 HD
BRANCH  16  18
ATOM     18  C   UNL     1       5.831   5.251  15.573  0.00  0.00    +0.000 C 
BRANCH  18  19
ATOM     19  C   UNL     1       6.661   5.780  16.745  0.00  0.00    +0.000 A 
ATOM     20  C   UNL     1       6.907   7.157  16.865  0.00  0.00    +0.000 A 
ATOM     21  C   UNL     1       7.693   7.658  17.906  0.00  0.00    +0.000 A 
ATOM     22  C   UNL     1       8.246   6.791  18.846  0.00  0.00    +0.000 A 
ATOM     23  C   UNL     1       8.009   5.424  18.752  0.00  0.00    +0.000 A 
ATOM     24  C   UNL     1       7.219   4.922  17.714  0.00  0.00    +0.000 A 
ENDBRANCH  18  19
BRANCH  18  26
ATOM     25  N   UNL     1       6.458   3.602  13.800  0.00  0.00    +0.000 N 
ATOM     26  C   UNL     1       6.764   4.788  14.416  0.00  0.00    +0.000 C 
ATOM     27  O   UNL     1       7.787   5.392  14.094  0.00  0.00    +0.000 OA
ATOM     28  H   UNL     1       7.047   3.306  13.034  0.00  0.00    +0.000 HD
ATOM     29  H   UNL     1       5.566   3.152  13.944  0.00  0.00    +0.000 HD
ENDBRANCH  18  26
ENDBRANCH  16  18
ENDBRANCH   1  16
TORSDOF 5
ENDMDL
MODEL 3
REMARK VINA RESULT:      -8.4      0.631      1.146
REMARK  Name = 
REMARK  5 active torsions:
REMARK  status: ('A' for Active; 'I' for Inactive)
REMARK    1  A    between atoms: C_2  and  C_4
REMARK    2  A    between atoms: C_4  and  N_5
REMARK    3  A    between atoms: C_4  and  C_21
REMARK    4  A    between atoms: N_5  and  C_6
REMARK    5  A    between atoms: C_10  and  C_11
REMARK                            x       y       z     vdW  Elec       q    Type
REMARK                         _______ _______ _______ _____ _____    ______ ____
ROOT
ATOM      1  C   UNL     1       4.003   4.619  17.347  0.00  0.00    +0.000 A 
ATOM      2  C   UNL     1       3.801   3.567  18.249  0.00  0.00    +0.000 A 
ATOM      3  C   UNL     1       2.950   3.703  19.346  0.00  0.00    +0.000 A 
ATOM      4  C   UNL     1       2.340   4.928  19.611  0.00  0.00    +0.000 A 
ATOM      5  C   UNL     1       2.593   6.046  18.803  0.00  0.00    +0.000 A 
ATOM      6  C   UNL     1       3.400   5.854  17.649  0.00  0.00    +0.000 A 
ENDROOT
BRANCH   5   7
ATOM      7  C   UNL     1       2.069   7.370  19.235  0.00  0.00    +0.000 A 
ATOM      8  N   UNL     1       1.916   8.419  18.436  0.00  0.00    +0.000 NA
ATOM      9  C   UNL     1       1.304   9.472  19.116  0.00  0.00    +0.000 A 
ATOM     10  C   UNL     1       0.954  10.732  18.586  0.00  0.00    +0.000 A 
ATOM     11  C   UNL     1       0.352  11.701  19.398  0.00  0.00    +0.000 A 
ATOM     12  C   UNL     1       0.090  11.427  20.740  0.00  0.00    +0.000 A 
ATOM     13  C   UNL     1       0.415  10.183  21.286  0.00  0.00    +0.000 A 
ATOM     14  C   UNL     1       1.023   9.224  20.456  0.00  0.00    +0.000 A 
ATOM     15  S   UNL     1       1.530   7.634  20.850  0.00  0.00    +0.000 S 
ENDBRANCH   5   7
BRANCH   1  16
ATOM     16  N   UNL     1       4.823   4.395  16.247  0.00  0.00    +0.000 N 
ATOM     17  H   UNL     1       4.467   3.753  15.551  0.00  0.00    +0.000 HD
BRANCH  16  18
ATOM     18  C   UNL     1       5.791   5.379  15.716  0.00  0.00    +0.000 C 
BRANCH  18  19
ATOM     19  C   UNL     1       6.653   5.909  16.865  0.00  0.00    +0.000 A 
ATOM     20  C   UNL     1       6.972   7.275  16.930  0.00  0.00    +0.000 A 
ATOM     21  C   UNL     1       7.788   7.774  17.947  0.00  0.00    +0.000 A 
ATOM     22  C   UNL     1       8.299   6.917  18.920  0.00  0.00    +0.000 A 
ATOM     23  C   UNL     1       7.990   5.562  18.880  0.00  0.00    +0.000 A 
ATOM     24  C   UNL     1       7.170   5.062  17.865  0.00  0.00    +0.000 A 
ENDBRANCH  18  19
BRANCH  18  26
ATOM     25  N   UNL     1       6.341   3.577  14.071  0.00  0.00    +0.000 N 
ATOM     26  C   UNL     1       6.692   4.798  14.588  0.00  0.00    +0.000 C 
ATOM     27  O   UNL     1       7.727   5.342  14.206  0.00  0.00    +0.000 OA
ATOM     28  H   UNL     1       6.910   3.204  13.324  0.00  0.00    +0.000 HD
ATOM     29  H   UNL     1       5.438   3.168  14.261  0.00  0.00    +0.000 HD
ENDBRANCH  18  26
ENDBRANCH  16  18
ENDBRANCH   1  16
TORSDOF 5
ENDMDL
MODEL 4
REMARK VINA RESULT:      -8.4      1.804      3.279
REMARK  Name = 
REMARK  5 active torsions:
REMARK  status: ('A' for Active; 'I' for Inactive)
REMARK    1  A    between atoms: C_2  and  C_4
REMARK    2  A    between atoms: C_4  and  N_5
REMARK    3  A    between atoms: C_4  and  C_21
REMARK    4  A    between atoms: N_5  and  C_6
REMARK    5  A    between atoms: C_10  and  C_11
REMARK                            x       y       z     vdW  Elec       q    Type
REMARK                         _______ _______ _______ _____ _____    ______ ____
ROOT
ATOM      1  C   UNL     1       4.102   5.352  17.439  0.00  0.00    +0.000 A 
ATOM      2  C   UNL     1       4.085   4.178  18.204  0.00  0.00    +0.000 A 
ATOM      3  C   UNL     1       3.253   4.048  19.317  0.00  0.00    +0.000 A 
ATOM      4  C   UNL     1       2.472   5.123  19.736  0.00  0.00    +0.000 A 
ATOM      5  C   UNL     1       2.531   6.357  19.072  0.00  0.00    +0.000 A 
ATOM      6  C   UNL     1       3.328   6.433  17.897  0.00  0.00    +0.000 A 
ENDROOT
BRANCH   5   7
ATOM      7  C   UNL     1       1.824   7.522  19.669  0.00  0.00    +0.000 A 
ATOM      8  N   UNL     1       1.336   7.557  20.903  0.00  0.00    +0.000 NA
ATOM      9  C   UNL     1       0.830   8.823  21.199  0.00  0.00    +0.000 A 
ATOM     10  C   UNL     1       0.261   9.244  22.418  0.00  0.00    +0.000 A 
ATOM     11  C   UNL     1      -0.219  10.551  22.564  0.00  0.00    +0.000 A 
ATOM     12  C   UNL     1      -0.135  11.452  21.502  0.00  0.00    +0.000 A 
ATOM     13  C   UNL     1       0.435  11.063  20.287  0.00  0.00    +0.000 A 
ATOM     14  C   UNL     1       0.908   9.744  20.159  0.00  0.00    +0.000 A 
ATOM     15  S   UNL     1       1.642   8.999  18.801  0.00  0.00    +0.000 S 
ENDBRANCH   5   7
BRANCH   1  16
ATOM     16  N   UNL     1       4.918   5.392  16.314  0.00  0.00    +0.000 N 
ATOM     17  H   UNL     1       4.975   6.283  15.838  0.00  0.00    +0.000 HD
BRANCH  16  18
ATOM     18  C   UNL     1       6.100   4.528  16.112  0.00  0.00    +0.000 C 
BRANCH  18  19
ATOM     19  C   UNL     1       6.397   4.421  14.614  0.00  0.00    +0.000 A 
ATOM     20  C   UNL     1       5.643   3.550  13.810  0.00  0.00    +0.000 A 
ATOM     21  C   UNL     1       5.921   3.409  12.448  0.00  0.00    +0.000 A 
ATOM     22  C   UNL     1       6.956   4.136  11.865  0.00  0.00    +0.000 A 
ATOM     23  C   UNL     1       7.710   5.011  12.639  0.00  0.00    +0.000 A 
ATOM     24  C   UNL     1       7.431   5.156  14.001  0.00  0.00    +0.000 A 
ENDBRANCH  18  19
BRANCH  18  26
ATOM     25  N   UNL     1       7.555   6.386  16.940  0.00  0.00    +0.000 N 
ATOM     26  C   UNL     1       7.359   5.030  16.877  0.00  0.00    +0.000 C 
ATOM     27  O   UNL     1       8.208   4.273  17.347  0.00  0.00    +0.000 OA
ATOM     28  H   UNL     1       8.359   6.720  17.453  0.00  0.00    +0.000 HD
ATOM     29  H   UNL     1       6.823   7.033  16.686  0.00  0.00    +0.000 HD
ENDBRANCH  18  26
ENDBRANCH  16  18
ENDBRANCH   1  16
TORSDOF 5
ENDMDL
MODEL 5
REMARK VINA RESULT:      -8.4      1.197      1.527
REMARK  Name = 
REMARK  5 active torsions:
REMARK  status: ('A' for Active; 'I' for Inactive)
REMARK    1  A    between atoms: C_2  and  C_4
REMARK    2  A    between atoms: C_4  and  N_5
REMARK    3  A    between atoms: C_4  and  C_21
REMARK    4  A    between atoms: N_5  and  C_6
REMARK    5  A    between atoms: C_10  and  C_11
REMARK                            x       y       z     vdW  Elec       q    Type
REMARK                         _______ _______ _______ _____ _____    ______ ____
ROOT
ATOM      1  C   UNL     1       4.101   4.481  17.495  0.00  0.00    +0.000 A 
ATOM      2  C   UNL     1       4.239   3.491  18.477  0.00  0.00    +0.000 A 
ATOM      3  C   UNL     1       3.572   3.582  19.699  0.00  0.00    +0.000 A 
ATOM      4  C   UNL     1       2.810   4.709  19.999  0.00  0.00    +0.000 A 
ATOM      5  C   UNL     1       2.725   5.779  19.097  0.00  0.00    +0.000 A 
ATOM      6  C   UNL     1       3.350   5.622  17.830  0.00  0.00    +0.000 A 
ENDROOT
BRANCH   5   7
ATOM      7  C   UNL     1       2.056   7.033  19.540  0.00  0.00    +0.000 A 
ATOM      8  N   UNL     1       1.536   7.225  20.746  0.00  0.00    +0.000 NA
ATOM      9  C   UNL     1       1.082   8.536  20.885  0.00  0.00    +0.000 A 
ATOM     10  C   UNL     1       0.499   9.114  22.032  0.00  0.00    +0.000 A 
ATOM     11  C   UNL     1       0.076  10.448  22.018  0.00  0.00    +0.000 A 
ATOM     12  C   UNL     1       0.230  11.221  20.868  0.00  0.00    +0.000 A 
ATOM     13  C   UNL     1       0.815  10.677  19.721  0.00  0.00    +0.000 A 
ATOM     14  C   UNL     1       1.230   9.333  19.753  0.00  0.00    +0.000 A 
ATOM     15  S   UNL     1       1.966   8.410  18.509  0.00  0.00    +0.000 S 
ENDBRANCH   5   7
BRANCH   1  16
ATOM     16  N   UNL     1       4.753   4.299  16.281  0.00  0.00    +0.000 N 
ATOM     17  H   UNL     1       4.271   3.728  15.598  0.00  0.00    +0.000 HD
BRANCH  16  18
ATOM     18  C   UNL     1       5.698   5.270  15.690  0.00  0.00    +0.000 C 
BRANCH  18  19
ATOM     19  C   UNL     1       6.618   5.812  16.786  0.00  0.00    +0.000 A 
ATOM     20  C   UNL     1       7.225   4.927  17.692  0.00  0.00    +0.000 A 
ATOM     21  C   UNL     1       8.038   5.403  18.724  0.00  0.00    +0.000 A 
ATOM     22  C   UNL     1       8.261   6.770  18.868  0.00  0.00    +0.000 A 
ATOM     23  C   UNL     1       7.677   7.664  17.977  0.00  0.00    +0.000 A 
ATOM     24  C   UNL     1       6.866   7.190  16.942  0.00  0.00    +0.000 A 
ENDBRANCH  18  19
BRANCH  18  26
ATOM     25  N   UNL     1       7.642   5.377  14.121  0.00  0.00    +0.000 N 
ATOM     26  C   UNL     1       6.539   4.670  14.526  0.00  0.00    +0.000 C 
ATOM     27  O   UNL     1       6.215   3.651  13.918  0.00  0.00    +0.000 OA
ATOM     28  H   UNL     1       8.205   4.982  13.380  0.00  0.00    +0.000 HD
ATOM     29  H   UNL     1       8.011   6.136  14.675  0.00  0.00    +0.000 HD
ENDBRANCH  18  26
ENDBRANCH  16  18
ENDBRANCH   1  16
TORSDOF 5
ENDMDL
MODEL 6
REMARK VINA RESULT:      -8.3      2.921      4.351
REMARK  Name = 
REMARK  5 active torsions:
REMARK  status: ('A' for Active; 'I' for Inactive)
REMARK    1  A    between atoms: C_2  and  C_4
REMARK    2  A    between atoms: C_4  and  N_5
REMARK    3  A    between atoms: C_4  and  C_21
REMARK    4  A    between atoms: N_5  and  C_6
REMARK    5  A    between atoms: C_10  and  C_11
REMARK                            x       y       z     vdW  Elec       q    Type
REMARK                         _______ _______ _______ _____ _____    ______ ____
ROOT
ATOM      1  C   UNL     1       2.801   6.667  19.446  0.00  0.00    +0.000 A 
ATOM      2  C   UNL     1       3.052   6.925  18.092  0.00  0.00    +0.000 A 
ATOM      3  C   UNL     1       2.601   8.094  17.479  0.00  0.00    +0.000 A 
ATOM      4  C   UNL     1       1.817   9.000  18.190  0.00  0.00    +0.000 A 
ATOM      5  C   UNL     1       1.444   8.740  19.517  0.00  0.00    +0.000 A 
ATOM      6  C   UNL     1       1.984   7.581  20.137  0.00  0.00    +0.000 A 
ENDROOT
BRANCH   5   7
ATOM      7  C   UNL     1       0.455   9.642  20.169  0.00  0.00    +0.000 A 
ATOM      8  N   UNL     1       0.177   9.644  21.467  0.00  0.00    +0.000 NA
ATOM      9  C   UNL     1      -0.709  10.676  21.779  0.00  0.00    +0.000 A 
ATOM     10  C   UNL     1      -1.205  11.007  23.057  0.00  0.00    +0.000 A 
ATOM     11  C   UNL     1      -2.104  12.068  23.216  0.00  0.00    +0.000 A 
ATOM     12  C   UNL     1      -2.515  12.812  22.110  0.00  0.00    +0.000 A 
ATOM     13  C   UNL     1      -2.029  12.512  20.834  0.00  0.00    +0.000 A 
ATOM     14  C   UNL     1      -1.129  11.439  20.695  0.00  0.00    +0.000 A 
ATOM     15  S   UNL     1      -0.382  10.849  19.269  0.00  0.00    +0.000 S 
ENDBRANCH   5   7
BRANCH   1  16
ATOM     16  N   UNL     1       3.326   5.507  20.003  0.00  0.00    +0.000 N 
ATOM     17  H   UNL     1       3.055   5.311  20.958  0.00  0.00    +0.000 HD
BRANCH  16  18
ATOM     18  C   UNL     1       3.697   4.304  19.227  0.00  0.00    +0.000 C 
BRANCH  18  19
ATOM     19  C   UNL     1       5.042   4.545  18.536  0.00  0.00    +0.000 A 
ATOM     20  C   UNL     1       6.085   5.176  19.233  0.00  0.00    +0.000 A 
ATOM     21  C   UNL     1       7.308   5.440  18.610  0.00  0.00    +0.000 A 
ATOM     22  C   UNL     1       7.510   5.076  17.281  0.00  0.00    +0.000 A 
ATOM     23  C   UNL     1       6.494   4.442  16.574  0.00  0.00    +0.000 A 
ATOM     24  C   UNL     1       5.272   4.174  17.197  0.00  0.00    +0.000 A 
ENDBRANCH  18  19
BRANCH  18  26
ATOM     25  N   UNL     1       4.716   2.086  19.772  0.00  0.00    +0.000 N 
ATOM     26  C   UNL     1       3.760   3.015  20.096  0.00  0.00    +0.000 C 
ATOM     27  O   UNL     1       2.953   2.766  20.991  0.00  0.00    +0.000 OA
ATOM     28  H   UNL     1       4.776   1.256  20.345  0.00  0.00    +0.000 HD
ATOM     29  H   UNL     1       5.471   2.310  19.140  0.00  0.00    +0.000 HD
ENDBRANCH  18  26
ENDBRANCH  16  18
ENDBRANCH   1  16
TORSDOF 5
ENDMDL
MODEL 7
REMARK VINA RESULT:      -8.2      2.836      4.234
REMARK  Name = 
REMARK  5 active torsions:
REMARK  status: ('A' for Active; 'I' for Inactive)
REMARK    1  A    between atoms: C_2  and  C_4
REMARK    2  A    between atoms: C_4  and  N_5
REMARK    3  A    between atoms: C_4  and  C_21
REMARK    4  A    between atoms: N_5  and  C_6
REMARK    5  A    between atoms: C_10  and  C_11
REMARK                            x       y       z     vdW  Elec       q    Type
REMARK                         _______ _______ _______ _____ _____    ______ ____
ROOT
ATOM      1  C   UNL     1       2.730   6.642  19.535  0.00  0.00    +0.000 A 
ATOM      2  C   UNL     1       2.839   6.893  18.161  0.00  0.00    +0.000 A 
ATOM      3  C   UNL     1       2.359   8.076  17.599  0.00  0.00    +0.000 A 
ATOM      4  C   UNL     1       1.686   9.005  18.390  0.00  0.00    +0.000 A 
ATOM      5  C   UNL     1       1.454   8.756  19.750  0.00  0.00    +0.000 A 
ATOM      6  C   UNL     1       2.023   7.580  20.310  0.00  0.00    +0.000 A 
ENDROOT
BRANCH   5   7
ATOM      7  C   UNL     1       0.571   9.687  20.504  0.00  0.00    +0.000 A 
ATOM      8  N   UNL     1      -0.066  10.722  19.970  0.00  0.00    +0.000 NA
ATOM      9  C   UNL     1      -0.895  11.331  20.912  0.00  0.00    +0.000 A 
ATOM     10  C   UNL     1      -1.746  12.437  20.702  0.00  0.00    +0.000 A 
ATOM     11  C   UNL     1      -2.514  12.951  21.753  0.00  0.00    +0.000 A 
ATOM     12  C   UNL     1      -2.448  12.370  23.020  0.00  0.00    +0.000 A 
ATOM     13  C   UNL     1      -1.623  11.266  23.251  0.00  0.00    +0.000 A 
ATOM     14  C   UNL     1      -0.854  10.767  22.183  0.00  0.00    +0.000 A 
ATOM     15  S   UNL     1       0.236   9.444  22.177  0.00  0.00    +0.000 S 
ENDBRANCH   5   7
BRANCH   1  16
ATOM     16  N   UNL     1       3.277   5.465  20.034  0.00  0.00    +0.000 N 
ATOM     17  H   UNL     1       3.042   5.237  20.992  0.00  0.00    +0.000 HD
BRANCH  16  18
ATOM     18  C   UNL     1       3.621   4.290  19.206  0.00  0.00    +0.000 C 
BRANCH  18  19
ATOM     19  C   UNL     1       4.968   4.533  18.521  0.00  0.00    +0.000 A 
ATOM     20  C   UNL     1       6.005   5.171  19.219  0.00  0.00    +0.000 A 
ATOM     21  C   UNL     1       7.230   5.436  18.601  0.00  0.00    +0.000 A 
ATOM     22  C   UNL     1       7.440   5.067  17.274  0.00  0.00    +0.000 A 
ATOM     23  C   UNL     1       6.430   4.426  16.565  0.00  0.00    +0.000 A 
ATOM     24  C   UNL     1       5.206   4.156  17.184  0.00  0.00    +0.000 A 
ENDBRANCH  18  19
BRANCH  18  26
ATOM     25  N   UNL     1       4.771   2.173  19.875  0.00  0.00    +0.000 N 
ATOM     26  C   UNL     1       3.660   2.964  20.018  0.00  0.00    +0.000 C 
ATOM     27  O   UNL     1       2.719   2.567  20.706  0.00  0.00    +0.000 OA
ATOM     28  H   UNL     1       4.813   1.320  20.416  0.00  0.00    +0.000 HD
ATOM     29  H   UNL     1       5.609   2.521  19.432  0.00  0.00    +0.000 HD
ENDBRANCH  18  26
ENDBRANCH  16  18
ENDBRANCH   1  16
TORSDOF 5
ENDMDL
MODEL 8
REMARK VINA RESULT:      -8.2      2.874      4.388
REMARK  Name = 
REMARK  5 active torsions:
REMARK  status: ('A' for Active; 'I' for Inactive)
REMARK    1  A    between atoms: C_2  and  C_4
REMARK    2  A    between atoms: C_4  and  N_5
REMARK    3  A    between atoms: C_4  and  C_21
REMARK    4  A    between atoms: N_5  and  C_6
REMARK    5  A    between atoms: C_10  and  C_11
REMARK                            x       y       z     vdW  Elec       q    Type
REMARK                         _______ _______ _______ _____ _____    ______ ____
ROOT
ATOM      1  C   UNL     1       2.798   6.674  19.462  0.00  0.00    +0.000 A 
ATOM      2  C   UNL     1       3.036   6.925  18.105  0.00  0.00    +0.000 A 
ATOM      3  C   UNL     1       2.576   8.089  17.488  0.00  0.00    +0.000 A 
ATOM      4  C   UNL     1       1.795   8.996  18.201  0.00  0.00    +0.000 A 
ATOM      5  C   UNL     1       1.434   8.743  19.533  0.00  0.00    +0.000 A 
ATOM      6  C   UNL     1       1.984   7.589  20.155  0.00  0.00    +0.000 A 
ENDROOT
BRANCH   5   7
ATOM      7  C   UNL     1       0.448   9.645  20.187  0.00  0.00    +0.000 A 
ATOM      8  N   UNL     1       0.156   9.632  21.482  0.00  0.00    +0.000 NA
ATOM      9  C   UNL     1      -0.722  10.668  21.801  0.00  0.00    +0.000 A 
ATOM     10  C   UNL     1      -1.229  10.985  23.079  0.00  0.00    +0.000 A 
ATOM     11  C   UNL     1      -2.118  12.053  23.244  0.00  0.00    +0.000 A 
ATOM     12  C   UNL     1      -2.510  12.817  22.145  0.00  0.00    +0.000 A 
ATOM     13  C   UNL     1      -2.013  12.531  20.870  0.00  0.00    +0.000 A 
ATOM     14  C   UNL     1      -1.124  11.451  20.724  0.00  0.00    +0.000 A 
ATOM     15  S   UNL     1      -0.368  10.874  19.297  0.00  0.00    +0.000 S 
ENDBRANCH   5   7
BRANCH   1  16
ATOM     16  N   UNL     1       3.331   5.519  20.022  0.00  0.00    +0.000 N 
ATOM     17  H   UNL     1       3.086   5.338  20.987  0.00  0.00    +0.000 HD
BRANCH  16  18
ATOM     18  C   UNL     1       3.676   4.304  19.254  0.00  0.00    +0.000 C 
BRANCH  18  19
ATOM     19  C   UNL     1       4.998   4.530  18.517  0.00  0.00    +0.000 A 
ATOM     20  C   UNL     1       5.145   4.094  17.191  0.00  0.00    +0.000 A 
ATOM     21  C   UNL     1       6.356   4.256  16.512  0.00  0.00    +0.000 A 
ATOM     22  C   UNL     1       7.440   4.859  17.146  0.00  0.00    +0.000 A 
ATOM     23  C   UNL     1       7.315   5.306  18.457  0.00  0.00    +0.000 A 
ATOM     24  C   UNL     1       6.103   5.148  19.136  0.00  0.00    +0.000 A 
ENDBRANCH  18  19
BRANCH  18  26
ATOM     25  N   UNL     1       2.756   2.826  21.049  0.00  0.00    +0.000 N 
ATOM     26  C   UNL     1       3.763   3.028  20.140  0.00  0.00    +0.000 C 
ATOM     27  O   UNL     1       4.719   2.253  20.113  0.00  0.00    +0.000 OA
ATOM     28  H   UNL     1       2.795   1.988  21.614  0.00  0.00    +0.000 HD
ATOM     29  H   UNL     1       1.900   3.359  21.010  0.00  0.00    +0.000 HD
ENDBRANCH  18  26
ENDBRANCH  16  18
ENDBRANCH   1  16
TORSDOF 5
ENDMDL
MODEL 9
REMARK VINA RESULT:      -8.2      1.701      3.168
REMARK  Name = 
REMARK  5 active torsions:
REMARK  status: ('A' for Active; 'I' for Inactive)
REMARK    1  A    between atoms: C_2  and  C_4
REMARK    2  A    between atoms: C_4  and  N_5
REMARK    3  A    between atoms: C_4  and  C_21
REMARK    4  A    between atoms: N_5  and  C_6
REMARK    5  A    between atoms: C_10  and  C_11
REMARK                            x       y       z     vdW  Elec       q    Type
REMARK                         _______ _______ _______ _____ _____    ______ ____
ROOT
ATOM      1  C   UNL     1       4.104   5.609  17.353  0.00  0.00    +0.000 A 
ATOM      2  C   UNL     1       4.031   4.490  18.193  0.00  0.00    +0.000 A 
ATOM      3  C   UNL     1       3.185   4.468  19.302  0.00  0.00    +0.000 A 
ATOM      4  C   UNL     1       2.447   5.601  19.642  0.00  0.00    +0.000 A 
ATOM      5  C   UNL     1       2.564   6.784  18.899  0.00  0.00    +0.000 A 
ATOM      6  C   UNL     1       3.372   6.750  17.731  0.00  0.00    +0.000 A 
ENDROOT
BRANCH   5   7
ATOM      7  C   UNL     1       1.902   8.015  19.412  0.00  0.00    +0.000 A 
ATOM      8  N   UNL     1       1.633   9.088  18.678  0.00  0.00    +0.000 NA
ATOM      9  C   UNL     1       0.914  10.026  19.421  0.00  0.00    +0.000 A 
ATOM     10  C   UNL     1       0.428  11.270  18.969  0.00  0.00    +0.000 A 
ATOM     11  C   UNL     1      -0.270  12.117  19.838  0.00  0.00    +0.000 A 
ATOM     12  C   UNL     1      -0.494  11.735  21.161  0.00  0.00    +0.000 A 
ATOM     13  C   UNL     1      -0.033  10.502  21.630  0.00  0.00    +0.000 A 
ATOM     14  C   UNL     1       0.670   9.667  20.742  0.00  0.00    +0.000 A 
ATOM     15  S   UNL     1       1.347   8.120  21.039  0.00  0.00    +0.000 S 
ENDBRANCH   5   7
BRANCH   1  16
ATOM     16  N   UNL     1       4.929   5.541  16.237  0.00  0.00    +0.000 N 
ATOM     17  H   UNL     1       5.043   6.400  15.715  0.00  0.00    +0.000 HD
BRANCH  16  18
ATOM     18  C   UNL     1       6.060   4.599  16.093  0.00  0.00    +0.000 C 
BRANCH  18  19
ATOM     19  C   UNL     1       6.377   4.413  14.607  0.00  0.00    +0.000 A 
ATOM     20  C   UNL     1       7.434   5.128  14.021  0.00  0.00    +0.000 A 
ATOM     21  C   UNL     1       7.717   5.003  12.658  0.00  0.00    +0.000 A 
ATOM     22  C   UNL     1       6.949   4.159  11.858  0.00  0.00    +0.000 A 
ATOM     23  C   UNL     1       5.903   3.435  12.418  0.00  0.00    +0.000 A 
ATOM     24  C   UNL     1       5.621   3.557  13.782  0.00  0.00    +0.000 A 
ENDBRANCH  18  19
BRANCH  18  26
ATOM     25  N   UNL     1       7.564   6.403  16.953  0.00  0.00    +0.000 N 
ATOM     26  C   UNL     1       7.333   5.054  16.864  0.00  0.00    +0.000 C 
ATOM     27  O   UNL     1       8.163   4.267  17.318  0.00  0.00    +0.000 OA
ATOM     28  H   UNL     1       8.377   6.706  17.470  0.00  0.00    +0.000 HD
ATOM     29  H   UNL     1       6.848   7.074  16.713  0.00  0.00    +0.000 HD
ENDBRANCH  18  26
ENDBRANCH  16  18
ENDBRANCH   1  16
TORSDOF 5
ENDMDL
