MODEL 1
REMARK VINA RESULT:      -8.7      0.000      0.000
REMARK  Name = 
REMARK  7 active torsions:
REMARK  status: ('A' for Active; 'I' for Inactive)
REMARK    1  A    between atoms: C_1  and  C_2
REMARK    2  A    between atoms: C_2  and  N_3
REMARK    3  A    between atoms: C_7  and  C_8
REMARK    4  A    between atoms: C_8  and  N_9
REMARK    5  A    between atoms: N_9  and  C_10
REMARK    6  A    between atoms: C_14  and  N_15
REMARK    7  A    between atoms: C_22  and  C_23
REMARK                            x       y       z     vdW  Elec       q    Type
REMARK                         _______ _______ _______ _____ _____    ______ ____
ROOT
ATOM      1  C   UNL     1       1.906   7.081  20.069  0.00  0.00    +0.000 A 
ATOM      2  C   UNL     1       2.315   7.999  19.092  0.00  0.00    +0.000 A 
ATOM      3  C   UNL     1       2.921   7.570  17.914  0.00  0.00    +0.000 A 
ATOM      4  C   UNL     1       3.258   6.230  17.761  0.00  0.00    +0.000 A 
ATOM      5  C   UNL     1       3.129   5.366  18.857  0.00  0.00    +0.000 A 
ATOM      6  C   UNL     1       2.337   5.756  19.946  0.00  0.00    +0.000 A 
ENDROOT
BRANCH   5   7
ATOM      7  N   UNL     1       4.145   4.345  19.090  0.00  0.00    +0.000 N 
ATOM      8  C   UNL     1       5.484   4.974  19.194  0.00  0.00    +0.000 C 
ATOM      9  C   UNL     1       5.955   4.940  17.771  0.00  0.00    +0.000 A 
ATOM     10  C   UNL     1       5.327   3.859  17.150  0.00  0.00    +0.000 A 
ATOM     11  C   UNL     1       5.397   3.622  15.790  0.00  0.00    +0.000 A 
ATOM     12  C   UNL     1       6.132   4.525  15.028  0.00  0.00    +0.000 A 
ATOM     13  C   UNL     1       6.761   5.632  15.635  0.00  0.00    +0.000 A 
ATOM     14  C   UNL     1       6.688   5.858  17.025  0.00  0.00    +0.000 A 
ATOM     15  C   UNL     1       4.268   3.370  18.068  0.00  0.00    +0.000 C 
ATOM     16  O   UNL     1       3.538   2.423  17.829  0.00  0.00    +0.000 OA
BRANCH  14  17
ATOM     17  C   UNL     1       7.289   7.116  17.600  0.00  0.00    +0.000 C 
ATOM     18  F   UNL     1       7.988   6.927  18.752  0.00  0.00    +0.000 F 
ATOM     19  F   UNL     1       8.161   7.708  16.738  0.00  0.00    +0.000 F 
ATOM     20  F   UNL     1       6.350   8.060  17.886  0.00  0.00    +0.000 F 
ENDBRANCH  14  17
ENDBRANCH   5   7
BRANCH   1  21
ATOM     21  N   UNL     1       1.258   7.569  21.220  0.00  0.00    +0.000 N 
ATOM     22  H   UNL     1       1.377   6.892  21.973  0.00  0.00    +0.000 HD
BRANCH  21  23
ATOM     23  C   UNL     1       1.708   8.889  21.678  0.00  0.00    +0.000 C 
BRANCH  23  28
ATOM     24  N   UNL     1      -0.088  10.655  21.261  0.00  0.00    +0.000 N 
ATOM     25  C   UNL     1      -0.997  11.289  22.058  0.00  0.00    +0.000 A 
ATOM     26  N   UNL     1      -0.906  10.835  23.283  0.00  0.00    +0.000 NA
ATOM     27  N   UNL     1       0.096   9.893  23.304  0.00  0.00    +0.000 NA
ATOM     28  C   UNL     1       0.596   9.799  22.084  0.00  0.00    +0.000 A 
BRANCH  24  30
ATOM     29  C   UNL     1      -1.088  10.420  19.012  0.00  0.00    +0.000 C 
ATOM     30  C   UNL     1       0.090  10.898  19.848  0.00  0.00    +0.000 C 
ENDBRANCH  24  30
ENDBRANCH  23  28
ENDBRANCH  21  23
ENDBRANCH   1  21
TORSDOF 6
ENDMDL
MODEL 2
REMARK VINA RESULT:      -8.6      4.460      8.303
REMARK  Name = 
REMARK  7 active torsions:
REMARK  status: ('A' for Active; 'I' for Inactive)
REMARK    1  A    between atoms: C_1  and  C_2
REMARK    2  A    between atoms: C_2  and  N_3
REMARK    3  A    between atoms: C_7  and  C_8
REMARK    4  A    between atoms: C_8  and  N_9
REMARK    5  A    between atoms: N_9  and  C_10
REMARK    6  A    between atoms: C_14  and  N_15
REMARK    7  A    between atoms: C_22  and  C_23
REMARK                            x       y       z     vdW  Elec       q    Type
REMARK                         _______ _______ _______ _____ _____    ______ ____
ROOT
ATOM      1  C   UNL     1       6.338   4.011  17.140  0.00  0.00    +0.000 A 
ATOM      2  C   UNL     1       7.541   4.654  17.459  0.00  0.00    +0.000 A 
ATOM      3  C   UNL     1       7.668   5.397  18.629  0.00  0.00    +0.000 A 
ATOM      4  C   UNL     1       6.552   5.626  19.425  0.00  0.00    +0.000 A 
ATOM      5  C   UNL     1       5.289   5.244  18.952  0.00  0.00    +0.000 A 
ATOM      6  C   UNL     1       5.204   4.329  17.894  0.00  0.00    +0.000 A 
ENDROOT
BRANCH   5   7
ATOM      7  N   UNL     1       4.140   6.110  19.195  0.00  0.00    +0.000 N 
ATOM      8  C   UNL     1       3.394   5.641  20.389  0.00  0.00    +0.000 C 
ATOM      9  C   UNL     1       2.398   4.699  19.783  0.00  0.00    +0.000 A 
ATOM     10  C   UNL     1       2.163   5.125  18.475  0.00  0.00    +0.000 A 
ATOM     11  C   UNL     1       1.423   4.397  17.562  0.00  0.00    +0.000 A 
ATOM     12  C   UNL     1       0.906   3.179  17.996  0.00  0.00    +0.000 A 
ATOM     13  C   UNL     1       1.146   2.724  19.309  0.00  0.00    +0.000 A 
ATOM     14  C   UNL     1       1.896   3.482  20.233  0.00  0.00    +0.000 A 
ATOM     15  C   UNL     1       3.183   6.153  18.149  0.00  0.00    +0.000 C 
ATOM     16  O   UNL     1       3.250   6.738  17.082  0.00  0.00    +0.000 OA
BRANCH  14  17
ATOM     17  C   UNL     1       2.210   2.894  21.586  0.00  0.00    +0.000 C 
ATOM     18  F   UNL     1       2.334   3.814  22.581  0.00  0.00    +0.000 F 
ATOM     19  F   UNL     1       1.243   2.032  22.007  0.00  0.00    +0.000 F 
ATOM     20  F   UNL     1       3.370   2.182  21.590  0.00  0.00    +0.000 F 
ENDBRANCH  14  17
ENDBRANCH   5   7
BRANCH   1  21
ATOM     21  N   UNL     1       6.280   3.237  15.965  0.00  0.00    +0.000 N 
ATOM     22  H   UNL     1       5.848   2.340  16.186  0.00  0.00    +0.000 HD
BRANCH  21  23
ATOM     23  C   UNL     1       5.567   3.857  14.842  0.00  0.00    +0.000 C 
BRANCH  23  28
ATOM     24  N   UNL     1       6.519   3.878  12.473  0.00  0.00    +0.000 N 
ATOM     25  C   UNL     1       7.483   4.613  11.845  0.00  0.00    +0.000 A 
ATOM     26  N   UNL     1       7.970   5.505  12.672  0.00  0.00    +0.000 NA
ATOM     27  N   UNL     1       7.330   5.346  13.879  0.00  0.00    +0.000 NA
ATOM     28  C   UNL     1       6.464   4.353  13.757  0.00  0.00    +0.000 A 
BRANCH  24  30
ATOM     29  C   UNL     1       4.369   3.245  11.430  0.00  0.00    +0.000 C 
ATOM     30  C   UNL     1       5.761   2.810  11.865  0.00  0.00    +0.000 C 
ENDBRANCH  24  30
ENDBRANCH  23  28
ENDBRANCH  21  23
ENDBRANCH   1  21
TORSDOF 6
ENDMDL
MODEL 3
REMARK VINA RESULT:      -8.4      0.819      1.150
REMARK  Name = 
REMARK  7 active torsions:
REMARK  status: ('A' for Active; 'I' for Inactive)
REMARK    1  A    between atoms: C_1  and  C_2
REMARK    2  A    between atoms: C_2  and  N_3
REMARK    3  A    between atoms: C_7  and  C_8
REMARK    4  A    between atoms: C_8  and  N_9
REMARK    5  A    between atoms: N_9  and  C_10
REMARK    6  A    between atoms: C_14  and  N_15
REMARK    7  A    between atoms: C_22  and  C_23
REMARK                            x       y       z     vdW  Elec       q    Type
REMARK                         _______ _______ _______ _____ _____    ______ ____
ROOT
ATOM      1  C   UNL     1       2.144   7.330  19.978  0.00  0.00    +0.000 A 
ATOM      2  C   UNL     1       2.430   8.074  18.826  0.00  0.00    +0.000 A 
ATOM      3  C   UNL     1       2.838   7.447  17.652  0.00  0.00    +0.000 A 
ATOM      4  C   UNL     1       3.104   6.083  17.655  0.00  0.00    +0.000 A 
ATOM      5  C   UNL     1       3.114   5.395  18.876  0.00  0.00    +0.000 A 
ATOM      6  C   UNL     1       2.508   5.980  19.996  0.00  0.00    +0.000 A 
ENDROOT
BRANCH   5   7
ATOM      7  N   UNL     1       4.120   4.364  19.110  0.00  0.00    +0.000 N 
ATOM      8  C   UNL     1       5.464   4.981  19.226  0.00  0.00    +0.000 C 
ATOM      9  C   UNL     1       5.944   4.949  17.807  0.00  0.00    +0.000 A 
ATOM     10  C   UNL     1       5.311   3.877  17.176  0.00  0.00    +0.000 A 
ATOM     11  C   UNL     1       5.388   3.644  15.816  0.00  0.00    +0.000 A 
ATOM     12  C   UNL     1       6.136   4.545  15.063  0.00  0.00    +0.000 A 
ATOM     13  C   UNL     1       6.770   5.644  15.678  0.00  0.00    +0.000 A 
ATOM     14  C   UNL     1       6.689   5.864  17.069  0.00  0.00    +0.000 A 
ATOM     15  C   UNL     1       4.242   3.392  18.085  0.00  0.00    +0.000 C 
ATOM     16  O   UNL     1       3.505   2.453  17.837  0.00  0.00    +0.000 OA
BRANCH  14  17
ATOM     17  C   UNL     1       7.297   7.115  17.654  0.00  0.00    +0.000 C 
ATOM     18  F   UNL     1       8.163   7.757  16.824  0.00  0.00    +0.000 F 
ATOM     19  F   UNL     1       6.352   8.039  17.981  0.00  0.00    +0.000 F 
ATOM     20  F   UNL     1       7.991   6.871  18.800  0.00  0.00    +0.000 F 
ENDBRANCH  14  17
ENDBRANCH   5   7
BRANCH   1  21
ATOM     21  N   UNL     1       1.692   8.013  21.125  0.00  0.00    +0.000 N 
ATOM     22  H   UNL     1       2.362   8.748  21.351  0.00  0.00    +0.000 HD
BRANCH  21  23
ATOM     23  C   UNL     1       0.349   8.596  21.017  0.00  0.00    +0.000 C 
BRANCH  23  28
ATOM     24  N   UNL     1       0.030  10.872  19.907  0.00  0.00    +0.000 N 
ATOM     25  C   UNL     1       0.164  12.162  20.334  0.00  0.00    +0.000 A 
ATOM     26  N   UNL     1       0.501  12.178  21.600  0.00  0.00    +0.000 NA
ATOM     27  N   UNL     1       0.610  10.872  22.017  0.00  0.00    +0.000 NA
ATOM     28  C   UNL     1       0.339  10.088  20.987  0.00  0.00    +0.000 A 
BRANCH  24  30
ATOM     29  C   UNL     1      -1.846  10.463  18.349  0.00  0.00    +0.000 C 
ATOM     30  C   UNL     1      -0.340  10.474  18.568  0.00  0.00    +0.000 C 
ENDBRANCH  24  30
ENDBRANCH  23  28
ENDBRANCH  21  23
ENDBRANCH   1  21
TORSDOF 6
ENDMDL
MODEL 4
REMARK VINA RESULT:      -8.1      2.278      3.313
REMARK  Name = 
REMARK  7 active torsions:
REMARK  status: ('A' for Active; 'I' for Inactive)
REMARK    1  A    between atoms: C_1  and  C_2
REMARK    2  A    between atoms: C_2  and  N_3
REMARK    3  A    between atoms: C_7  and  C_8
REMARK    4  A    between atoms: C_8  and  N_9
REMARK    5  A    between atoms: N_9  and  C_10
REMARK    6  A    between atoms: C_14  and  N_15
REMARK    7  A    between atoms: C_22  and  C_23
REMARK                            x       y       z     vdW  Elec       q    Type
REMARK                         _______ _______ _______ _____ _____    ______ ____
ROOT
ATOM      1  C   UNL     1       1.326   8.932  19.734  0.00  0.00    +0.000 A 
ATOM      2  C   UNL     1       1.876   9.333  18.509  0.00  0.00    +0.000 A 
ATOM      3  C   UNL     1       2.485   8.413  17.661  0.00  0.00    +0.000 A 
ATOM      4  C   UNL     1       2.681   7.106  18.090  0.00  0.00    +0.000 A 
ATOM      5  C   UNL     1       2.410   6.780  19.426  0.00  0.00    +0.000 A 
ATOM      6  C   UNL     1       1.616   7.643  20.193  0.00  0.00    +0.000 A 
ENDROOT
BRANCH   5   7
ATOM      7  N   UNL     1       3.298   5.865  20.136  0.00  0.00    +0.000 N 
ATOM      8  C   UNL     1       4.461   5.519  19.282  0.00  0.00    +0.000 C 
ATOM      9  C   UNL     1       3.971   4.293  18.573  0.00  0.00    +0.000 A 
ATOM     10  C   UNL     1       3.033   3.677  19.404  0.00  0.00    +0.000 A 
ATOM     11  C   UNL     1       2.252   2.610  19.003  0.00  0.00    +0.000 A 
ATOM     12  C   UNL     1       2.426   2.153  17.700  0.00  0.00    +0.000 A 
ATOM     13  C   UNL     1       3.357   2.772  16.840  0.00  0.00    +0.000 A 
ATOM     14  C   UNL     1       4.153   3.856  17.264  0.00  0.00    +0.000 A 
ATOM     15  C   UNL     1       2.721   4.624  20.504  0.00  0.00    +0.000 C 
ATOM     16  O   UNL     1       1.942   4.386  21.411  0.00  0.00    +0.000 OA
BRANCH  14  17
ATOM     17  C   UNL     1       5.052   4.545  16.268  0.00  0.00    +0.000 C 
ATOM     18  F   UNL     1       4.733   5.847  16.033  0.00  0.00    +0.000 F 
ATOM     19  F   UNL     1       6.352   4.555  16.672  0.00  0.00    +0.000 F 
ATOM     20  F   UNL     1       5.045   3.935  15.050  0.00  0.00    +0.000 F 
ENDBRANCH  14  17
ENDBRANCH   5   7
BRANCH   1  21
ATOM     21  N   UNL     1       0.683   9.899  20.531  0.00  0.00    +0.000 N 
ATOM     22  H   UNL     1       1.212  10.014  21.395  0.00  0.00    +0.000 HD
BRANCH  21  23
ATOM     23  C   UNL     1       0.499  11.210  19.897  0.00  0.00    +0.000 C 
BRANCH  23  28
ATOM     24  N   UNL     1      -1.769  11.146  18.726  0.00  0.00    +0.000 N 
ATOM     25  C   UNL     1      -2.964  11.770  18.940  0.00  0.00    +0.000 A 
ATOM     26  N   UNL     1      -2.884  12.530  20.005  0.00  0.00    +0.000 NA
ATOM     27  N   UNL     1      -1.604  12.422  20.496  0.00  0.00    +0.000 NA
ATOM     28  C   UNL     1      -0.931  11.596  19.713  0.00  0.00    +0.000 A 
BRANCH  24  30
ATOM     29  C   UNL     1      -2.737   9.861  16.849  0.00  0.00    +0.000 C 
ATOM     30  C   UNL     1      -1.494  10.227  17.646  0.00  0.00    +0.000 C 
ENDBRANCH  24  30
ENDBRANCH  23  28
ENDBRANCH  21  23
ENDBRANCH   1  21
TORSDOF 6
ENDMDL
MODEL 5
REMARK VINA RESULT:      -8.0      3.625      5.049
REMARK  Name = 
REMARK  7 active torsions:
REMARK  status: ('A' for Active; 'I' for Inactive)
REMARK    1  A    between atoms: C_1  and  C_2
REMARK    2  A    between atoms: C_2  and  N_3
REMARK    3  A    between atoms: C_7  and  C_8
REMARK    4  A    between atoms: C_8  and  N_9
REMARK    5  A    between atoms: N_9  and  C_10
REMARK    6  A    between atoms: C_14  and  N_15
REMARK    7  A    between atoms: C_22  and  C_23
REMARK                            x       y       z     vdW  Elec       q    Type
REMARK                         _______ _______ _______ _____ _____    ______ ____
ROOT
ATOM      1  C   UNL     1       1.259   9.366  19.283  0.00  0.00    +0.000 A 
ATOM      2  C   UNL     1       0.889   8.723  20.472  0.00  0.00    +0.000 A 
ATOM      3  C   UNL     1       1.489   7.526  20.855  0.00  0.00    +0.000 A 
ATOM      4  C   UNL     1       2.362   6.883  19.986  0.00  0.00    +0.000 A 
ATOM      5  C   UNL     1       2.496   7.365  18.676  0.00  0.00    +0.000 A 
ATOM      6  C   UNL     1       2.060   8.663  18.378  0.00  0.00    +0.000 A 
ENDROOT
BRANCH   5   7
ATOM      7  N   UNL     1       2.617   6.420  17.571  0.00  0.00    +0.000 N 
ATOM      8  C   UNL     1       1.726   5.256  17.798  0.00  0.00    +0.000 C 
ATOM      9  C   UNL     1       2.627   4.314  18.538  0.00  0.00    +0.000 A 
ATOM     10  C   UNL     1       3.938   4.598  18.148  0.00  0.00    +0.000 A 
ATOM     11  C   UNL     1       5.046   4.036  18.752  0.00  0.00    +0.000 A 
ATOM     12  C   UNL     1       4.814   3.152  19.803  0.00  0.00    +0.000 A 
ATOM     13  C   UNL     1       3.498   2.865  20.222  0.00  0.00    +0.000 A 
ATOM     14  C   UNL     1       2.376   3.440  19.591  0.00  0.00    +0.000 A 
ATOM     15  C   UNL     1       3.911   5.870  17.384  0.00  0.00    +0.000 C 
ATOM     16  O   UNL     1       4.895   6.393  16.890  0.00  0.00    +0.000 OA
BRANCH  14  17
ATOM     17  C   UNL     1       1.000   3.179  20.153  0.00  0.00    +0.000 C 
ATOM     18  F   UNL     1       0.169   2.508  19.309  0.00  0.00    +0.000 F 
ATOM     19  F   UNL     1       1.045   2.432  21.290  0.00  0.00    +0.000 F 
ATOM     20  F   UNL     1       0.346   4.325  20.486  0.00  0.00    +0.000 F 
ENDBRANCH  14  17
ENDBRANCH   5   7
BRANCH   1  21
ATOM     21  N   UNL     1       0.651  10.597  18.968  0.00  0.00    +0.000 N 
ATOM     22  H   UNL     1       0.717  10.746  17.962  0.00  0.00    +0.000 HD
BRANCH  21  23
ATOM     23  C   UNL     1      -0.750  10.727  19.387  0.00  0.00    +0.000 C 
BRANCH  23  28
ATOM     24  N   UNL     1      -2.956  11.187  18.187  0.00  0.00    +0.000 N 
ATOM     25  C   UNL     1      -3.505  10.756  17.014  0.00  0.00    +0.000 A 
ATOM     26  N   UNL     1      -2.665   9.961  16.397  0.00  0.00    +0.000 NA
ATOM     27  N   UNL     1      -1.544   9.849  17.185  0.00  0.00    +0.000 NA
ATOM     28  C   UNL     1      -1.730  10.580  18.271  0.00  0.00    +0.000 A 
BRANCH  24  30
ATOM     29  C   UNL     1      -5.104  12.153  18.938  0.00  0.00    +0.000 C 
ATOM     30  C   UNL     1      -3.595  12.082  19.124  0.00  0.00    +0.000 C 
ENDBRANCH  24  30
ENDBRANCH  23  28
ENDBRANCH  21  23
ENDBRANCH   1  21
TORSDOF 6
ENDMDL
MODEL 6
REMARK VINA RESULT:      -8.0      1.006      1.179
REMARK  Name = 
REMARK  7 active torsions:
REMARK  status: ('A' for Active; 'I' for Inactive)
REMARK    1  A    between atoms: C_1  and  C_2
REMARK    2  A    between atoms: C_2  and  N_3
REMARK    3  A    between atoms: C_7  and  C_8
REMARK    4  A    between atoms: C_8  and  N_9
REMARK    5  A    between atoms: N_9  and  C_10
REMARK    6  A    between atoms: C_14  and  N_15
REMARK    7  A    between atoms: C_22  and  C_23
REMARK                            x       y       z     vdW  Elec       q    Type
REMARK                         _______ _______ _______ _____ _____    ______ ____
ROOT
ATOM      1  C   UNL     1       2.075   7.205  20.126  0.00  0.00    +0.000 A 
ATOM      2  C   UNL     1       2.594   7.935  19.049  0.00  0.00    +0.000 A 
ATOM      3  C   UNL     1       2.810   7.332  17.812  0.00  0.00    +0.000 A 
ATOM      4  C   UNL     1       2.647   5.959  17.678  0.00  0.00    +0.000 A 
ATOM      5  C   UNL     1       2.426   5.184  18.825  0.00  0.00    +0.000 A 
ATOM      6  C   UNL     1       2.009   5.814  20.006  0.00  0.00    +0.000 A 
ENDROOT
BRANCH   5   7
ATOM      7  N   UNL     1       3.065   3.877  18.943  0.00  0.00    +0.000 N 
ATOM      8  C   UNL     1       4.471   4.037  19.390  0.00  0.00    +0.000 C 
ATOM      9  C   UNL     1       5.202   4.136  18.085  0.00  0.00    +0.000 A 
ATOM     10  C   UNL     1       4.454   3.440  17.133  0.00  0.00    +0.000 A 
ATOM     11  C   UNL     1       4.741   3.459  15.782  0.00  0.00    +0.000 A 
ATOM     12  C   UNL     1       5.831   4.226  15.378  0.00  0.00    +0.000 A 
ATOM     13  C   UNL     1       6.589   4.950  16.321  0.00  0.00    +0.000 A 
ATOM     14  C   UNL     1       6.289   4.914  17.699  0.00  0.00    +0.000 A 
ATOM     15  C   UNL     1       3.136   3.128  17.742  0.00  0.00    +0.000 C 
ATOM     16  O   UNL     1       2.249   2.513  17.175  0.00  0.00    +0.000 OA
BRANCH  14  17
ATOM     17  C   UNL     1       7.068   5.794  18.646  0.00  0.00    +0.000 C 
ATOM     18  F   UNL     1       6.481   5.966  19.861  0.00  0.00    +0.000 F 
ATOM     19  F   UNL     1       8.307   5.294  18.907  0.00  0.00    +0.000 F 
ATOM     20  F   UNL     1       7.269   7.046  18.149  0.00  0.00    +0.000 F 
ENDBRANCH  14  17
ENDBRANCH   5   7
BRANCH   1  21
ATOM     21  N   UNL     1       1.835   7.878  21.340  0.00  0.00    +0.000 N 
ATOM     22  H   UNL     1       2.291   8.789  21.304  0.00  0.00    +0.000 HD
BRANCH  21  23
ATOM     23  C   UNL     1       0.420   8.056  21.687  0.00  0.00    +0.000 C 
BRANCH  23  28
ATOM     24  N   UNL     1      -0.376  10.380  20.993  0.00  0.00    +0.000 N 
ATOM     25  C   UNL     1      -0.609  11.543  21.669  0.00  0.00    +0.000 A 
ATOM     26  N   UNL     1      -0.390  11.365  22.948  0.00  0.00    +0.000 NA
ATOM     27  N   UNL     1       0.013  10.062  23.123  0.00  0.00    +0.000 NA
ATOM     28  C   UNL     1       0.033   9.476  21.938  0.00  0.00    +0.000 A 
BRANCH  24  30
ATOM     29  C   UNL     1      -0.764  11.515  18.831  0.00  0.00    +0.000 C 
ATOM     30  C   UNL     1      -0.523  10.205  19.567  0.00  0.00    +0.000 C 
ENDBRANCH  24  30
ENDBRANCH  23  28
ENDBRANCH  21  23
ENDBRANCH   1  21
TORSDOF 6
ENDMDL
MODEL 7
REMARK VINA RESULT:      -8.0      3.624      4.905
REMARK  Name = 
REMARK  7 active torsions:
REMARK  status: ('A' for Active; 'I' for Inactive)
REMARK    1  A    between atoms: C_1  and  C_2
REMARK    2  A    between atoms: C_2  and  N_3
REMARK    3  A    between atoms: C_7  and  C_8
REMARK    4  A    between atoms: C_8  and  N_9
REMARK    5  A    between atoms: N_9  and  C_10
REMARK    6  A    between atoms: C_14  and  N_15
REMARK    7  A    between atoms: C_22  and  C_23
REMARK                            x       y       z     vdW  Elec       q    Type
REMARK                         _______ _______ _______ _____ _____    ______ ____
ROOT
ATOM      1  C   UNL     1       1.098   9.320  19.685  0.00  0.00    +0.000 A 
ATOM      2  C   UNL     1       0.782   8.564  20.821  0.00  0.00    +0.000 A 
ATOM      3  C   UNL     1       1.440   7.367  21.092  0.00  0.00    +0.000 A 
ATOM      4  C   UNL     1       2.320   6.838  20.156  0.00  0.00    +0.000 A 
ATOM      5  C   UNL     1       2.406   7.433  18.890  0.00  0.00    +0.000 A 
ATOM      6  C   UNL     1       1.909   8.731  18.709  0.00  0.00    +0.000 A 
ENDROOT
BRANCH   5   7
ATOM      7  N   UNL     1       2.543   6.589  17.707  0.00  0.00    +0.000 N 
ATOM      8  C   UNL     1       1.689   5.383  17.841  0.00  0.00    +0.000 C 
ATOM      9  C   UNL     1       2.626   4.410  18.490  0.00  0.00    +0.000 A 
ATOM     10  C   UNL     1       3.923   4.765  18.116  0.00  0.00    +0.000 A 
ATOM     11  C   UNL     1       5.054   4.188  18.661  0.00  0.00    +0.000 A 
ATOM     12  C   UNL     1       4.859   3.212  19.634  0.00  0.00    +0.000 A 
ATOM     13  C   UNL     1       3.558   2.850  20.038  0.00  0.00    +0.000 A 
ATOM     14  C   UNL     1       2.412   3.442  19.467  0.00  0.00    +0.000 A 
ATOM     15  C   UNL     1       3.851   6.097  17.463  0.00  0.00    +0.000 C 
ATOM     16  O   UNL     1       4.813   6.690  17.008  0.00  0.00    +0.000 OA
BRANCH  14  17
ATOM     17  C   UNL     1       1.050   3.092  20.016  0.00  0.00    +0.000 C 
ATOM     18  F   UNL     1       0.306   4.167  20.393  0.00  0.00    +0.000 F 
ATOM     19  F   UNL     1       0.289   2.422  19.107  0.00  0.00    +0.000 F 
ATOM     20  F   UNL     1       1.121   2.285  21.110  0.00  0.00    +0.000 F 
ENDBRANCH  14  17
ENDBRANCH   5   7
BRANCH   1  21
ATOM     21  N   UNL     1       0.431  10.544  19.485  0.00  0.00    +0.000 N 
ATOM     22  H   UNL     1       1.118  11.298  19.512  0.00  0.00    +0.000 HD
BRANCH  21  23
ATOM     23  C   UNL     1      -0.345  10.638  18.243  0.00  0.00    +0.000 C 
BRANCH  23  28
ATOM     24  N   UNL     1      -2.830  10.767  17.676  0.00  0.00    +0.000 N 
ATOM     25  C   UNL     1      -3.890  11.441  18.210  0.00  0.00    +0.000 A 
ATOM     26  N   UNL     1      -3.498  12.131  19.252  0.00  0.00    +0.000 NA
ATOM     27  N   UNL     1      -2.147  11.925  19.402  0.00  0.00    +0.000 NA
ATOM     28  C   UNL     1      -1.746  11.112  18.440  0.00  0.00    +0.000 A 
BRANCH  24  30
ATOM     29  C   UNL     1      -3.061  10.663  15.217  0.00  0.00    +0.000 C 
ATOM     30  C   UNL     1      -2.893   9.900  16.523  0.00  0.00    +0.000 C 
ENDBRANCH  24  30
ENDBRANCH  23  28
ENDBRANCH  21  23
ENDBRANCH   1  21
TORSDOF 6
ENDMDL
MODEL 8
REMARK VINA RESULT:      -8.0      2.271      3.355
REMARK  Name = 
REMARK  7 active torsions:
REMARK  status: ('A' for Active; 'I' for Inactive)
REMARK    1  A    between atoms: C_1  and  C_2
REMARK    2  A    between atoms: C_2  and  N_3
REMARK    3  A    between atoms: C_7  and  C_8
REMARK    4  A    between atoms: C_8  and  N_9
REMARK    5  A    between atoms: N_9  and  C_10
REMARK    6  A    between atoms: C_14  and  N_15
REMARK    7  A    between atoms: C_22  and  C_23
REMARK                            x       y       z     vdW  Elec       q    Type
REMARK                         _______ _______ _______ _____ _____    ______ ____
ROOT
ATOM      1  C   UNL     1       1.413   8.792  19.974  0.00  0.00    +0.000 A 
ATOM      2  C   UNL     1       1.867   9.181  18.707  0.00  0.00    +0.000 A 
ATOM      3  C   UNL     1       2.386   8.247  17.814  0.00  0.00    +0.000 A 
ATOM      4  C   UNL     1       2.593   6.937  18.229  0.00  0.00    +0.000 A 
ATOM      5  C   UNL     1       2.427   6.619  19.584  0.00  0.00    +0.000 A 
ATOM      6  C   UNL     1       1.715   7.498  20.411  0.00  0.00    +0.000 A 
ENDROOT
BRANCH   5   7
ATOM      7  N   UNL     1       3.353   5.688  20.221  0.00  0.00    +0.000 N 
ATOM      8  C   UNL     1       4.486   5.395  19.310  0.00  0.00    +0.000 C 
ATOM      9  C   UNL     1       3.986   4.192  18.569  0.00  0.00    +0.000 A 
ATOM     10  C   UNL     1       3.088   3.529  19.407  0.00  0.00    +0.000 A 
ATOM     11  C   UNL     1       2.306   2.468  18.992  0.00  0.00    +0.000 A 
ATOM     12  C   UNL     1       2.436   2.068  17.665  0.00  0.00    +0.000 A 
ATOM     13  C   UNL     1       3.325   2.736  16.797  0.00  0.00    +0.000 A 
ATOM     14  C   UNL     1       4.123   3.812  17.237  0.00  0.00    +0.000 A 
ATOM     15  C   UNL     1       2.805   4.424  20.557  0.00  0.00    +0.000 C 
ATOM     16  O   UNL     1       2.065   4.138  21.482  0.00  0.00    +0.000 OA
BRANCH  14  17
ATOM     17  C   UNL     1       4.975   4.555  16.237  0.00  0.00    +0.000 C 
ATOM     18  F   UNL     1       4.876   4.090  14.963  0.00  0.00    +0.000 F 
ATOM     19  F   UNL     1       4.650   5.876  16.169  0.00  0.00    +0.000 F 
ATOM     20  F   UNL     1       6.300   4.514  16.547  0.00  0.00    +0.000 F 
ENDBRANCH  14  17
ENDBRANCH   5   7
BRANCH   1  21
ATOM     21  N   UNL     1       0.856   9.772  20.819  0.00  0.00    +0.000 N 
ATOM     22  H   UNL     1       1.411  10.624  20.740  0.00  0.00    +0.000 HD
BRANCH  21  23
ATOM     23  C   UNL     1      -0.555  10.086  20.566  0.00  0.00    +0.000 C 
BRANCH  23  28
ATOM     24  N   UNL     1      -1.208  11.243  18.387  0.00  0.00    +0.000 N 
ATOM     25  C   UNL     1      -1.229  12.544  17.973  0.00  0.00    +0.000 A 
ATOM     26  N   UNL     1      -0.852  13.327  18.953  0.00  0.00    +0.000 NA
ATOM     27  N   UNL     1      -0.558  12.529  20.034  0.00  0.00    +0.000 NA
ATOM     28  C   UNL     1      -0.762  11.270  19.682  0.00  0.00    +0.000 A 
BRANCH  24  30
ATOM     29  C   UNL     1      -3.066   9.829  17.574  0.00  0.00    +0.000 C 
ATOM     30  C   UNL     1      -1.570  10.107  17.571  0.00  0.00    +0.000 C 
ENDBRANCH  24  30
ENDBRANCH  23  28
ENDBRANCH  21  23
ENDBRANCH   1  21
TORSDOF 6
ENDMDL
MODEL 9
REMARK VINA RESULT:      -7.9      0.935      1.627
REMARK  Name = 
REMARK  7 active torsions:
REMARK  status: ('A' for Active; 'I' for Inactive)
REMARK    1  A    between atoms: C_1  and  C_2
REMARK    2  A    between atoms: C_2  and  N_3
REMARK    3  A    between atoms: C_7  and  C_8
REMARK    4  A    between atoms: C_8  and  N_9
REMARK    5  A    between atoms: N_9  and  C_10
REMARK    6  A    between atoms: C_14  and  N_15
REMARK    7  A    between atoms: C_22  and  C_23
REMARK                            x       y       z     vdW  Elec       q    Type
REMARK                         _______ _______ _______ _____ _____    ______ ____
ROOT
ATOM      1  C   UNL     1       1.992   7.659  20.057  0.00  0.00    +0.000 A 
ATOM      2  C   UNL     1       2.357   8.364  18.903  0.00  0.00    +0.000 A 
ATOM      3  C   UNL     1       2.786   7.695  17.760  0.00  0.00    +0.000 A 
ATOM      4  C   UNL     1       2.995   6.321  17.803  0.00  0.00    +0.000 A 
ATOM      5  C   UNL     1       2.925   5.661  19.037  0.00  0.00    +0.000 A 
ATOM      6  C   UNL     1       2.298   6.296  20.118  0.00  0.00    +0.000 A 
ENDROOT
BRANCH   5   7
ATOM      7  N   UNL     1       3.876   4.595  19.336  0.00  0.00    +0.000 N 
ATOM      8  C   UNL     1       5.254   5.142  19.383  0.00  0.00    +0.000 C 
ATOM      9  C   UNL     1       5.704   4.973  17.963  0.00  0.00    +0.000 A 
ATOM     10  C   UNL     1       4.999   3.894  17.427  0.00  0.00    +0.000 A 
ATOM     11  C   UNL     1       5.037   3.554  16.089  0.00  0.00    +0.000 A 
ATOM     12  C   UNL     1       5.819   4.350  15.257  0.00  0.00    +0.000 A 
ATOM     13  C   UNL     1       6.526   5.455  15.775  0.00  0.00    +0.000 A 
ATOM     14  C   UNL     1       6.484   5.785  17.146  0.00  0.00    +0.000 A 
ATOM     15  C   UNL     1       3.923   3.542  18.387  0.00  0.00    +0.000 C 
ATOM     16  O   UNL     1       3.131   2.630  18.224  0.00  0.00    +0.000 OA
BRANCH  14  17
ATOM     17  C   UNL     1       7.173   7.040  17.623  0.00  0.00    +0.000 C 
ATOM     18  F   UNL     1       7.862   6.893  18.786  0.00  0.00    +0.000 F 
ATOM     19  F   UNL     1       8.080   7.502  16.718  0.00  0.00    +0.000 F 
ATOM     20  F   UNL     1       6.302   8.065  17.833  0.00  0.00    +0.000 F 
ENDBRANCH  14  17
ENDBRANCH   5   7
BRANCH   1  21
ATOM     21  N   UNL     1       1.522   8.386  21.168  0.00  0.00    +0.000 N 
ATOM     22  H   UNL     1       1.972   9.301  21.174  0.00  0.00    +0.000 HD
BRANCH  21  23
ATOM     23  C   UNL     1       0.066   8.560  21.232  0.00  0.00    +0.000 C 
BRANCH  23  28
ATOM     24  N   UNL     1      -0.771  10.968  21.366  0.00  0.00    +0.000 N 
ATOM     25  C   UNL     1      -1.153  11.892  20.436  0.00  0.00    +0.000 A 
ATOM     26  N   UNL     1      -1.011  11.395  19.232  0.00  0.00    +0.000 NA
ATOM     27  N   UNL     1      -0.543  10.109  19.366  0.00  0.00    +0.000 NA
ATOM     28  C   UNL     1      -0.413   9.851  20.657  0.00  0.00    +0.000 A 
BRANCH  24  30
ATOM     29  C   UNL     1      -2.124  11.693  23.304  0.00  0.00    +0.000 C 
ATOM     30  C   UNL     1      -0.787  11.173  22.796  0.00  0.00    +0.000 C 
ENDBRANCH  24  30
ENDBRANCH  23  28
ENDBRANCH  21  23
ENDBRANCH   1  21
TORSDOF 6
ENDMDL
