MODEL 1
REMARK VINA RESULT:      -9.7      0.000      0.000
REMARK  Name = 
REMARK  4 active torsions:
REMARK  status: ('A' for Active; 'I' for Inactive)
REMARK    1  A    between atoms: C_1  and  C_2
REMARK    2  A    between atoms: C_4  and  C_5
REMARK    3  A    between atoms: C_13  and  C_14
REMARK    4  A    between atoms: C_23  and  N_24
REMARK                            x       y       z     vdW  Elec       q    Type
REMARK                         _______ _______ _______ _____ _____    ______ ____
ROOT
ATOM      1  C   UNL     1       2.442   5.268  20.160  0.00  0.00    +0.000 C 
ATOM      2  O   UNL     1       1.727   4.769  21.034  0.00  0.00    +0.000 OA
ATOM      3  N   UNL     1       3.485   4.518  19.568  0.00  0.00    +0.000 N 
ATOM      4  C   UNL     1       3.685   3.181  20.145  0.00  0.00    +0.000 C 
ATOM      5  C   UNL     1       4.283   2.100  19.245  0.00  0.00    +0.000 C 
ATOM      6  N   UNL     1       4.176   2.347  17.835  0.00  0.00    +0.000 N 
ATOM      7  C   UNL     1       4.095   3.589  17.285  0.00  0.00    +0.000 C 
ATOM      8  O   UNL     1       4.108   3.689  16.057  0.00  0.00    +0.000 OA
ATOM      9  C   UNL     1       4.092   4.807  18.237  0.00  0.00    +0.000 C 
ATOM     10  H   UNL     1       4.267   1.592  17.165  0.00  0.00    +0.000 HD
ENDROOT
BRANCH   1  14
ATOM     11  C   UNL     1       0.687   9.766  21.518  0.00  0.00    +0.000 C 
ATOM     12  C   UNL     1       1.241   8.871  20.446  0.00  0.00    +0.000 A 
ATOM     13  C   UNL     1       1.568   7.533  20.746  0.00  0.00    +0.000 A 
ATOM     14  C   UNL     1       2.124   6.684  19.779  0.00  0.00    +0.000 A 
ATOM     15  C   UNL     1       2.413   7.223  18.530  0.00  0.00    +0.000 A 
ATOM     16  C   UNL     1       1.989   8.502  18.173  0.00  0.00    +0.000 A 
ATOM     17  C   UNL     1       1.432   9.332  19.132  0.00  0.00    +0.000 A 
BRANCH  17  18
ATOM     18  N   UNL     1       1.071  10.634  18.774  0.00  0.00    +0.000 N 
ATOM     19  C   UNL     1       1.835  11.803  19.133  0.00  0.00    +0.000 C 
ATOM     20  C   UNL     1       1.113  12.889  18.349  0.00  0.00    +0.000 C 
ATOM     21  N   UNL     1      -0.237  12.395  18.292  0.00  0.00    +0.000 N 
ATOM     22  C   UNL     1      -0.238  11.007  18.428  0.00  0.00    +0.000 C 
ATOM     23  O   UNL     1      -1.222  10.307  18.269  0.00  0.00    +0.000 OA
ATOM     24  H   UNL     1      -1.032  12.842  17.857  0.00  0.00    +0.000 HD
ENDBRANCH  17  18
ENDBRANCH   1  14
BRANCH   9  25
ATOM     25  C   UNL     1       5.457   5.504  18.261  0.00  0.00    +0.000 A 
ATOM     26  C   UNL     1       6.452   5.291  19.230  0.00  0.00    +0.000 A 
ATOM     27  C   UNL     1       7.632   6.056  19.220  0.00  0.00    +0.000 A 
ATOM     28  C   UNL     1       7.843   7.032  18.247  0.00  0.00    +0.000 A 
ATOM     29  C   UNL     1       6.870   7.257  17.279  0.00  0.00    +0.000 A 
ATOM     30  C   UNL     1       5.698   6.506  17.301  0.00  0.00    +0.000 A 
ATOM     31  F   UNL     1       4.740   6.827  16.422  0.00  0.00    +0.000 F 
ENDBRANCH   9  25
TORSDOF 3
ENDMDL
MODEL 2
REMARK VINA RESULT:      -9.3      0.919      1.081
REMARK  Name = 
REMARK  4 active torsions:
REMARK  status: ('A' for Active; 'I' for Inactive)
REMARK    1  A    between atoms: C_1  and  C_2
REMARK    2  A    between atoms: C_4  and  C_5
REMARK    3  A    between atoms: C_13  and  C_14
REMARK    4  A    between atoms: C_23  and  N_24
REMARK                            x       y       z     vdW  Elec       q    Type
REMARK                         _______ _______ _______ _____ _____    ______ ____
ROOT
ATOM      1  C   UNL     1       2.478   5.259  20.140  0.00  0.00    +0.000 C 
ATOM      2  O   UNL     1       1.789   4.729  21.018  0.00  0.00    +0.000 OA
ATOM      3  N   UNL     1       3.526   4.541  19.517  0.00  0.00    +0.000 N 
ATOM      4  C   UNL     1       3.764   3.200  20.068  0.00  0.00    +0.000 C 
ATOM      5  C   UNL     1       4.370   2.147  19.139  0.00  0.00    +0.000 C 
ATOM      6  N   UNL     1       4.232   2.415  17.735  0.00  0.00    +0.000 N 
ATOM      7  C   UNL     1       4.115   3.664  17.208  0.00  0.00    +0.000 C 
ATOM      8  O   UNL     1       4.103   3.784  15.982  0.00  0.00    +0.000 OA
ATOM      9  C   UNL     1       4.102   4.866  18.180  0.00  0.00    +0.000 C 
ATOM     10  H   UNL     1       4.327   1.674  17.052  0.00  0.00    +0.000 HD
ENDROOT
BRANCH   1  14
ATOM     11  C   UNL     1       0.856   9.758  21.653  0.00  0.00    +0.000 C 
ATOM     12  C   UNL     1       1.305   8.861  20.534  0.00  0.00    +0.000 A 
ATOM     13  C   UNL     1       1.661   7.524  20.803  0.00  0.00    +0.000 A 
ATOM     14  C   UNL     1       2.122   6.673  19.788  0.00  0.00    +0.000 A 
ATOM     15  C   UNL     1       2.288   7.210  18.516  0.00  0.00    +0.000 A 
ATOM     16  C   UNL     1       1.830   8.487  18.199  0.00  0.00    +0.000 A 
ATOM     17  C   UNL     1       1.367   9.320  19.207  0.00  0.00    +0.000 A 
BRANCH  17  18
ATOM     18  N   UNL     1       0.971  10.620  18.882  0.00  0.00    +0.000 N 
ATOM     19  C   UNL     1      -0.406  11.020  18.723  0.00  0.00    +0.000 C 
ATOM     20  C   UNL     1      -0.267  12.527  18.568  0.00  0.00    +0.000 C 
ATOM     21  N   UNL     1       1.027  12.665  17.956  0.00  0.00    +0.000 N 
ATOM     22  C   UNL     1       1.814  11.554  18.259  0.00  0.00    +0.000 C 
ATOM     23  O   UNL     1       3.002  11.468  18.000  0.00  0.00    +0.000 OA
ATOM     24  H   UNL     1       1.483  13.524  17.681  0.00  0.00    +0.000 HD
ENDBRANCH  17  18
ENDBRANCH   1  14
BRANCH   9  25
ATOM     25  C   UNL     1       5.452   5.592  18.192  0.00  0.00    +0.000 A 
ATOM     26  C   UNL     1       6.478   5.367  19.125  0.00  0.00    +0.000 A 
ATOM     27  C   UNL     1       7.641   6.158  19.111  0.00  0.00    +0.000 A 
ATOM     28  C   UNL     1       7.803   7.173  18.169  0.00  0.00    +0.000 A 
ATOM     29  C   UNL     1       6.799   7.410  17.237  0.00  0.00    +0.000 A 
ATOM     30  C   UNL     1       5.644   6.633  17.264  0.00  0.00    +0.000 A 
ATOM     31  F   UNL     1       4.655   6.964  16.424  0.00  0.00    +0.000 F 
ENDBRANCH   9  25
TORSDOF 3
ENDMDL
MODEL 3
REMARK VINA RESULT:      -8.8      0.692      1.380
REMARK  Name = 
REMARK  4 active torsions:
REMARK  status: ('A' for Active; 'I' for Inactive)
REMARK    1  A    between atoms: C_1  and  C_2
REMARK    2  A    between atoms: C_4  and  C_5
REMARK    3  A    between atoms: C_13  and  C_14
REMARK    4  A    between atoms: C_23  and  N_24
REMARK                            x       y       z     vdW  Elec       q    Type
REMARK                         _______ _______ _______ _____ _____    ______ ____
ROOT
ATOM      1  C   UNL     1       2.478   4.798  20.555  0.00  0.00    +0.000 C 
ATOM      2  O   UNL     1       1.889   4.215  21.471  0.00  0.00    +0.000 OA
ATOM      3  N   UNL     1       3.478   4.135  19.806  0.00  0.00    +0.000 N 
ATOM      4  C   UNL     1       3.799   2.779  20.273  0.00  0.00    +0.000 C 
ATOM      5  C   UNL     1       4.337   1.782  19.246  0.00  0.00    +0.000 C 
ATOM      6  N   UNL     1       4.059   2.103  17.875  0.00  0.00    +0.000 N 
ATOM      7  C   UNL     1       3.864   3.369  17.415  0.00  0.00    +0.000 C 
ATOM      8  O   UNL     1       3.732   3.539  16.203  0.00  0.00    +0.000 OA
ATOM      9  C   UNL     1       3.917   4.529  18.436  0.00  0.00    +0.000 C 
ATOM     10  H   UNL     1       4.106   1.393  17.154  0.00  0.00    +0.000 HD
ENDROOT
BRANCH   1  14
ATOM     11  C   UNL     1       2.521   8.784  17.510  0.00  0.00    +0.000 C 
ATOM     12  C   UNL     1       2.108   8.166  18.816  0.00  0.00    +0.000 A 
ATOM     13  C   UNL     1       2.464   6.834  19.109  0.00  0.00    +0.000 A 
ATOM     14  C   UNL     1       2.059   6.216  20.301  0.00  0.00    +0.000 A 
ATOM     15  C   UNL     1       1.232   6.934  21.156  0.00  0.00    +0.000 A 
ATOM     16  C   UNL     1       0.968   8.286  20.949  0.00  0.00    +0.000 A 
ATOM     17  C   UNL     1       1.378   8.893  19.772  0.00  0.00    +0.000 A 
BRANCH  17  18
ATOM     18  N   UNL     1       1.051  10.234  19.551  0.00  0.00    +0.000 N 
ATOM     19  C   UNL     1       1.438  11.307  20.433  0.00  0.00    +0.000 C 
ATOM     20  C   UNL     1       0.996  12.527  19.638  0.00  0.00    +0.000 C 
ATOM     21  N   UNL     1      -0.127  12.029  18.890  0.00  0.00    +0.000 N 
ATOM     22  C   UNL     1      -0.017  10.646  18.738  0.00  0.00    +0.000 C 
ATOM     23  O   UNL     1      -0.744   9.979  18.024  0.00  0.00    +0.000 OA
ATOM     24  H   UNL     1      -0.706  12.545  18.243  0.00  0.00    +0.000 HD
ENDBRANCH  17  18
ENDBRANCH   1  14
BRANCH   9  25
ATOM     25  C   UNL     1       5.244   5.290  18.352  0.00  0.00    +0.000 A 
ATOM     26  C   UNL     1       6.293   5.183  19.280  0.00  0.00    +0.000 A 
ATOM     27  C   UNL     1       7.432   6.001  19.168  0.00  0.00    +0.000 A 
ATOM     28  C   UNL     1       7.548   6.926  18.131  0.00  0.00    +0.000 A 
ATOM     29  C   UNL     1       6.520   7.046  17.202  0.00  0.00    +0.000 A 
ATOM     30  C   UNL     1       5.390   6.243  17.325  0.00  0.00    +0.000 A 
ATOM     31  F   UNL     1       4.376   6.466  16.478  0.00  0.00    +0.000 F 
ENDBRANCH   9  25
TORSDOF 3
ENDMDL
MODEL 4
REMARK VINA RESULT:      -8.6      1.123      1.253
REMARK  Name = 
REMARK  4 active torsions:
REMARK  status: ('A' for Active; 'I' for Inactive)
REMARK    1  A    between atoms: C_1  and  C_2
REMARK    2  A    between atoms: C_4  and  C_5
REMARK    3  A    between atoms: C_13  and  C_14
REMARK    4  A    between atoms: C_23  and  N_24
REMARK                            x       y       z     vdW  Elec       q    Type
REMARK                         _______ _______ _______ _____ _____    ______ ____
ROOT
ATOM      1  C   UNL     1       2.492   4.869  20.551  0.00  0.00    +0.000 C 
ATOM      2  O   UNL     1       1.920   4.288  21.478  0.00  0.00    +0.000 OA
ATOM      3  N   UNL     1       3.487   4.209  19.792  0.00  0.00    +0.000 N 
ATOM      4  C   UNL     1       3.823   2.858  20.263  0.00  0.00    +0.000 C 
ATOM      5  C   UNL     1       4.354   1.857  19.235  0.00  0.00    +0.000 C 
ATOM      6  N   UNL     1       4.055   2.169  17.866  0.00  0.00    +0.000 N 
ATOM      7  C   UNL     1       3.844   3.430  17.401  0.00  0.00    +0.000 C 
ATOM      8  O   UNL     1       3.694   3.592  16.189  0.00  0.00    +0.000 OA
ATOM      9  C   UNL     1       3.903   4.597  18.414  0.00  0.00    +0.000 C 
ATOM     10  H   UNL     1       4.096   1.454  17.148  0.00  0.00    +0.000 HD
ENDROOT
BRANCH   1  14
ATOM     11  C   UNL     1      -0.230   8.831  21.982  0.00  0.00    +0.000 C 
ATOM     12  C   UNL     1       0.705   8.205  20.988  0.00  0.00    +0.000 A 
ATOM     13  C   UNL     1       1.154   6.882  21.180  0.00  0.00    +0.000 A 
ATOM     14  C   UNL     1       2.060   6.282  20.293  0.00  0.00    +0.000 A 
ATOM     15  C   UNL     1       2.560   7.058  19.252  0.00  0.00    +0.000 A 
ATOM     16  C   UNL     1       2.041   8.320  18.971  0.00  0.00    +0.000 A 
ATOM     17  C   UNL     1       1.141   8.903  19.848  0.00  0.00    +0.000 A 
BRANCH  17  18
ATOM     18  N   UNL     1       0.679  10.196  19.585  0.00  0.00    +0.000 N 
ATOM     19  C   UNL     1       0.068  10.588  18.339  0.00  0.00    +0.000 C 
ATOM     20  C   UNL     1      -0.399  12.000  18.661  0.00  0.00    +0.000 C 
ATOM     21  N   UNL     1       0.566  12.439  19.633  0.00  0.00    +0.000 N 
ATOM     22  C   UNL     1       1.125  11.334  20.276  0.00  0.00    +0.000 C 
ATOM     23  O   UNL     1       1.858  11.408  21.246  0.00  0.00    +0.000 OA
ATOM     24  H   UNL     1       0.604  13.339  20.091  0.00  0.00    +0.000 HD
ENDBRANCH  17  18
ENDBRANCH   1  14
BRANCH   9  25
ATOM     25  C   UNL     1       5.224   5.366  18.306  0.00  0.00    +0.000 A 
ATOM     26  C   UNL     1       6.316   5.217  19.178  0.00  0.00    +0.000 A 
ATOM     27  C   UNL     1       7.446   6.044  19.054  0.00  0.00    +0.000 A 
ATOM     28  C   UNL     1       7.512   7.020  18.062  0.00  0.00    +0.000 A 
ATOM     29  C   UNL     1       6.442   7.184  17.188  0.00  0.00    +0.000 A 
ATOM     30  C   UNL     1       5.320   6.371  17.324  0.00  0.00    +0.000 A 
ATOM     31  F   UNL     1       4.268   6.632  16.537  0.00  0.00    +0.000 F 
ENDBRANCH   9  25
TORSDOF 3
ENDMDL
MODEL 5
REMARK VINA RESULT:      -8.6      2.554      4.309
REMARK  Name = 
REMARK  4 active torsions:
REMARK  status: ('A' for Active; 'I' for Inactive)
REMARK    1  A    between atoms: C_1  and  C_2
REMARK    2  A    between atoms: C_4  and  C_5
REMARK    3  A    between atoms: C_13  and  C_14
REMARK    4  A    between atoms: C_23  and  N_24
REMARK                            x       y       z     vdW  Elec       q    Type
REMARK                         _______ _______ _______ _____ _____    ______ ____
ROOT
ATOM      1  C   UNL     1       3.466   7.125  17.330  0.00  0.00    +0.000 C 
ATOM      2  O   UNL     1       3.805   7.792  16.347  0.00  0.00    +0.000 OA
ATOM      3  N   UNL     1       3.897   5.786  17.474  0.00  0.00    +0.000 N 
ATOM      4  C   UNL     1       4.670   5.263  16.338  0.00  0.00    +0.000 C 
ATOM      5  C   UNL     1       5.679   4.148  16.616  0.00  0.00    +0.000 C 
ATOM      6  N   UNL     1       6.101   4.031  17.984  0.00  0.00    +0.000 N 
ATOM      7  C   UNL     1       5.346   4.418  19.048  0.00  0.00    +0.000 C 
ATOM      8  O   UNL     1       5.764   4.178  20.181  0.00  0.00    +0.000 OA
ATOM      9  C   UNL     1       3.962   5.047  18.768  0.00  0.00    +0.000 C 
ATOM     10  H   UNL     1       6.955   3.542  18.225  0.00  0.00    +0.000 HD
ENDROOT
BRANCH   1  14
ATOM     11  C   UNL     1       0.024  10.649  18.277  0.00  0.00    +0.000 C 
ATOM     12  C   UNL     1       0.933   9.567  18.788  0.00  0.00    +0.000 A 
ATOM     13  C   UNL     1       1.768   8.867  17.893  0.00  0.00    +0.000 A 
ATOM     14  C   UNL     1       2.597   7.825  18.332  0.00  0.00    +0.000 A 
ATOM     15  C   UNL     1       2.520   7.453  19.670  0.00  0.00    +0.000 A 
ATOM     16  C   UNL     1       1.798   8.205  20.594  0.00  0.00    +0.000 A 
ATOM     17  C   UNL     1       0.987   9.239  20.154  0.00  0.00    +0.000 A 
BRANCH  17  18
ATOM     18  N   UNL     1       0.220   9.943  21.087  0.00  0.00    +0.000 N 
ATOM     19  C   UNL     1       0.458  11.321  21.439  0.00  0.00    +0.000 C 
ATOM     20  C   UNL     1      -0.744  11.620  22.323  0.00  0.00    +0.000 C 
ATOM     21  N   UNL     1      -1.034  10.338  22.908  0.00  0.00    +0.000 N 
ATOM     22  C   UNL     1      -0.550   9.322  22.083  0.00  0.00    +0.000 C 
ATOM     23  O   UNL     1      -0.782   8.138  22.252  0.00  0.00    +0.000 OA
ATOM     24  H   UNL     1      -1.767  10.121  23.568  0.00  0.00    +0.000 HD
ENDBRANCH  17  18
ENDBRANCH   1  14
BRANCH   9  25
ATOM     25  C   UNL     1       2.829   4.048  19.025  0.00  0.00    +0.000 A 
ATOM     26  C   UNL     1       2.208   3.263  18.039  0.00  0.00    +0.000 A 
ATOM     27  C   UNL     1       1.108   2.450  18.362  0.00  0.00    +0.000 A 
ATOM     28  C   UNL     1       0.616   2.398  19.665  0.00  0.00    +0.000 A 
ATOM     29  C   UNL     1       1.217   3.166  20.656  0.00  0.00    +0.000 A 
ATOM     30  C   UNL     1       2.299   3.980  20.328  0.00  0.00    +0.000 A 
ATOM     31  F   UNL     1       2.779   4.787  21.283  0.00  0.00    +0.000 F 
ENDBRANCH   9  25
TORSDOF 3
ENDMDL
MODEL 6
REMARK VINA RESULT:      -8.4      0.892      1.257
REMARK  Name = 
REMARK  4 active torsions:
REMARK  status: ('A' for Active; 'I' for Inactive)
REMARK    1  A    between atoms: C_1  and  C_2
REMARK    2  A    between atoms: C_4  and  C_5
REMARK    3  A    between atoms: C_13  and  C_14
REMARK    4  A    between atoms: C_23  and  N_24
REMARK                            x       y       z     vdW  Elec       q    Type
REMARK                         _______ _______ _______ _____ _____    ______ ____
ROOT
ATOM      1  C   UNL     1       2.382   5.545  19.960  0.00  0.00    +0.000 C 
ATOM      2  O   UNL     1       1.654   5.006  20.800  0.00  0.00    +0.000 OA
ATOM      3  N   UNL     1       3.457   4.835  19.377  0.00  0.00    +0.000 N 
ATOM      4  C   UNL     1       3.672   3.488  19.922  0.00  0.00    +0.000 C 
ATOM      5  C   UNL     1       4.319   2.445  19.010  0.00  0.00    +0.000 C 
ATOM      6  N   UNL     1       4.244   2.730  17.605  0.00  0.00    +0.000 N 
ATOM      7  C   UNL     1       4.150   3.985  17.086  0.00  0.00    +0.000 C 
ATOM      8  O   UNL     1       4.194   4.119  15.863  0.00  0.00    +0.000 OA
ATOM      9  C   UNL     1       4.093   5.175  18.071  0.00  0.00    +0.000 C 
ATOM     10  H   UNL     1       4.371   1.996  16.917  0.00  0.00    +0.000 HD
ENDROOT
BRANCH   1  14
ATOM     11  C   UNL     1       0.634  10.009  21.435  0.00  0.00    +0.000 C 
ATOM     12  C   UNL     1       1.162   9.134  20.334  0.00  0.00    +0.000 A 
ATOM     13  C   UNL     1       1.508   7.794  20.604  0.00  0.00    +0.000 A 
ATOM     14  C   UNL     1       2.042   6.964  19.609  0.00  0.00    +0.000 A 
ATOM     15  C   UNL     1       2.288   7.523  18.360  0.00  0.00    +0.000 A 
ATOM     16  C   UNL     1       1.844   8.803  18.034  0.00  0.00    +0.000 A 
ATOM     17  C   UNL     1       1.310   9.616  19.022  0.00  0.00    +0.000 A 
BRANCH  17  18
ATOM     18  N   UNL     1       0.928  10.919  18.693  0.00  0.00    +0.000 N 
ATOM     19  C   UNL     1       1.696  12.089  19.043  0.00  0.00    +0.000 C 
ATOM     20  C   UNL     1       0.941  13.180  18.298  0.00  0.00    +0.000 C 
ATOM     21  N   UNL     1      -0.407  12.677  18.278  0.00  0.00    +0.000 N 
ATOM     22  C   UNL     1      -0.394  11.287  18.395  0.00  0.00    +0.000 C 
ATOM     23  O   UNL     1      -1.378  10.582  18.259  0.00  0.00    +0.000 OA
ATOM     24  H   UNL     1      -1.218  13.124  17.876  0.00  0.00    +0.000 HD
ENDBRANCH  17  18
ENDBRANCH   1  14
BRANCH   9  25
ATOM     25  C   UNL     1       5.440   5.901  18.152  0.00  0.00    +0.000 A 
ATOM     26  C   UNL     1       5.839   6.954  17.312  0.00  0.00    +0.000 A 
ATOM     27  C   UNL     1       7.137   7.487  17.402  0.00  0.00    +0.000 A 
ATOM     28  C   UNL     1       8.050   6.990  18.331  0.00  0.00    +0.000 A 
ATOM     29  C   UNL     1       7.674   5.949  19.173  0.00  0.00    +0.000 A 
ATOM     30  C   UNL     1       6.392   5.416  19.070  0.00  0.00    +0.000 A 
ATOM     31  F   UNL     1       6.105   4.344  19.819  0.00  0.00    +0.000 F 
ENDBRANCH   9  25
TORSDOF 3
ENDMDL
MODEL 7
REMARK VINA RESULT:      -8.2      1.260      1.648
REMARK  Name = 
REMARK  4 active torsions:
REMARK  status: ('A' for Active; 'I' for Inactive)
REMARK    1  A    between atoms: C_1  and  C_2
REMARK    2  A    between atoms: C_4  and  C_5
REMARK    3  A    between atoms: C_13  and  C_14
REMARK    4  A    between atoms: C_23  and  N_24
REMARK                            x       y       z     vdW  Elec       q    Type
REMARK                         _______ _______ _______ _____ _____    ______ ____
ROOT
ATOM      1  C   UNL     1       2.402   5.522  20.040  0.00  0.00    +0.000 C 
ATOM      2  O   UNL     1       1.713   4.970  20.904  0.00  0.00    +0.000 OA
ATOM      3  N   UNL     1       3.473   4.832  19.426  0.00  0.00    +0.000 N 
ATOM      4  C   UNL     1       3.732   3.490  19.967  0.00  0.00    +0.000 C 
ATOM      5  C   UNL     1       4.371   2.458  19.037  0.00  0.00    +0.000 C 
ATOM      6  N   UNL     1       4.246   2.737  17.634  0.00  0.00    +0.000 N 
ATOM      7  C   UNL     1       4.110   3.988  17.116  0.00  0.00    +0.000 C 
ATOM      8  O   UNL     1       4.112   4.119  15.892  0.00  0.00    +0.000 OA
ATOM      9  C   UNL     1       4.061   5.180  18.099  0.00  0.00    +0.000 C 
ATOM     10  H   UNL     1       4.366   2.004  16.945  0.00  0.00    +0.000 HD
ENDROOT
BRANCH   1  14
ATOM     11  C   UNL     1       0.715   9.987  21.580  0.00  0.00    +0.000 C 
ATOM     12  C   UNL     1       1.173   9.103  20.456  0.00  0.00    +0.000 A 
ATOM     13  C   UNL     1       1.552   7.770  20.717  0.00  0.00    +0.000 A 
ATOM     14  C   UNL     1       2.023   6.932  19.697  0.00  0.00    +0.000 A 
ATOM     15  C   UNL     1       2.174   7.477  18.426  0.00  0.00    +0.000 A 
ATOM     16  C   UNL     1       1.695   8.748  18.118  0.00  0.00    +0.000 A 
ATOM     17  C   UNL     1       1.223   9.569  19.130  0.00  0.00    +0.000 A 
BRANCH  17  18
ATOM     18  N   UNL     1       0.804  10.864  18.813  0.00  0.00    +0.000 N 
ATOM     19  C   UNL     1      -0.567  11.216  18.541  0.00  0.00    +0.000 C 
ATOM     20  C   UNL     1      -0.478  12.732  18.448  0.00  0.00    +0.000 C 
ATOM     21  N   UNL     1       0.860  12.942  17.964  0.00  0.00    +0.000 N 
ATOM     22  C   UNL     1       1.661  11.851  18.302  0.00  0.00    +0.000 C 
ATOM     23  O   UNL     1       2.870  11.820  18.152  0.00  0.00    +0.000 OA
ATOM     24  H   UNL     1       1.303  13.827  17.761  0.00  0.00    +0.000 HD
ENDBRANCH  17  18
ENDBRANCH   1  14
BRANCH   9  25
ATOM     25  C   UNL     1       5.395   5.933  18.136  0.00  0.00    +0.000 A 
ATOM     26  C   UNL     1       5.742   6.996  17.285  0.00  0.00    +0.000 A 
ATOM     27  C   UNL     1       7.032   7.555  17.332  0.00  0.00    +0.000 A 
ATOM     28  C   UNL     1       7.986   7.075  18.227  0.00  0.00    +0.000 A 
ATOM     29  C   UNL     1       7.661   6.024  19.079  0.00  0.00    +0.000 A 
ATOM     30  C   UNL     1       6.387   5.466  19.018  0.00  0.00    +0.000 A 
ATOM     31  F   UNL     1       6.148   4.386  19.774  0.00  0.00    +0.000 F 
ENDBRANCH   9  25
TORSDOF 3
ENDMDL
MODEL 8
REMARK VINA RESULT:      -8.1      2.348      7.780
REMARK  Name = 
REMARK  4 active torsions:
REMARK  status: ('A' for Active; 'I' for Inactive)
REMARK    1  A    between atoms: C_1  and  C_2
REMARK    2  A    between atoms: C_4  and  C_5
REMARK    3  A    between atoms: C_13  and  C_14
REMARK    4  A    between atoms: C_23  and  N_24
REMARK                            x       y       z     vdW  Elec       q    Type
REMARK                         _______ _______ _______ _____ _____    ______ ____
ROOT
ATOM      1  C   UNL     1       0.869   9.470  21.584  0.00  0.00    +0.000 C 
ATOM      2  O   UNL     1       1.072   9.365  22.798  0.00  0.00    +0.000 OA
ATOM      3  N   UNL     1       0.196  10.599  21.062  0.00  0.00    +0.000 N 
ATOM      4  C   UNL     1      -0.302  11.540  22.075  0.00  0.00    +0.000 C 
ATOM      5  C   UNL     1      -0.451  13.008  21.671  0.00  0.00    +0.000 C 
ATOM      6  N   UNL     1       0.313  13.408  20.524  0.00  0.00    +0.000 N 
ATOM      7  C   UNL     1       0.690  12.562  19.528  0.00  0.00    +0.000 C 
ATOM      8  O   UNL     1       1.258  13.032  18.541  0.00  0.00    +0.000 OA
ATOM      9  C   UNL     1       0.295  11.072  19.651  0.00  0.00    +0.000 C 
ATOM     10  H   UNL     1       0.517  14.385  20.350  0.00  0.00    +0.000 HD
ENDROOT
BRANCH   1  14
ATOM     11  C   UNL     1       1.513   4.536  20.948  0.00  0.00    +0.000 C 
ATOM     12  C   UNL     1       1.715   5.936  20.442  0.00  0.00    +0.000 A 
ATOM     13  C   UNL     1       1.246   7.032  21.195  0.00  0.00    +0.000 A 
ATOM     14  C   UNL     1       1.383   8.348  20.731  0.00  0.00    +0.000 A 
ATOM     15  C   UNL     1       1.934   8.538  19.468  0.00  0.00    +0.000 A 
ATOM     16  C   UNL     1       2.513   7.486  18.761  0.00  0.00    +0.000 A 
ATOM     17  C   UNL     1       2.381   6.188  19.230  0.00  0.00    +0.000 A 
BRANCH  17  18
ATOM     18  N   UNL     1       2.913   5.139  18.476  0.00  0.00    +0.000 N 
ATOM     19  C   UNL     1       4.317   5.005  18.172  0.00  0.00    +0.000 C 
ATOM     20  C   UNL     1       4.355   3.633  17.514  0.00  0.00    +0.000 C 
ATOM     21  N   UNL     1       3.053   3.535  16.910  0.00  0.00    +0.000 N 
ATOM     22  C   UNL     1       2.156   4.364  17.584  0.00  0.00    +0.000 C 
ATOM     23  O   UNL     1       0.953   4.370  17.387  0.00  0.00    +0.000 OA
ATOM     24  H   UNL     1       2.690   2.765  16.366  0.00  0.00    +0.000 HD
ENDBRANCH  17  18
ENDBRANCH   1  14
BRANCH   9  25
ATOM     25  C   UNL     1      -0.894  10.731  18.746  0.00  0.00    +0.000 A 
ATOM     26  C   UNL     1      -2.235  11.040  19.029  0.00  0.00    +0.000 A 
ATOM     27  C   UNL     1      -3.264  10.593  18.181  0.00  0.00    +0.000 A 
ATOM     28  C   UNL     1      -2.976   9.844  17.041  0.00  0.00    +0.000 A 
ATOM     29  C   UNL     1      -1.655   9.528  16.744  0.00  0.00    +0.000 A 
ATOM     30  C   UNL     1      -0.641   9.962  17.594  0.00  0.00    +0.000 A 
ATOM     31  F   UNL     1       0.605   9.545  17.335  0.00  0.00    +0.000 F 
ENDBRANCH   9  25
TORSDOF 3
ENDMDL
MODEL 9
REMARK VINA RESULT:      -8.0      1.119      1.467
REMARK  Name = 
REMARK  4 active torsions:
REMARK  status: ('A' for Active; 'I' for Inactive)
REMARK    1  A    between atoms: C_1  and  C_2
REMARK    2  A    between atoms: C_4  and  C_5
REMARK    3  A    between atoms: C_13  and  C_14
REMARK    4  A    between atoms: C_23  and  N_24
REMARK                            x       y       z     vdW  Elec       q    Type
REMARK                         _______ _______ _______ _____ _____    ______ ____
ROOT
ATOM      1  C   UNL     1       2.507   5.186  20.365  0.00  0.00    +0.000 C 
ATOM      2  O   UNL     1       2.172   4.841  21.503  0.00  0.00    +0.000 OA
ATOM      3  N   UNL     1       3.187   4.286  19.511  0.00  0.00    +0.000 N 
ATOM      4  C   UNL     1       3.528   2.995  20.125  0.00  0.00    +0.000 C 
ATOM      5  C   UNL     1       3.661   1.782  19.203  0.00  0.00    +0.000 C 
ATOM      6  N   UNL     1       3.014   1.908  17.927  0.00  0.00    +0.000 N 
ATOM      7  C   UNL     1       2.788   3.096  17.303  0.00  0.00    +0.000 C 
ATOM      8  O   UNL     1       2.317   3.081  16.166  0.00  0.00    +0.000 OA
ATOM      9  C   UNL     1       3.229   4.391  18.024  0.00  0.00    +0.000 C 
ATOM     10  H   UNL     1       2.792   1.089  17.373  0.00  0.00    +0.000 HD
ENDROOT
BRANCH   1  14
ATOM     11  C   UNL     1       0.344   9.545  21.580  0.00  0.00    +0.000 C 
ATOM     12  C   UNL     1       1.057   8.703  20.561  0.00  0.00    +0.000 A 
ATOM     13  C   UNL     1       1.437   7.383  20.880  0.00  0.00    +0.000 A 
ATOM     14  C   UNL     1       2.139   6.585  19.966  0.00  0.00    +0.000 A 
ATOM     15  C   UNL     1       2.516   7.159  18.757  0.00  0.00    +0.000 A 
ATOM     16  C   UNL     1       2.050   8.414  18.371  0.00  0.00    +0.000 A 
ATOM     17  C   UNL     1       1.348   9.194  19.277  0.00  0.00    +0.000 A 
BRANCH  17  18
ATOM     18  N   UNL     1       0.943  10.476  18.896  0.00  0.00    +0.000 N 
ATOM     19  C   UNL     1       1.535  11.687  19.409  0.00  0.00    +0.000 C 
ATOM     20  C   UNL     1       0.864  12.743  18.542  0.00  0.00    +0.000 C 
ATOM     21  N   UNL     1      -0.411  12.146  18.244  0.00  0.00    +0.000 N 
ATOM     22  C   UNL     1      -0.316  10.758  18.343  0.00  0.00    +0.000 C 
ATOM     23  O   UNL     1      -1.198   9.988  18.001  0.00  0.00    +0.000 OA
ATOM     24  H   UNL     1      -1.157  12.545  17.693  0.00  0.00    +0.000 HD
ENDBRANCH  17  18
ENDBRANCH   1  14
BRANCH   9  25
ATOM     25  C   UNL     1       4.525   4.950  17.429  0.00  0.00    +0.000 A 
ATOM     26  C   UNL     1       4.869   4.909  16.068  0.00  0.00    +0.000 A 
ATOM     27  C   UNL     1       6.129   5.361  15.636  0.00  0.00    +0.000 A 
ATOM     28  C   UNL     1       7.058   5.865  16.546  0.00  0.00    +0.000 A 
ATOM     29  C   UNL     1       6.736   5.915  17.898  0.00  0.00    +0.000 A 
ATOM     30  C   UNL     1       5.492   5.454  18.321  0.00  0.00    +0.000 A 
ATOM     31  F   UNL     1       5.262   5.415  19.640  0.00  0.00    +0.000 F 
ENDBRANCH   9  25
TORSDOF 3
ENDMDL
