MODEL 1
REMARK VINA RESULT:      -8.1      0.000      0.000
REMARK  Name = 
REMARK  4 active torsions:
REMARK  status: ('A' for Active; 'I' for Inactive)
REMARK    1  A    between atoms: C_1  and  C_2
REMARK    2  A    between atoms: C_4  and  N_5
REMARK    3  A    between atoms: C_6  and  C_8
REMARK    4  A    between atoms: C_19  and  N_20
REMARK                            x       y       z     vdW  Elec       q    Type
REMARK                         _______ _______ _______ _____ _____    ______ ____
ROOT
ATOM      1  N   UNL     1       3.303   7.113  18.820  0.00  0.00    +0.000 N 
ATOM      2  C   UNL     1       3.248   5.726  18.772  0.00  0.00    +0.000 C 
ATOM      3  O   UNL     1       2.247   5.041  18.956  0.00  0.00    +0.000 OA
ATOM      4  H   UNL     1       4.232   7.496  18.669  0.00  0.00    +0.000 HD
ENDROOT
BRANCH   2   5
ATOM      5  C   UNL     1       4.542   5.101  18.460  0.00  0.00    +0.000 A 
ATOM      6  N   UNL     1       5.266   4.436  19.385  0.00  0.00    +0.000 NA
ATOM      7  N   UNL     1       6.363   4.046  18.707  0.00  0.00    +0.000 N 
ATOM      8  C   UNL     1       6.391   4.434  17.395  0.00  0.00    +0.000 A 
ATOM      9  C   UNL     1       7.341   4.248  16.385  0.00  0.00    +0.000 A 
ATOM     10  C   UNL     1       7.055   4.790  15.125  0.00  0.00    +0.000 A 
ATOM     11  C   UNL     1       5.868   5.479  14.891  0.00  0.00    +0.000 A 
ATOM     12  C   UNL     1       4.930   5.653  15.916  0.00  0.00    +0.000 A 
ATOM     13  C   UNL     1       5.201   5.121  17.193  0.00  0.00    +0.000 A 
ATOM     14  H   UNL     1       7.070   3.515  19.201  0.00  0.00    +0.000 HD
ENDBRANCH   2   5
BRANCH   1  18
ATOM     15  C   UNL     1      -0.206   8.903  21.767  0.00  0.00    +0.000 C 
ATOM     16  C   UNL     1       0.463   8.998  20.422  0.00  0.00    +0.000 A 
ATOM     17  C   UNL     1       1.558   8.125  20.237  0.00  0.00    +0.000 A 
ATOM     18  C   UNL     1       2.227   8.001  19.021  0.00  0.00    +0.000 A 
ATOM     19  C   UNL     1       1.782   8.779  17.958  0.00  0.00    +0.000 A 
ATOM     20  C   UNL     1       0.707   9.669  18.126  0.00  0.00    +0.000 A 
ATOM     21  C   UNL     1       0.039   9.822  19.358  0.00  0.00    +0.000 A 
BRANCH  21  22
ATOM     22  N   UNL     1      -1.001  10.798  19.484  0.00  0.00    +0.000 N 
ATOM     23  C   UNL     1      -0.785  12.095  20.082  0.00  0.00    +0.000 C 
ATOM     24  C   UNL     1      -2.150  12.749  20.091  0.00  0.00    +0.000 C 
ATOM     25  C   UNL     1      -2.822  12.173  18.865  0.00  0.00    +0.000 C 
ATOM     26  C   UNL     1      -2.192  10.806  18.734  0.00  0.00    +0.000 C 
ATOM     27  O   UNL     1      -2.677   9.917  18.048  0.00  0.00    +0.000 OA
ENDBRANCH  21  22
ENDBRANCH   1  18
TORSDOF 3
ENDMDL
MODEL 2
REMARK VINA RESULT:      -7.8      2.613      3.712
REMARK  Name = 
REMARK  4 active torsions:
REMARK  status: ('A' for Active; 'I' for Inactive)
REMARK    1  A    between atoms: C_1  and  C_2
REMARK    2  A    between atoms: C_4  and  N_5
REMARK    3  A    between atoms: C_6  and  C_8
REMARK    4  A    between atoms: C_19  and  N_20
REMARK                            x       y       z     vdW  Elec       q    Type
REMARK                         _______ _______ _______ _____ _____    ______ ____
ROOT
ATOM      1  N   UNL     1       2.050   7.344  20.126  0.00  0.00    +0.000 N 
ATOM      2  C   UNL     1       2.636   7.184  18.878  0.00  0.00    +0.000 C 
ATOM      3  O   UNL     1       2.586   7.989  17.953  0.00  0.00    +0.000 OA
ATOM      4  H   UNL     1       2.179   6.552  20.749  0.00  0.00    +0.000 HD
ENDROOT
BRANCH   2   5
ATOM      5  C   UNL     1       3.369   5.917  18.736  0.00  0.00    +0.000 A 
ATOM      6  N   UNL     1       4.715   5.866  18.654  0.00  0.00    +0.000 NA
ATOM      7  N   UNL     1       4.973   4.550  18.517  0.00  0.00    +0.000 N 
ATOM      8  C   UNL     1       3.863   3.750  18.495  0.00  0.00    +0.000 A 
ATOM      9  C   UNL     1       3.711   2.366  18.354  0.00  0.00    +0.000 A 
ATOM     10  C   UNL     1       2.406   1.858  18.370  0.00  0.00    +0.000 A 
ATOM     11  C   UNL     1       1.308   2.700  18.529  0.00  0.00    +0.000 A 
ATOM     12  C   UNL     1       1.483   4.082  18.671  0.00  0.00    +0.000 A 
ATOM     13  C   UNL     1       2.788   4.615  18.650  0.00  0.00    +0.000 A 
ATOM     14  H   UNL     1       5.940   4.255  18.437  0.00  0.00    +0.000 HD
ENDBRANCH   2   5
BRANCH   1  18
ATOM     15  C   UNL     1      -0.336  11.540  19.176  0.00  0.00    +0.000 C 
ATOM     16  C   UNL     1       0.099  10.565  20.236  0.00  0.00    +0.000 A 
ATOM     17  C   UNL     1       0.779   9.424  19.754  0.00  0.00    +0.000 A 
ATOM     18  C   UNL     1       1.346   8.471  20.598  0.00  0.00    +0.000 A 
ATOM     19  C   UNL     1       1.225   8.670  21.968  0.00  0.00    +0.000 A 
ATOM     20  C   UNL     1       0.534   9.787  22.469  0.00  0.00    +0.000 A 
ATOM     21  C   UNL     1      -0.065  10.745  21.624  0.00  0.00    +0.000 A 
BRANCH  21  22
ATOM     22  N   UNL     1      -0.817  11.821  22.196  0.00  0.00    +0.000 N 
ATOM     23  C   UNL     1      -1.986  11.607  23.018  0.00  0.00    +0.000 C 
ATOM     24  C   UNL     1      -2.505  12.995  23.320  0.00  0.00    +0.000 C 
ATOM     25  C   UNL     1      -1.252  13.840  23.346  0.00  0.00    +0.000 C 
ATOM     26  C   UNL     1      -0.336  13.132  22.377  0.00  0.00    +0.000 C 
ATOM     27  O   UNL     1       0.656  13.661  21.895  0.00  0.00    +0.000 OA
ENDBRANCH  21  22
ENDBRANCH   1  18
TORSDOF 3
ENDMDL
MODEL 3
REMARK VINA RESULT:      -7.7      1.680      1.914
REMARK  Name = 
REMARK  4 active torsions:
REMARK  status: ('A' for Active; 'I' for Inactive)
REMARK    1  A    between atoms: C_1  and  C_2
REMARK    2  A    between atoms: C_4  and  N_5
REMARK    3  A    between atoms: C_6  and  C_8
REMARK    4  A    between atoms: C_19  and  N_20
REMARK                            x       y       z     vdW  Elec       q    Type
REMARK                         _______ _______ _______ _____ _____    ______ ____
ROOT
ATOM      1  N   UNL     1       2.934   6.788  18.418  0.00  0.00    +0.000 N 
ATOM      2  C   UNL     1       2.640   5.446  18.619  0.00  0.00    +0.000 C 
ATOM      3  O   UNL     1       1.711   5.008  19.291  0.00  0.00    +0.000 OA
ATOM      4  H   UNL     1       3.762   6.951  17.854  0.00  0.00    +0.000 HD
ENDROOT
BRANCH   2   5
ATOM      5  C   UNL     1       3.565   4.536  17.927  0.00  0.00    +0.000 A 
ATOM      6  N   UNL     1       3.644   3.222  18.224  0.00  0.00    +0.000 NA
ATOM      7  N   UNL     1       4.602   2.768  17.393  0.00  0.00    +0.000 N 
ATOM      8  C   UNL     1       5.154   3.722  16.582  0.00  0.00    +0.000 A 
ATOM      9  C   UNL     1       6.166   3.658  15.617  0.00  0.00    +0.000 A 
ATOM     10  C   UNL     1       6.500   4.848  14.957  0.00  0.00    +0.000 A 
ATOM     11  C   UNL     1       5.844   6.041  15.247  0.00  0.00    +0.000 A 
ATOM     12  C   UNL     1       4.833   6.082  16.216  0.00  0.00    +0.000 A 
ATOM     13  C   UNL     1       4.486   4.898  16.897  0.00  0.00    +0.000 A 
ATOM     14  H   UNL     1       4.844   1.784  17.429  0.00  0.00    +0.000 HD
ENDBRANCH   2   5
BRANCH   1  18
ATOM     15  C   UNL     1       0.588   9.070  22.091  0.00  0.00    +0.000 C 
ATOM     16  C   UNL     1       1.035   9.149  20.656  0.00  0.00    +0.000 A 
ATOM     17  C   UNL     1       1.793   8.046  20.206  0.00  0.00    +0.000 A 
ATOM     18  C   UNL     1       2.199   7.899  18.881  0.00  0.00    +0.000 A 
ATOM     19  C   UNL     1       1.832   8.892  17.981  0.00  0.00    +0.000 A 
ATOM     20  C   UNL     1       1.094  10.009  18.412  0.00  0.00    +0.000 A 
ATOM     21  C   UNL     1       0.700  10.180  19.755  0.00  0.00    +0.000 A 
BRANCH  21  22
ATOM     22  N   UNL     1       0.013  11.375  20.144  0.00  0.00    +0.000 N 
ATOM     23  C   UNL     1      -1.426  11.492  20.116  0.00  0.00    +0.000 C 
ATOM     24  C   UNL     1      -1.705  12.926  20.509  0.00  0.00    +0.000 C 
ATOM     25  C   UNL     1      -0.569  13.259  21.449  0.00  0.00    +0.000 C 
ATOM     26  C   UNL     1       0.563  12.395  20.944  0.00  0.00    +0.000 C 
ATOM     27  O   UNL     1       1.732  12.591  21.246  0.00  0.00    +0.000 OA
ENDBRANCH  21  22
ENDBRANCH   1  18
TORSDOF 3
ENDMDL
MODEL 4
REMARK VINA RESULT:      -7.7      2.512      3.391
REMARK  Name = 
REMARK  4 active torsions:
REMARK  status: ('A' for Active; 'I' for Inactive)
REMARK    1  A    between atoms: C_1  and  C_2
REMARK    2  A    between atoms: C_4  and  N_5
REMARK    3  A    between atoms: C_6  and  C_8
REMARK    4  A    between atoms: C_19  and  N_20
REMARK                            x       y       z     vdW  Elec       q    Type
REMARK                         _______ _______ _______ _____ _____    ______ ____
ROOT
ATOM      1  N   UNL     1       2.049   7.894  19.452  0.00  0.00    +0.000 N 
ATOM      2  C   UNL     1       2.540   7.915  18.154  0.00  0.00    +0.000 C 
ATOM      3  O   UNL     1       2.345   8.800  17.327  0.00  0.00    +0.000 OA
ATOM      4  H   UNL     1       2.295   7.060  19.976  0.00  0.00    +0.000 HD
ENDROOT
BRANCH   2   5
ATOM      5  C   UNL     1       3.364   6.743  17.824  0.00  0.00    +0.000 A 
ATOM      6  N   UNL     1       4.653   6.849  17.439  0.00  0.00    +0.000 NA
ATOM      7  N   UNL     1       5.024   5.573  17.220  0.00  0.00    +0.000 N 
ATOM      8  C   UNL     1       4.038   4.647  17.433  0.00  0.00    +0.000 A 
ATOM      9  C   UNL     1       4.020   3.254  17.300  0.00  0.00    +0.000 A 
ATOM     10  C   UNL     1       2.820   2.597  17.600  0.00  0.00    +0.000 A 
ATOM     11  C   UNL     1       1.697   3.304  18.021  0.00  0.00    +0.000 A 
ATOM     12  C   UNL     1       1.738   4.698  18.148  0.00  0.00    +0.000 A 
ATOM     13  C   UNL     1       2.934   5.381  17.845  0.00  0.00    +0.000 A 
ATOM     14  H   UNL     1       5.974   5.393  16.917  0.00  0.00    +0.000 HD
ENDBRANCH   2   5
BRANCH   1  18
ATOM     15  C   UNL     1      -0.070   9.633  23.538  0.00  0.00    +0.000 C 
ATOM     16  C   UNL     1       0.229   9.882  22.084  0.00  0.00    +0.000 A 
ATOM     17  C   UNL     1       1.010   8.887  21.457  0.00  0.00    +0.000 A 
ATOM     18  C   UNL     1       1.293   8.898  20.093  0.00  0.00    +0.000 A 
ATOM     19  C   UNL     1       0.776   9.943  19.336  0.00  0.00    +0.000 A 
ATOM     20  C   UNL     1       0.014  10.956  19.944  0.00  0.00    +0.000 A 
ATOM     21  C   UNL     1      -0.258  10.968  21.328  0.00  0.00    +0.000 A 
BRANCH  21  22
ATOM     22  N   UNL     1      -0.979  12.066  21.898  0.00  0.00    +0.000 N 
ATOM     23  C   UNL     1      -2.315  11.929  22.432  0.00  0.00    +0.000 C 
ATOM     24  C   UNL     1      -2.715  13.331  22.835  0.00  0.00    +0.000 C 
ATOM     25  C   UNL     1      -1.404  13.968  23.236  0.00  0.00    +0.000 C 
ATOM     26  C   UNL     1      -0.393  13.256  22.369  0.00  0.00    +0.000 C 
ATOM     27  O   UNL     1       0.736  13.686  22.178  0.00  0.00    +0.000 OA
ENDBRANCH  21  22
ENDBRANCH   1  18
TORSDOF 3
ENDMDL
MODEL 5
REMARK VINA RESULT:      -7.6      2.342      8.811
REMARK  Name = 
REMARK  4 active torsions:
REMARK  status: ('A' for Active; 'I' for Inactive)
REMARK    1  A    between atoms: C_1  and  C_2
REMARK    2  A    between atoms: C_4  and  N_5
REMARK    3  A    between atoms: C_6  and  C_8
REMARK    4  A    between atoms: C_19  and  N_20
REMARK                            x       y       z     vdW  Elec       q    Type
REMARK                         _______ _______ _______ _____ _____    ______ ____
ROOT
ATOM      1  N   UNL     1       2.051   7.641  20.173  0.00  0.00    +0.000 N 
ATOM      2  C   UNL     1       1.318   8.798  19.948  0.00  0.00    +0.000 C 
ATOM      3  O   UNL     1       1.343   9.476  18.925  0.00  0.00    +0.000 OA
ATOM      4  H   UNL     1       1.917   7.237  21.095  0.00  0.00    +0.000 HD
ENDROOT
BRANCH   2   5
ATOM      5  C   UNL     1       0.455   9.171  21.079  0.00  0.00    +0.000 A 
ATOM      6  N   UNL     1      -0.106   8.254  21.894  0.00  0.00    +0.000 NA
ATOM      7  N   UNL     1      -0.816   8.997  22.765  0.00  0.00    +0.000 N 
ATOM      8  C   UNL     1      -0.752  10.347  22.548  0.00  0.00    +0.000 A 
ATOM      9  C   UNL     1      -1.349  11.429  23.205  0.00  0.00    +0.000 A 
ATOM     10  C   UNL     1      -1.072  12.711  22.714  0.00  0.00    +0.000 A 
ATOM     11  C   UNL     1      -0.230  12.897  21.621  0.00  0.00    +0.000 A 
ATOM     12  C   UNL     1       0.359  11.800  20.979  0.00  0.00    +0.000 A 
ATOM     13  C   UNL     1       0.088  10.500  21.453  0.00  0.00    +0.000 A 
ATOM     14  H   UNL     1      -1.336   8.521  23.492  0.00  0.00    +0.000 HD
ENDBRANCH   2   5
BRANCH   1  18
ATOM     15  C   UNL     1       4.905   3.785  19.082  0.00  0.00    +0.000 C 
ATOM     16  C   UNL     1       4.329   5.088  18.597  0.00  0.00    +0.000 A 
ATOM     17  C   UNL     1       3.450   5.724  19.500  0.00  0.00    +0.000 A 
ATOM     18  C   UNL     1       2.908   6.986  19.264  0.00  0.00    +0.000 A 
ATOM     19  C   UNL     1       3.261   7.629  18.083  0.00  0.00    +0.000 A 
ATOM     20  C   UNL     1       4.119   7.004  17.160  0.00  0.00    +0.000 A 
ATOM     21  C   UNL     1       4.652   5.717  17.377  0.00  0.00    +0.000 A 
BRANCH  21  22
ATOM     22  N   UNL     1       5.461   5.106  16.365  0.00  0.00    +0.000 N 
ATOM     23  C   UNL     1       4.913   4.252  15.338  0.00  0.00    +0.000 C 
ATOM     24  C   UNL     1       6.114   3.762  14.560  0.00  0.00    +0.000 C 
ATOM     25  C   UNL     1       7.091   4.912  14.664  0.00  0.00    +0.000 C 
ATOM     26  C   UNL     1       6.749   5.539  15.995  0.00  0.00    +0.000 C 
ATOM     27  O   UNL     1       7.501   6.306  16.578  0.00  0.00    +0.000 OA
ENDBRANCH  21  22
ENDBRANCH   1  18
TORSDOF 3
ENDMDL
MODEL 6
REMARK VINA RESULT:      -7.6      0.938      1.001
REMARK  Name = 
REMARK  4 active torsions:
REMARK  status: ('A' for Active; 'I' for Inactive)
REMARK    1  A    between atoms: C_1  and  C_2
REMARK    2  A    between atoms: C_4  and  N_5
REMARK    3  A    between atoms: C_6  and  C_8
REMARK    4  A    between atoms: C_19  and  N_20
REMARK                            x       y       z     vdW  Elec       q    Type
REMARK                         _______ _______ _______ _____ _____    ______ ____
ROOT
ATOM      1  N   UNL     1       2.879   7.107  19.279  0.00  0.00    +0.000 N 
ATOM      2  C   UNL     1       2.735   5.733  19.412  0.00  0.00    +0.000 C 
ATOM      3  O   UNL     1       1.767   5.157  19.899  0.00  0.00    +0.000 OA
ATOM      4  H   UNL     1       3.767   7.394  18.877  0.00  0.00    +0.000 HD
ENDROOT
BRANCH   2   5
ATOM      5  C   UNL     1       3.882   4.973  18.893  0.00  0.00    +0.000 A 
ATOM      6  N   UNL     1       4.401   3.911  19.544  0.00  0.00    +0.000 NA
ATOM      7  N   UNL     1       5.423   3.526  18.756  0.00  0.00    +0.000 N 
ATOM      8  C   UNL     1       5.599   4.291  17.634  0.00  0.00    +0.000 A 
ATOM      9  C   UNL     1       6.539   4.229  16.599  0.00  0.00    +0.000 A 
ATOM     10  C   UNL     1       6.438   5.188  15.582  0.00  0.00    +0.000 A 
ATOM     11  C   UNL     1       5.436   6.155  15.602  0.00  0.00    +0.000 A 
ATOM     12  C   UNL     1       4.505   6.197  16.647  0.00  0.00    +0.000 A 
ATOM     13  C   UNL     1       4.593   5.246  17.684  0.00  0.00    +0.000 A 
ATOM     14  H   UNL     1       5.977   2.727  19.042  0.00  0.00    +0.000 HD
ENDBRANCH   2   5
BRANCH   1  18
ATOM     15  C   UNL     1      -0.402   8.923  22.463  0.00  0.00    +0.000 C 
ATOM     16  C   UNL     1       0.298   9.118  21.145  0.00  0.00    +0.000 A 
ATOM     17  C   UNL     1       1.265   8.137  20.833  0.00  0.00    +0.000 A 
ATOM     18  C   UNL     1       1.933   8.098  19.610  0.00  0.00    +0.000 A 
ATOM     19  C   UNL     1       1.620   9.077  18.674  0.00  0.00    +0.000 A 
ATOM     20  C   UNL     1       0.676  10.075  18.972  0.00  0.00    +0.000 A 
ATOM     21  C   UNL     1       0.012  10.138  20.215  0.00  0.00    +0.000 A 
BRANCH  21  22
ATOM     22  N   UNL     1      -0.884  11.222  20.485  0.00  0.00    +0.000 N 
ATOM     23  C   UNL     1      -0.572  12.279  21.418  0.00  0.00    +0.000 C 
ATOM     24  C   UNL     1      -1.817  13.139  21.459  0.00  0.00    +0.000 C 
ATOM     25  C   UNL     1      -2.383  13.001  20.064  0.00  0.00    +0.000 C 
ATOM     26  C   UNL     1      -1.944  11.618  19.646  0.00  0.00    +0.000 C 
ATOM     27  O   UNL     1      -2.448  11.017  18.707  0.00  0.00    +0.000 OA
ENDBRANCH  21  22
ENDBRANCH   1  18
TORSDOF 3
ENDMDL
MODEL 7
REMARK VINA RESULT:      -7.6      2.683      3.284
REMARK  Name = 
REMARK  4 active torsions:
REMARK  status: ('A' for Active; 'I' for Inactive)
REMARK    1  A    between atoms: C_1  and  C_2
REMARK    2  A    between atoms: C_4  and  N_5
REMARK    3  A    between atoms: C_6  and  C_8
REMARK    4  A    between atoms: C_19  and  N_20
REMARK                            x       y       z     vdW  Elec       q    Type
REMARK                         _______ _______ _______ _____ _____    ______ ____
ROOT
ATOM      1  N   UNL     1       2.146   7.206  20.125  0.00  0.00    +0.000 N 
ATOM      2  C   UNL     1       2.915   6.902  19.010  0.00  0.00    +0.000 C 
ATOM      3  O   UNL     1       3.064   7.618  18.024  0.00  0.00    +0.000 OA
ATOM      4  H   UNL     1       2.124   6.472  20.827  0.00  0.00    +0.000 HD
ENDROOT
BRANCH   2   5
ATOM      5  C   UNL     1       3.584   5.595  19.101  0.00  0.00    +0.000 A 
ATOM      6  N   UNL     1       4.898   5.473  19.381  0.00  0.00    +0.000 NA
ATOM      7  N   UNL     1       5.105   4.142  19.352  0.00  0.00    +0.000 N 
ATOM      8  C   UNL     1       3.994   3.398  19.057  0.00  0.00    +0.000 A 
ATOM      9  C   UNL     1       3.803   2.019  18.917  0.00  0.00    +0.000 A 
ATOM     10  C   UNL     1       2.512   1.579  18.599  0.00  0.00    +0.000 A 
ATOM     11  C   UNL     1       1.463   2.480  18.439  0.00  0.00    +0.000 A 
ATOM     12  C   UNL     1       1.676   3.856  18.586  0.00  0.00    +0.000 A 
ATOM     13  C   UNL     1       2.969   4.322  18.899  0.00  0.00    +0.000 A 
ATOM     14  H   UNL     1       6.038   3.795  19.539  0.00  0.00    +0.000 HD
ENDBRANCH   2   5
BRANCH   1  18
ATOM     15  C   UNL     1      -0.458  10.016  23.212  0.00  0.00    +0.000 C 
ATOM     16  C   UNL     1       0.166   9.909  21.847  0.00  0.00    +0.000 A 
ATOM     17  C   UNL     1       0.891   8.720  21.614  0.00  0.00    +0.000 A 
ATOM     18  C   UNL     1       1.445   8.404  20.375  0.00  0.00    +0.000 A 
ATOM     19  C   UNL     1       1.265   9.312  19.338  0.00  0.00    +0.000 A 
ATOM     20  C   UNL     1       0.565  10.512  19.554  0.00  0.00    +0.000 A 
ATOM     21  C   UNL     1       0.022  10.854  20.810  0.00  0.00    +0.000 A 
BRANCH  21  22
ATOM     22  N   UNL     1      -0.617  12.123  20.983  0.00  0.00    +0.000 N 
ATOM     23  C   UNL     1      -2.053  12.277  21.012  0.00  0.00    +0.000 C 
ATOM     24  C   UNL     1      -2.280  13.768  21.118  0.00  0.00    +0.000 C 
ATOM     25  C   UNL     1      -1.083  14.251  21.904  0.00  0.00    +0.000 C 
ATOM     26  C   UNL     1      -0.000  13.268  21.525  0.00  0.00    +0.000 C 
ATOM     27  O   UNL     1       1.188  13.485  21.714  0.00  0.00    +0.000 OA
ENDBRANCH  21  22
ENDBRANCH   1  18
TORSDOF 3
ENDMDL
MODEL 8
REMARK VINA RESULT:      -7.5      2.047      2.745
REMARK  Name = 
REMARK  4 active torsions:
REMARK  status: ('A' for Active; 'I' for Inactive)
REMARK    1  A    between atoms: C_1  and  C_2
REMARK    2  A    between atoms: C_4  and  N_5
REMARK    3  A    between atoms: C_6  and  C_8
REMARK    4  A    between atoms: C_19  and  N_20
REMARK                            x       y       z     vdW  Elec       q    Type
REMARK                         _______ _______ _______ _____ _____    ______ ____
ROOT
ATOM      1  N   UNL     1       2.535   7.132  19.819  0.00  0.00    +0.000 N 
ATOM      2  C   UNL     1       2.279   5.771  19.908  0.00  0.00    +0.000 C 
ATOM      3  O   UNL     1       1.337   5.255  20.501  0.00  0.00    +0.000 OA
ATOM      4  H   UNL     1       3.382   7.363  19.308  0.00  0.00    +0.000 HD
ENDROOT
BRANCH   2   5
ATOM      5  C   UNL     1       3.263   4.944  19.194  0.00  0.00    +0.000 A 
ATOM      6  N   UNL     1       3.573   3.690  19.584  0.00  0.00    +0.000 NA
ATOM      7  N   UNL     1       4.507   3.303  18.692  0.00  0.00    +0.000 N 
ATOM      8  C   UNL     1       4.824   4.247  17.753  0.00  0.00    +0.000 A 
ATOM      9  C   UNL     1       5.737   4.240  16.692  0.00  0.00    +0.000 A 
ATOM     10  C   UNL     1       5.819   5.397  15.907  0.00  0.00    +0.000 A 
ATOM     11  C   UNL     1       5.016   6.504  16.171  0.00  0.00    +0.000 A 
ATOM     12  C   UNL     1       4.108   6.489  17.237  0.00  0.00    +0.000 A 
ATOM     13  C   UNL     1       4.014   5.337  18.044  0.00  0.00    +0.000 A 
ATOM     14  H   UNL     1       4.900   2.374  18.780  0.00  0.00    +0.000 HD
ENDBRANCH   2   5
BRANCH   1  18
ATOM     15  C   UNL     1      -0.312  11.061  19.004  0.00  0.00    +0.000 C 
ATOM     16  C   UNL     1       0.274  10.137  20.038  0.00  0.00    +0.000 A 
ATOM     17  C   UNL     1       1.041   9.071  19.518  0.00  0.00    +0.000 A 
ATOM     18  C   UNL     1       1.745   8.183  20.329  0.00  0.00    +0.000 A 
ATOM     19  C   UNL     1       1.674   8.371  21.705  0.00  0.00    +0.000 A 
ATOM     20  C   UNL     1       0.898   9.413  22.244  0.00  0.00    +0.000 A 
ATOM     21  C   UNL     1       0.162  10.302  21.434  0.00  0.00    +0.000 A 
BRANCH  21  22
ATOM     22  N   UNL     1      -0.665  11.297  22.046  0.00  0.00    +0.000 N 
ATOM     23  C   UNL     1      -1.688  10.974  23.014  0.00  0.00    +0.000 C 
ATOM     24  C   UNL     1      -2.364  12.293  23.317  0.00  0.00    +0.000 C 
ATOM     25  C   UNL     1      -1.252  13.303  23.152  0.00  0.00    +0.000 C 
ATOM     26  C   UNL     1      -0.361  12.670  22.109  0.00  0.00    +0.000 C 
ATOM     27  O   UNL     1       0.482  13.301  21.486  0.00  0.00    +0.000 OA
ENDBRANCH  21  22
ENDBRANCH   1  18
TORSDOF 3
ENDMDL
MODEL 9
REMARK VINA RESULT:      -7.5      2.023      8.748
REMARK  Name = 
REMARK  4 active torsions:
REMARK  status: ('A' for Active; 'I' for Inactive)
REMARK    1  A    between atoms: C_1  and  C_2
REMARK    2  A    between atoms: C_4  and  N_5
REMARK    3  A    between atoms: C_6  and  C_8
REMARK    4  A    between atoms: C_19  and  N_20
REMARK                            x       y       z     vdW  Elec       q    Type
REMARK                         _______ _______ _______ _____ _____    ______ ____
ROOT
ATOM      1  N   UNL     1       1.028   8.926  18.832  0.00  0.00    +0.000 N 
ATOM      2  C   UNL     1       1.014  10.301  18.641  0.00  0.00    +0.000 C 
ATOM      3  O   UNL     1       1.965  10.984  18.272  0.00  0.00    +0.000 OA
ATOM      4  H   UNL     1       0.149   8.545  19.169  0.00  0.00    +0.000 HD
ENDROOT
BRANCH   2   5
ATOM      5  C   UNL     1      -0.293  10.916  18.917  0.00  0.00    +0.000 A 
ATOM      6  N   UNL     1      -0.503  11.725  19.977  0.00  0.00    +0.000 NA
ATOM      7  N   UNL     1      -1.806  12.049  19.873  0.00  0.00    +0.000 N 
ATOM      8  C   UNL     1      -2.452  11.483  18.807  0.00  0.00    +0.000 A 
ATOM      9  C   UNL     1      -3.781  11.557  18.373  0.00  0.00    +0.000 A 
ATOM     10  C   UNL     1      -4.121  10.836  17.221  0.00  0.00    +0.000 A 
ATOM     11  C   UNL     1      -3.169  10.087  16.534  0.00  0.00    +0.000 A 
ATOM     12  C   UNL     1      -1.845  10.029  16.985  0.00  0.00    +0.000 A 
ATOM     13  C   UNL     1      -1.483  10.740  18.147  0.00  0.00    +0.000 A 
ATOM     14  H   UNL     1      -2.206  12.665  20.572  0.00  0.00    +0.000 HD
ENDBRANCH   2   5
BRANCH   1  18
ATOM     15  C   UNL     1       3.424   4.773  19.932  0.00  0.00    +0.000 C 
ATOM     16  C   UNL     1       3.354   5.969  19.022  0.00  0.00    +0.000 A 
ATOM     17  C   UNL     1       2.263   6.834  19.258  0.00  0.00    +0.000 A 
ATOM     18  C   UNL     1       2.099   8.043  18.584  0.00  0.00    +0.000 A 
ATOM     19  C   UNL     1       3.061   8.392  17.644  0.00  0.00    +0.000 A 
ATOM     20  C   UNL     1       4.144   7.536  17.378  0.00  0.00    +0.000 A 
ATOM     21  C   UNL     1       4.306   6.299  18.036  0.00  0.00    +0.000 A 
BRANCH  21  22
ATOM     22  N   UNL     1       5.391   5.439  17.670  0.00  0.00    +0.000 N 
ATOM     23  C   UNL     1       5.647   5.044  16.303  0.00  0.00    +0.000 C 
ATOM     24  C   UNL     1       6.807   4.078  16.391  0.00  0.00    +0.000 C 
ATOM     25  C   UNL     1       7.591   4.578  17.582  0.00  0.00    +0.000 C 
ATOM     26  C   UNL     1       6.530   5.197  18.461  0.00  0.00    +0.000 C 
ATOM     27  O   UNL     1       6.712   5.447  19.644  0.00  0.00    +0.000 OA
ENDBRANCH  21  22
ENDBRANCH   1  18
TORSDOF 3
ENDMDL
