MODEL 1
REMARK VINA RESULT:      -8.6      0.000      0.000
REMARK  Name = 
REMARK  6 active torsions:
REMARK  status: ('A' for Active; 'I' for Inactive)
REMARK    1  A    between atoms: C_1  and  C_2
REMARK    2  A    between atoms: C_4  and  C_5
REMARK    3  A    between atoms: N_7  and  C_8
REMARK    4  A    between atoms: N_15  and  C_16
REMARK    5  A    between atoms: C_16  and  C_17
REMARK    6  A    between atoms: N_23  and  C_24
REMARK                            x       y       z     vdW  Elec       q    Type
REMARK                         _______ _______ _______ _____ _____    ______ ____
ROOT
ATOM      1  C   UNL     1       1.147   9.474  21.580  0.00  0.00    +0.000 C 
ATOM      2  O   UNL     1       1.841   9.178  22.549  0.00  0.00    +0.000 OA
ATOM      3  N   UNL     1       1.034   8.746  20.401  0.00  0.00    +0.000 N 
ATOM      4  H   UNL     1       0.517   9.209  19.663  0.00  0.00    +0.000 HD
ENDROOT
BRANCH   3   5
ATOM      5  C   UNL     1       1.634   7.492  20.141  0.00  0.00    +0.000 A 
ATOM      6  C   UNL     1       1.412   6.383  20.969  0.00  0.00    +0.000 A 
ATOM      7  C   UNL     1       1.987   5.148  20.693  0.00  0.00    +0.000 A 
ATOM      8  C   UNL     1       2.818   5.011  19.588  0.00  0.00    +0.000 A 
ATOM      9  C   UNL     1       3.092   6.107  18.757  0.00  0.00    +0.000 A 
ATOM     10  C   UNL     1       2.461   7.339  19.016  0.00  0.00    +0.000 A 
ATOM     11  C   UNL     1       3.985   5.857  17.556  0.00  0.00    +0.000 C 
ATOM     12  N   UNL     1       5.156   4.972  17.821  0.00  0.00    +0.000 NA
ATOM     13  C   UNL     1       4.898   3.934  18.846  0.00  0.00    +0.000 C 
ATOM     14  C   UNL     1       3.443   3.695  19.239  0.00  0.00    +0.000 C 
BRANCH  12  15
ATOM     15  C   UNL     1       5.619   4.383  16.534  0.00  0.00    +0.000 C 
BRANCH  15  16
ATOM     16  C   UNL     1       7.118   4.593  16.266  0.00  0.00    +0.000 C 
ATOM     17  N   UNL     1       7.962   4.319  17.300  0.00  0.00    +0.000 N 
ATOM     18  O   UNL     1       7.552   5.013  15.195  0.00  0.00    +0.000 OA
ATOM     19  H   UNL     1       7.611   3.807  18.101  0.00  0.00    +0.000 HD
ATOM     20  H   UNL     1       8.956   4.334  17.114  0.00  0.00    +0.000 HD
ENDBRANCH  15  16
ENDBRANCH  12  15
ENDBRANCH   3   5
BRANCH   1  24
ATOM     21  C   UNL     1      -1.085  13.783  20.136  0.00  0.00    +0.000 C 
ATOM     22  C   UNL     1      -0.644  12.585  20.897  0.00  0.00    +0.000 A 
ATOM     23  C   UNL     1       0.116  11.527  20.452  0.00  0.00    +0.000 A 
ATOM     24  C   UNL     1       0.381  10.730  21.587  0.00  0.00    +0.000 A 
ATOM     25  N   UNL     1      -0.144  11.277  22.697  0.00  0.00    +0.000 NA
ATOM     26  N   UNL     1      -0.854  12.357  22.250  0.00  0.00    +0.000 N 
BRANCH  26  27
ATOM     27  C   UNL     1      -1.695  13.059  23.155  0.00  0.00    +0.000 A 
ATOM     28  C   UNL     1      -2.982  12.572  23.417  0.00  0.00    +0.000 A 
ATOM     29  C   UNL     1      -3.819  13.253  24.304  0.00  0.00    +0.000 A 
ATOM     30  C   UNL     1      -3.390  14.435  24.906  0.00  0.00    +0.000 A 
ATOM     31  C   UNL     1      -2.122  14.941  24.621  0.00  0.00    +0.000 A 
ATOM     32  C   UNL     1      -1.274  14.254  23.751  0.00  0.00    +0.000 A 
ENDBRANCH  26  27
ENDBRANCH   1  24
TORSDOF 5
ENDMDL
MODEL 2
REMARK VINA RESULT:      -8.4      0.886      1.255
REMARK  Name = 
REMARK  6 active torsions:
REMARK  status: ('A' for Active; 'I' for Inactive)
REMARK    1  A    between atoms: C_1  and  C_2
REMARK    2  A    between atoms: C_4  and  C_5
REMARK    3  A    between atoms: N_7  and  C_8
REMARK    4  A    between atoms: N_15  and  C_16
REMARK    5  A    between atoms: C_16  and  C_17
REMARK    6  A    between atoms: N_23  and  C_24
REMARK                            x       y       z     vdW  Elec       q    Type
REMARK                         _______ _______ _______ _____ _____    ______ ____
ROOT
ATOM      1  C   UNL     1      -0.020   8.963  21.237  0.00  0.00    +0.000 C 
ATOM      2  O   UNL     1      -0.657   8.095  21.828  0.00  0.00    +0.000 OA
ATOM      3  N   UNL     1       1.126   8.762  20.476  0.00  0.00    +0.000 N 
ATOM      4  H   UNL     1       1.588   9.610  20.171  0.00  0.00    +0.000 HD
ENDROOT
BRANCH   3   5
ATOM      5  C   UNL     1       1.713   7.509  20.179  0.00  0.00    +0.000 A 
ATOM      6  C   UNL     1       1.494   6.383  20.983  0.00  0.00    +0.000 A 
ATOM      7  C   UNL     1       2.055   5.151  20.670  0.00  0.00    +0.000 A 
ATOM      8  C   UNL     1       2.870   5.033  19.551  0.00  0.00    +0.000 A 
ATOM      9  C   UNL     1       3.141   6.147  18.742  0.00  0.00    +0.000 A 
ATOM     10  C   UNL     1       2.523   7.377  19.038  0.00  0.00    +0.000 A 
ATOM     11  C   UNL     1       4.015   5.919  17.523  0.00  0.00    +0.000 C 
ATOM     12  N   UNL     1       5.182   5.019  17.750  0.00  0.00    +0.000 NA
ATOM     13  C   UNL     1       4.931   3.960  18.754  0.00  0.00    +0.000 C 
ATOM     14  C   UNL     1       3.480   3.722  19.162  0.00  0.00    +0.000 C 
BRANCH  12  15
ATOM     15  C   UNL     1       5.623   4.457  16.443  0.00  0.00    +0.000 C 
BRANCH  15  16
ATOM     16  C   UNL     1       7.114   4.684  16.147  0.00  0.00    +0.000 C 
ATOM     17  N   UNL     1       7.412   5.247  14.942  0.00  0.00    +0.000 N 
ATOM     18  O   UNL     1       8.007   4.355  16.925  0.00  0.00    +0.000 OA
ATOM     19  H   UNL     1       6.670   5.674  14.400  0.00  0.00    +0.000 HD
ATOM     20  H   UNL     1       8.372   5.515  14.772  0.00  0.00    +0.000 HD
ENDBRANCH  15  16
ENDBRANCH  12  15
ENDBRANCH   3   5
BRANCH   1  24
ATOM     21  C   UNL     1      -0.993  13.813  20.163  0.00  0.00    +0.000 C 
ATOM     22  C   UNL     1      -0.907  12.483  20.818  0.00  0.00    +0.000 A 
ATOM     23  C   UNL     1      -0.439  11.302  20.287  0.00  0.00    +0.000 A 
ATOM     24  C   UNL     1      -0.428  10.372  21.350  0.00  0.00    +0.000 A 
ATOM     25  N   UNL     1      -0.825  10.944  22.499  0.00  0.00    +0.000 NA
ATOM     26  N   UNL     1      -1.211  12.207  22.145  0.00  0.00    +0.000 N 
BRANCH  26  27
ATOM     27  C   UNL     1      -1.865  13.029  23.102  0.00  0.00    +0.000 A 
ATOM     28  C   UNL     1      -1.181  14.121  23.651  0.00  0.00    +0.000 A 
ATOM     29  C   UNL     1      -1.813  14.937  24.593  0.00  0.00    +0.000 A 
ATOM     30  C   UNL     1      -3.110  14.649  25.013  0.00  0.00    +0.000 A 
ATOM     31  C   UNL     1      -3.781  13.542  24.494  0.00  0.00    +0.000 A 
ATOM     32  C   UNL     1      -3.163  12.735  23.538  0.00  0.00    +0.000 A 
ENDBRANCH  26  27
ENDBRANCH   1  24
TORSDOF 5
ENDMDL
MODEL 3
REMARK VINA RESULT:      -8.3      7.286     10.780
REMARK  Name = 
REMARK  6 active torsions:
REMARK  status: ('A' for Active; 'I' for Inactive)
REMARK    1  A    between atoms: C_1  and  C_2
REMARK    2  A    between atoms: C_4  and  C_5
REMARK    3  A    between atoms: N_7  and  C_8
REMARK    4  A    between atoms: N_15  and  C_16
REMARK    5  A    between atoms: C_16  and  C_17
REMARK    6  A    between atoms: N_23  and  C_24
REMARK                            x       y       z     vdW  Elec       q    Type
REMARK                         _______ _______ _______ _____ _____    ______ ____
ROOT
ATOM      1  C   UNL     1       7.780   7.530  18.128  0.00  0.00    +0.000 C 
ATOM      2  O   UNL     1       8.571   7.074  18.950  0.00  0.00    +0.000 OA
ATOM      3  N   UNL     1       7.629   8.871  17.794  0.00  0.00    +0.000 N 
ATOM      4  H   UNL     1       6.839   9.073  17.192  0.00  0.00    +0.000 HD
ENDROOT
BRANCH   3   5
ATOM      5  C   UNL     1       8.419   9.939  18.280  0.00  0.00    +0.000 A 
ATOM      6  C   UNL     1       9.342   9.760  19.319  0.00  0.00    +0.000 A 
ATOM      7  C   UNL     1      10.130  10.810  19.774  0.00  0.00    +0.000 A 
ATOM      8  C   UNL     1       9.988  12.070  19.207  0.00  0.00    +0.000 A 
ATOM      9  C   UNL     1       9.049  12.296  18.189  0.00  0.00    +0.000 A 
ATOM     10  C   UNL     1       8.294  11.212  17.699  0.00  0.00    +0.000 A 
ATOM     11  C   UNL     1       8.985  13.695  17.606  0.00  0.00    +0.000 C 
ATOM     12  N   UNL     1       9.090  14.795  18.608  0.00  0.00    +0.000 NA
ATOM     13  C   UNL     1       9.940  14.460  19.773  0.00  0.00    +0.000 C 
ATOM     14  C   UNL     1      10.830  13.226  19.650  0.00  0.00    +0.000 C 
BRANCH  12  15
ATOM     15  C   UNL     1       9.545  16.035  17.921  0.00  0.00    +0.000 C 
BRANCH  15  16
ATOM     16  C   UNL     1      10.899  15.883  17.210  0.00  0.00    +0.000 C 
ATOM     17  N   UNL     1      10.859  15.751  15.854  0.00  0.00    +0.000 N 
ATOM     18  O   UNL     1      11.970  15.849  17.813  0.00  0.00    +0.000 OA
ATOM     19  H   UNL     1       9.997  15.964  15.363  0.00  0.00    +0.000 HD
ATOM     20  H   UNL     1      11.736  15.770  15.352  0.00  0.00    +0.000 HD
ENDBRANCH  15  16
ENDBRANCH  12  15
ENDBRANCH   3   5
BRANCH   1  24
ATOM     21  C   UNL     1       5.580   4.592  14.641  0.00  0.00    +0.000 C 
ATOM     22  C   UNL     1       5.942   5.290  15.902  0.00  0.00    +0.000 A 
ATOM     23  C   UNL     1       7.033   6.092  16.147  0.00  0.00    +0.000 A 
ATOM     24  C   UNL     1       6.843   6.629  17.439  0.00  0.00    +0.000 A 
ATOM     25  N   UNL     1       5.674   6.224  17.965  0.00  0.00    +0.000 NA
ATOM     26  N   UNL     1       5.177   5.326  17.061  0.00  0.00    +0.000 N 
BRANCH  26  27
ATOM     27  C   UNL     1       4.029   4.561  17.399  0.00  0.00    +0.000 A 
ATOM     28  C   UNL     1       4.121   3.164  17.436  0.00  0.00    +0.000 A 
ATOM     29  C   UNL     1       2.999   2.400  17.767  0.00  0.00    +0.000 A 
ATOM     30  C   UNL     1       1.778   3.022  18.028  0.00  0.00    +0.000 A 
ATOM     31  C   UNL     1       1.676   4.411  17.957  0.00  0.00    +0.000 A 
ATOM     32  C   UNL     1       2.797   5.180  17.648  0.00  0.00    +0.000 A 
ENDBRANCH  26  27
ENDBRANCH   1  24
TORSDOF 5
ENDMDL
MODEL 4
REMARK VINA RESULT:      -8.2      1.089      1.371
REMARK  Name = 
REMARK  6 active torsions:
REMARK  status: ('A' for Active; 'I' for Inactive)
REMARK    1  A    between atoms: C_1  and  C_2
REMARK    2  A    between atoms: C_4  and  C_5
REMARK    3  A    between atoms: N_7  and  C_8
REMARK    4  A    between atoms: N_15  and  C_16
REMARK    5  A    between atoms: C_16  and  C_17
REMARK    6  A    between atoms: N_23  and  C_24
REMARK                            x       y       z     vdW  Elec       q    Type
REMARK                         _______ _______ _______ _____ _____    ______ ____
ROOT
ATOM      1  C   UNL     1       1.063   9.577  21.622  0.00  0.00    +0.000 C 
ATOM      2  O   UNL     1       1.757   9.287  22.593  0.00  0.00    +0.000 OA
ATOM      3  N   UNL     1       0.997   8.875  20.424  0.00  0.00    +0.000 N 
ATOM      4  H   UNL     1       0.469   9.334  19.691  0.00  0.00    +0.000 HD
ENDROOT
BRANCH   3   5
ATOM      5  C   UNL     1       1.655   7.655  20.142  0.00  0.00    +0.000 A 
ATOM      6  C   UNL     1       1.533   6.540  20.982  0.00  0.00    +0.000 A 
ATOM      7  C   UNL     1       2.163   5.338  20.685  0.00  0.00    +0.000 A 
ATOM      8  C   UNL     1       2.951   5.241  19.544  0.00  0.00    +0.000 A 
ATOM      9  C   UNL     1       3.125   6.346  18.698  0.00  0.00    +0.000 A 
ATOM     10  C   UNL     1       2.438   7.543  18.981  0.00  0.00    +0.000 A 
ATOM     11  C   UNL     1       3.976   6.140  17.459  0.00  0.00    +0.000 C 
ATOM     12  N   UNL     1       5.205   5.323  17.673  0.00  0.00    +0.000 NA
ATOM     13  C   UNL     1       5.053   4.279  18.712  0.00  0.00    +0.000 C 
ATOM     14  C   UNL     1       3.632   3.961  19.172  0.00  0.00    +0.000 C 
BRANCH  12  15
ATOM     15  C   UNL     1       5.643   4.754  16.369  0.00  0.00    +0.000 C 
BRANCH  15  16
ATOM     16  C   UNL     1       7.166   4.783  16.164  0.00  0.00    +0.000 C 
ATOM     17  N   UNL     1       7.606   5.265  14.968  0.00  0.00    +0.000 N 
ATOM     18  O   UNL     1       7.960   4.370  17.007  0.00  0.00    +0.000 OA
ATOM     19  H   UNL     1       6.958   5.763  14.369  0.00  0.00    +0.000 HD
ATOM     20  H   UNL     1       8.601   5.405  14.854  0.00  0.00    +0.000 HD
ENDBRANCH  15  16
ENDBRANCH  12  15
ENDBRANCH   3   5
BRANCH   1  24
ATOM     21  C   UNL     1      -0.545  14.335  20.983  0.00  0.00    +0.000 C 
ATOM     22  C   UNL     1      -0.456  12.884  21.288  0.00  0.00    +0.000 A 
ATOM     23  C   UNL     1       0.592  12.025  21.044  0.00  0.00    +0.000 A 
ATOM     24  C   UNL     1       0.243  10.799  21.650  0.00  0.00    +0.000 A 
ATOM     25  N   UNL     1      -0.940  10.888  22.282  0.00  0.00    +0.000 NA
ATOM     26  N   UNL     1      -1.407  12.135  21.971  0.00  0.00    +0.000 N 
BRANCH  26  27
ATOM     27  C   UNL     1      -2.735  12.491  22.330  0.00  0.00    +0.000 A 
ATOM     28  C   UNL     1      -3.686  12.700  21.323  0.00  0.00    +0.000 A 
ATOM     29  C   UNL     1      -4.995  13.050  21.663  0.00  0.00    +0.000 A 
ATOM     30  C   UNL     1      -5.351  13.224  23.000  0.00  0.00    +0.000 A 
ATOM     31  C   UNL     1      -4.397  13.049  24.002  0.00  0.00    +0.000 A 
ATOM     32  C   UNL     1      -3.093  12.680  23.671  0.00  0.00    +0.000 A 
ENDBRANCH  26  27
ENDBRANCH   1  24
TORSDOF 5
ENDMDL
MODEL 5
REMARK VINA RESULT:      -8.2      7.281     10.889
REMARK  Name = 
REMARK  6 active torsions:
REMARK  status: ('A' for Active; 'I' for Inactive)
REMARK    1  A    between atoms: C_1  and  C_2
REMARK    2  A    between atoms: C_4  and  C_5
REMARK    3  A    between atoms: N_7  and  C_8
REMARK    4  A    between atoms: N_15  and  C_16
REMARK    5  A    between atoms: C_16  and  C_17
REMARK    6  A    between atoms: N_23  and  C_24
REMARK                            x       y       z     vdW  Elec       q    Type
REMARK                         _______ _______ _______ _____ _____    ______ ____
ROOT
ATOM      1  C   UNL     1       7.859   7.317  18.372  0.00  0.00    +0.000 C 
ATOM      2  O   UNL     1       8.559   6.810  19.245  0.00  0.00    +0.000 OA
ATOM      3  N   UNL     1       7.834   8.662  18.022  0.00  0.00    +0.000 N 
ATOM      4  H   UNL     1       7.102   8.919  17.370  0.00  0.00    +0.000 HD
ENDROOT
BRANCH   3   5
ATOM      5  C   UNL     1       8.671   9.672  18.554  0.00  0.00    +0.000 A 
ATOM      6  C   UNL     1       8.966   9.740  19.922  0.00  0.00    +0.000 A 
ATOM      7  C   UNL     1       9.807  10.721  20.432  0.00  0.00    +0.000 A 
ATOM      8  C   UNL     1      10.353  11.670  19.575  0.00  0.00    +0.000 A 
ATOM      9  C   UNL     1      10.052  11.654  18.205  0.00  0.00    +0.000 A 
ATOM     10  C   UNL     1       9.241  10.623  17.692  0.00  0.00    +0.000 A 
ATOM     11  C   UNL     1      10.717  12.708  17.340  0.00  0.00    +0.000 C 
ATOM     12  N   UNL     1      10.775  14.069  17.947  0.00  0.00    +0.000 NA
ATOM     13  C   UNL     1      10.903  14.059  19.422  0.00  0.00    +0.000 C 
ATOM     14  C   UNL     1      11.282  12.732  20.075  0.00  0.00    +0.000 C 
BRANCH  12  15
ATOM     15  C   UNL     1      11.867  14.844  17.296  0.00  0.00    +0.000 C 
BRANCH  15  16
ATOM     16  C   UNL     1      11.486  16.299  16.979  0.00  0.00    +0.000 C 
ATOM     17  N   UNL     1      12.331  17.261  17.445  0.00  0.00    +0.000 N 
ATOM     18  O   UNL     1      10.463  16.603  16.367  0.00  0.00    +0.000 OA
ATOM     19  H   UNL     1      13.248  16.991  17.781  0.00  0.00    +0.000 HD
ATOM     20  H   UNL     1      12.168  18.215  17.150  0.00  0.00    +0.000 HD
ENDBRANCH  15  16
ENDBRANCH  12  15
ENDBRANCH   3   5
BRANCH   1  24
ATOM     21  C   UNL     1       5.585   4.672  14.703  0.00  0.00    +0.000 C 
ATOM     22  C   UNL     1       5.967   5.273  16.007  0.00  0.00    +0.000 A 
ATOM     23  C   UNL     1       7.074   6.036  16.300  0.00  0.00    +0.000 A 
ATOM     24  C   UNL     1       6.901   6.484  17.629  0.00  0.00    +0.000 A 
ATOM     25  N   UNL     1       5.728   6.065  18.133  0.00  0.00    +0.000 NA
ATOM     26  N   UNL     1       5.210   5.242  17.172  0.00  0.00    +0.000 N 
BRANCH  26  27
ATOM     27  C   UNL     1       4.049   4.476  17.463  0.00  0.00    +0.000 A 
ATOM     28  C   UNL     1       2.850   5.134  17.766  0.00  0.00    +0.000 A 
ATOM     29  C   UNL     1       1.702   4.393  18.054  0.00  0.00    +0.000 A 
ATOM     30  C   UNL     1       1.752   3.000  18.075  0.00  0.00    +0.000 A 
ATOM     31  C   UNL     1       2.953   2.343  17.808  0.00  0.00    +0.000 A 
ATOM     32  C   UNL     1       4.098   3.077  17.499  0.00  0.00    +0.000 A 
ENDBRANCH  26  27
ENDBRANCH   1  24
TORSDOF 5
ENDMDL
MODEL 6
REMARK VINA RESULT:      -8.1      1.500      2.799
REMARK  Name = 
REMARK  6 active torsions:
REMARK  status: ('A' for Active; 'I' for Inactive)
REMARK    1  A    between atoms: C_1  and  C_2
REMARK    2  A    between atoms: C_4  and  C_5
REMARK    3  A    between atoms: N_7  and  C_8
REMARK    4  A    between atoms: N_15  and  C_16
REMARK    5  A    between atoms: C_16  and  C_17
REMARK    6  A    between atoms: N_23  and  C_24
REMARK                            x       y       z     vdW  Elec       q    Type
REMARK                         _______ _______ _______ _____ _____    ______ ____
ROOT
ATOM      1  C   UNL     1       0.065   8.932  21.320  0.00  0.00    +0.000 C 
ATOM      2  O   UNL     1      -0.693   8.071  21.758  0.00  0.00    +0.000 OA
ATOM      3  N   UNL     1       1.252   8.705  20.632  0.00  0.00    +0.000 N 
ATOM      4  H   UNL     1       1.810   9.534  20.461  0.00  0.00    +0.000 HD
ENDROOT
BRANCH   3   5
ATOM      5  C   UNL     1       1.754   7.441  20.242  0.00  0.00    +0.000 A 
ATOM      6  C   UNL     1       1.423   6.271  20.937  0.00  0.00    +0.000 A 
ATOM      7  C   UNL     1       1.902   5.030  20.533  0.00  0.00    +0.000 A 
ATOM      8  C   UNL     1       2.744   4.947  19.430  0.00  0.00    +0.000 A 
ATOM      9  C   UNL     1       3.124   6.101  18.730  0.00  0.00    +0.000 A 
ATOM     10  C   UNL     1       2.590   7.346  19.117  0.00  0.00    +0.000 A 
ATOM     11  C   UNL     1       4.020   5.912  17.520  0.00  0.00    +0.000 C 
ATOM     12  N   UNL     1       5.108   4.908  17.699  0.00  0.00    +0.000 NA
ATOM     13  C   UNL     1       4.745   3.790  18.598  0.00  0.00    +0.000 C 
ATOM     14  C   UNL     1       3.267   3.630  18.944  0.00  0.00    +0.000 C 
BRANCH  12  15
ATOM     15  C   UNL     1       5.551   4.429  16.361  0.00  0.00    +0.000 C 
BRANCH  15  16
ATOM     16  C   UNL     1       7.046   4.656  16.088  0.00  0.00    +0.000 C 
ATOM     17  N   UNL     1       7.364   5.219  14.888  0.00  0.00    +0.000 N 
ATOM     18  O   UNL     1       7.927   4.327  16.881  0.00  0.00    +0.000 OA
ATOM     19  H   UNL     1       6.630   5.646  14.334  0.00  0.00    +0.000 HD
ATOM     20  H   UNL     1       8.326   5.487  14.734  0.00  0.00    +0.000 HD
ENDBRANCH  15  16
ENDBRANCH  12  15
ENDBRANCH   3   5
BRANCH   1  24
ATOM     21  C   UNL     1      -1.594  13.241  23.396  0.00  0.00    +0.000 C 
ATOM     22  C   UNL     1      -0.916  12.234  22.540  0.00  0.00    +0.000 A 
ATOM     23  C   UNL     1      -0.859  10.870  22.713  0.00  0.00    +0.000 A 
ATOM     24  C   UNL     1      -0.229  10.354  21.559  0.00  0.00    +0.000 A 
ATOM     25  N   UNL     1       0.057  11.332  20.684  0.00  0.00    +0.000 NA
ATOM     26  N   UNL     1      -0.274  12.489  21.334  0.00  0.00    +0.000 N 
BRANCH  26  27
ATOM     27  C   UNL     1       0.078  13.738  20.756  0.00  0.00    +0.000 A 
ATOM     28  C   UNL     1       1.072  14.519  21.360  0.00  0.00    +0.000 A 
ATOM     29  C   UNL     1       1.428  15.749  20.802  0.00  0.00    +0.000 A 
ATOM     30  C   UNL     1       0.775  16.218  19.663  0.00  0.00    +0.000 A 
ATOM     31  C   UNL     1      -0.238  15.458  19.079  0.00  0.00    +0.000 A 
ATOM     32  C   UNL     1      -0.584  14.220  19.620  0.00  0.00    +0.000 A 
ENDBRANCH  26  27
ENDBRANCH   1  24
TORSDOF 5
ENDMDL
MODEL 7
REMARK VINA RESULT:      -8.0      7.263     10.935
REMARK  Name = 
REMARK  6 active torsions:
REMARK  status: ('A' for Active; 'I' for Inactive)
REMARK    1  A    between atoms: C_1  and  C_2
REMARK    2  A    between atoms: C_4  and  C_5
REMARK    3  A    between atoms: N_7  and  C_8
REMARK    4  A    between atoms: N_15  and  C_16
REMARK    5  A    between atoms: C_16  and  C_17
REMARK    6  A    between atoms: N_23  and  C_24
REMARK                            x       y       z     vdW  Elec       q    Type
REMARK                         _______ _______ _______ _____ _____    ______ ____
ROOT
ATOM      1  C   UNL     1       7.722   7.470  18.076  0.00  0.00    +0.000 C 
ATOM      2  O   UNL     1       8.523   7.054  18.909  0.00  0.00    +0.000 OA
ATOM      3  N   UNL     1       7.540   8.798  17.707  0.00  0.00    +0.000 N 
ATOM      4  H   UNL     1       6.745   8.966  17.101  0.00  0.00    +0.000 HD
ENDROOT
BRANCH   3   5
ATOM      5  C   UNL     1       8.304   9.897  18.166  0.00  0.00    +0.000 A 
ATOM      6  C   UNL     1       9.272   9.754  19.168  0.00  0.00    +0.000 A 
ATOM      7  C   UNL     1      10.035  10.834  19.596  0.00  0.00    +0.000 A 
ATOM      8  C   UNL     1       9.821  12.089  19.036  0.00  0.00    +0.000 A 
ATOM      9  C   UNL     1       8.836  12.277  18.055  0.00  0.00    +0.000 A 
ATOM     10  C   UNL     1       8.107  11.164  17.592  0.00  0.00    +0.000 A 
ATOM     11  C   UNL     1       8.695  13.673  17.479  0.00  0.00    +0.000 C 
ATOM     12  N   UNL     1       8.793  14.776  18.478  0.00  0.00    +0.000 NA
ATOM     13  C   UNL     1       9.700  14.474  19.609  0.00  0.00    +0.000 C 
ATOM     14  C   UNL     1      10.633  13.277  19.449  0.00  0.00    +0.000 C 
BRANCH  12  15
ATOM     15  C   UNL     1       9.173  16.033  17.777  0.00  0.00    +0.000 C 
BRANCH  15  16
ATOM     16  C   UNL     1       8.628  17.303  18.451  0.00  0.00    +0.000 C 
ATOM     17  N   UNL     1       9.537  18.072  19.115  0.00  0.00    +0.000 N 
ATOM     18  O   UNL     1       7.438  17.610  18.433  0.00  0.00    +0.000 OA
ATOM     19  H   UNL     1      10.526  17.905  18.966  0.00  0.00    +0.000 HD
ATOM     20  H   UNL     1       9.229  18.969  19.464  0.00  0.00    +0.000 HD
ENDBRANCH  15  16
ENDBRANCH  12  15
ENDBRANCH   3   5
BRANCH   1  24
ATOM     21  C   UNL     1       5.621   4.349  14.689  0.00  0.00    +0.000 C 
ATOM     22  C   UNL     1       5.949   5.110  15.922  0.00  0.00    +0.000 A 
ATOM     23  C   UNL     1       7.030   5.931  16.152  0.00  0.00    +0.000 A 
ATOM     24  C   UNL     1       6.806   6.530  17.411  0.00  0.00    +0.000 A 
ATOM     25  N   UNL     1       5.627   6.145  17.929  0.00  0.00    +0.000 NA
ATOM     26  N   UNL     1       5.157   5.200  17.059  0.00  0.00    +0.000 N 
BRANCH  26  27
ATOM     27  C   UNL     1       4.004   4.445  17.408  0.00  0.00    +0.000 A 
ATOM     28  C   UNL     1       2.809   5.113  17.701  0.00  0.00    +0.000 A 
ATOM     29  C   UNL     1       1.669   4.383  18.045  0.00  0.00    +0.000 A 
ATOM     30  C   UNL     1       1.725   2.993  18.130  0.00  0.00    +0.000 A 
ATOM     31  C   UNL     1       2.923   2.328  17.872  0.00  0.00    +0.000 A 
ATOM     32  C   UNL     1       4.060   3.050  17.508  0.00  0.00    +0.000 A 
ENDBRANCH  26  27
ENDBRANCH   1  24
TORSDOF 5
ENDMDL
MODEL 8
REMARK VINA RESULT:      -8.0      1.549      1.767
REMARK  Name = 
REMARK  6 active torsions:
REMARK  status: ('A' for Active; 'I' for Inactive)
REMARK    1  A    between atoms: C_1  and  C_2
REMARK    2  A    between atoms: C_4  and  C_5
REMARK    3  A    between atoms: N_7  and  C_8
REMARK    4  A    between atoms: N_15  and  C_16
REMARK    5  A    between atoms: C_16  and  C_17
REMARK    6  A    between atoms: N_23  and  C_24
REMARK                            x       y       z     vdW  Elec       q    Type
REMARK                         _______ _______ _______ _____ _____    ______ ____
ROOT
ATOM      1  C   UNL     1       1.026   9.397  19.579  0.00  0.00    +0.000 C 
ATOM      2  O   UNL     1       1.076   9.390  18.352  0.00  0.00    +0.000 OA
ATOM      3  N   UNL     1       1.379   8.347  20.419  0.00  0.00    +0.000 N 
ATOM      4  H   UNL     1       1.149   8.488  21.396  0.00  0.00    +0.000 HD
ENDROOT
BRANCH   3   5
ATOM      5  C   UNL     1       1.937   7.113  20.011  0.00  0.00    +0.000 A 
ATOM      6  C   UNL     1       1.661   5.919  20.691  0.00  0.00    +0.000 A 
ATOM      7  C   UNL     1       2.195   4.707  20.269  0.00  0.00    +0.000 A 
ATOM      8  C   UNL     1       3.039   4.677  19.165  0.00  0.00    +0.000 A 
ATOM      9  C   UNL     1       3.365   5.857  18.481  0.00  0.00    +0.000 A 
ATOM     10  C   UNL     1       2.775   7.070  18.885  0.00  0.00    +0.000 A 
ATOM     11  C   UNL     1       4.267   5.724  17.268  0.00  0.00    +0.000 C 
ATOM     12  N   UNL     1       5.400   4.769  17.432  0.00  0.00    +0.000 NA
ATOM     13  C   UNL     1       5.089   3.623  18.317  0.00  0.00    +0.000 C 
ATOM     14  C   UNL     1       3.620   3.392  18.661  0.00  0.00    +0.000 C 
BRANCH  12  15
ATOM     15  C   UNL     1       5.862   4.328  16.087  0.00  0.00    +0.000 C 
BRANCH  15  16
ATOM     16  C   UNL     1       6.903   5.266  15.455  0.00  0.00    +0.000 C 
ATOM     17  N   UNL     1       7.116   5.118  14.117  0.00  0.00    +0.000 N 
ATOM     18  O   UNL     1       7.542   6.090  16.106  0.00  0.00    +0.000 OA
ATOM     19  H   UNL     1       6.461   4.571  13.571  0.00  0.00    +0.000 HD
ATOM     20  H   UNL     1       7.705   5.798  13.656  0.00  0.00    +0.000 HD
ENDBRANCH  15  16
ENDBRANCH  12  15
ENDBRANCH   3   5
BRANCH   1  24
ATOM     21  C   UNL     1       0.588  14.025  21.585  0.00  0.00    +0.000 C 
ATOM     22  C   UNL     1       0.323  12.649  21.090  0.00  0.00    +0.000 A 
ATOM     23  C   UNL     1       1.164  11.825  20.378  0.00  0.00    +0.000 A 
ATOM     24  C   UNL     1       0.504  10.580  20.281  0.00  0.00    +0.000 A 
ATOM     25  N   UNL     1      -0.670  10.601  20.935  0.00  0.00    +0.000 NA
ATOM     26  N   UNL     1      -0.819  11.899  21.341  0.00  0.00    +0.000 N 
BRANCH  26  27
ATOM     27  C   UNL     1      -2.055  12.314  21.907  0.00  0.00    +0.000 A 
ATOM     28  C   UNL     1      -2.968  13.026  21.118  0.00  0.00    +0.000 A 
ATOM     29  C   UNL     1      -4.186  13.439  21.663  0.00  0.00    +0.000 A 
ATOM     30  C   UNL     1      -4.483  13.174  22.999  0.00  0.00    +0.000 A 
ATOM     31  C   UNL     1      -3.561  12.495  23.796  0.00  0.00    +0.000 A 
ATOM     32  C   UNL     1      -2.352  12.062  23.252  0.00  0.00    +0.000 A 
ENDBRANCH  26  27
ENDBRANCH   1  24
TORSDOF 5
ENDMDL
MODEL 9
REMARK VINA RESULT:      -8.0      2.442      3.457
REMARK  Name = 
REMARK  6 active torsions:
REMARK  status: ('A' for Active; 'I' for Inactive)
REMARK    1  A    between atoms: C_1  and  C_2
REMARK    2  A    between atoms: C_4  and  C_5
REMARK    3  A    between atoms: N_7  and  C_8
REMARK    4  A    between atoms: N_15  and  C_16
REMARK    5  A    between atoms: C_16  and  C_17
REMARK    6  A    between atoms: N_23  and  C_24
REMARK                            x       y       z     vdW  Elec       q    Type
REMARK                         _______ _______ _______ _____ _____    ______ ____
ROOT
ATOM      1  C   UNL     1       0.648  11.663  21.134  0.00  0.00    +0.000 C 
ATOM      2  O   UNL     1       1.805  12.070  21.075  0.00  0.00    +0.000 OA
ATOM      3  N   UNL     1       0.154  10.511  20.534  0.00  0.00    +0.000 N 
ATOM      4  H   UNL     1      -0.853  10.403  20.583  0.00  0.00    +0.000 HD
ENDROOT
BRANCH   3   5
ATOM      5  C   UNL     1       0.916   9.558  19.817  0.00  0.00    +0.000 A 
ATOM      6  C   UNL     1       1.361   9.802  18.511  0.00  0.00    +0.000 A 
ATOM      7  C   UNL     1       2.129   8.871  17.823  0.00  0.00    +0.000 A 
ATOM      8  C   UNL     1       2.447   7.662  18.430  0.00  0.00    +0.000 A 
ATOM      9  C   UNL     1       1.991   7.368  19.723  0.00  0.00    +0.000 A 
ATOM     10  C   UNL     1       1.258   8.342  20.430  0.00  0.00    +0.000 A 
ATOM     11  C   UNL     1       2.413   6.038  20.319  0.00  0.00    +0.000 C 
ATOM     12  N   UNL     1       2.373   4.888  19.371  0.00  0.00    +0.000 NA
ATOM     13  C   UNL     1       2.676   5.260  17.970  0.00  0.00    +0.000 C 
ATOM     14  C   UNL     1       3.291   6.637  17.737  0.00  0.00    +0.000 C 
BRANCH  12  15
ATOM     15  C   UNL     1       3.276   3.815  19.872  0.00  0.00    +0.000 C 
BRANCH  15  16
ATOM     16  C   UNL     1       3.016   2.442  19.233  0.00  0.00    +0.000 C 
ATOM     17  N   UNL     1       4.085   1.838  18.641  0.00  0.00    +0.000 N 
ATOM     18  O   UNL     1       1.906   1.913  19.216  0.00  0.00    +0.000 OA
ATOM     19  H   UNL     1       5.016   2.196  18.822  0.00  0.00    +0.000 HD
ATOM     20  H   UNL     1       3.970   0.887  18.320  0.00  0.00    +0.000 HD
ENDBRANCH  15  16
ENDBRANCH  12  15
ENDBRANCH   3   5
BRANCH   1  24
ATOM     21  C   UNL     1      -1.726  15.412  23.571  0.00  0.00    +0.000 C 
ATOM     22  C   UNL     1      -1.401  14.151  22.857  0.00  0.00    +0.000 A 
ATOM     23  C   UNL     1      -0.217  13.798  22.249  0.00  0.00    +0.000 A 
ATOM     24  C   UNL     1      -0.368  12.452  21.849  0.00  0.00    +0.000 A 
ATOM     25  N   UNL     1      -1.563  11.966  22.222  0.00  0.00    +0.000 NA
ATOM     26  N   UNL     1      -2.227  13.040  22.748  0.00  0.00    +0.000 N 
BRANCH  26  27
ATOM     27  C   UNL     1      -3.605  12.915  23.074  0.00  0.00    +0.000 A 
ATOM     28  C   UNL     1      -3.971  12.485  24.356  0.00  0.00    +0.000 A 
ATOM     29  C   UNL     1      -5.322  12.358  24.689  0.00  0.00    +0.000 A 
ATOM     30  C   UNL     1      -6.307  12.625  23.739  0.00  0.00    +0.000 A 
ATOM     31  C   UNL     1      -5.944  13.020  22.452  0.00  0.00    +0.000 A 
ATOM     32  C   UNL     1      -4.598  13.169  22.119  0.00  0.00    +0.000 A 
ENDBRANCH  26  27
ENDBRANCH   1  24
TORSDOF 5
ENDMDL
