MODEL 1
REMARK VINA RESULT:      -9.1      0.000      0.000
REMARK  Name = 
REMARK  7 active torsions:
REMARK  status: ('A' for Active; 'I' for Inactive)
REMARK    1  A    between atoms: C_1  and  C_2
REMARK    2  A    between atoms: C_6  and  C_7
REMARK    3  A    between atoms: N_9  and  C_10
REMARK    4  A    between atoms: C_13  and  O_14
REMARK    5  A    between atoms: O_14  and  C_15
REMARK    6  A    between atoms: C_15  and  C_16
REMARK    7  A    between atoms: N_18  and  C_19
REMARK                            x       y       z     vdW  Elec       q    Type
REMARK                         _______ _______ _______ _____ _____    ______ ____
ROOT
ATOM      1  C   UNL     1       7.864   7.163  18.309  0.00  0.00    +0.000 A 
ATOM      2  C   UNL     1       7.148   7.250  17.111  0.00  0.00    +0.000 A 
ATOM      3  C   UNL     1       6.280   6.225  16.704  0.00  0.00    +0.000 A 
ATOM      4  C   UNL     1       6.118   5.086  17.488  0.00  0.00    +0.000 A 
ATOM      5  C   UNL     1       6.844   4.983  18.676  0.00  0.00    +0.000 A 
ATOM      6  C   UNL     1       7.724   6.002  19.076  0.00  0.00    +0.000 A 
ENDROOT
BRANCH   1   9
ATOM      7  C   UNL     1       8.618   9.535  18.423  0.00  0.00    +0.000 C 
ATOM      8  O   UNL     1       7.789  10.016  17.658  0.00  0.00    +0.000 OA
ATOM      9  N   UNL     1       8.710   8.198  18.788  0.00  0.00    +0.000 N 
ATOM     10  H   UNL     1       9.316   7.966  19.561  0.00  0.00    +0.000 HD
BRANCH   7  16
ATOM     11  C   UNL     1       9.522  12.617  22.225  0.00  0.00    +0.000 C 
ATOM     12  C   UNL     1       9.976  12.020  20.926  0.00  0.00    +0.000 A 
ATOM     13  C   UNL     1      11.172  12.410  20.318  0.00  0.00    +0.000 A 
ATOM     14  C   UNL     1      11.565  11.848  19.098  0.00  0.00    +0.000 A 
ATOM     15  C   UNL     1      10.766  10.884  18.469  0.00  0.00    +0.000 A 
ATOM     16  C   UNL     1       9.570  10.485  19.068  0.00  0.00    +0.000 A 
ATOM     17  C   UNL     1       9.181  11.055  20.290  0.00  0.00    +0.000 A 
ENDBRANCH   7  16
ENDBRANCH   1   9
BRANCH   4  18
ATOM     18  O   UNL     1       5.257   4.052  17.220  0.00  0.00    +0.000 OA
BRANCH  18  19
ATOM     19  C   UNL     1       4.247   3.833  18.201  0.00  0.00    +0.000 C 
BRANCH  19  20
ATOM     20  C   UNL     1       3.130   4.883  18.189  0.00  0.00    +0.000 C 
ATOM     21  O   UNL     1       2.056   4.615  17.654  0.00  0.00    +0.000 OA
ATOM     22  N   UNL     1       3.474   6.098  18.760  0.00  0.00    +0.000 N 
ATOM     23  H   UNL     1       4.447   6.193  19.035  0.00  0.00    +0.000 HD
BRANCH  22  24
ATOM     24  C   UNL     1       2.639   7.231  18.897  0.00  0.00    +0.000 A 
ATOM     25  C   UNL     1       2.430   8.158  17.854  0.00  0.00    +0.000 A 
ATOM     26  C   UNL     1       1.621   9.287  18.028  0.00  0.00    +0.000 A 
ATOM     27  C   UNL     1       1.017   9.456  19.250  0.00  0.00    +0.000 A 
ATOM     28  C   UNL     1       1.189   8.549  20.268  0.00  0.00    +0.000 A 
ATOM     29  C   UNL     1       1.989   7.429  20.125  0.00  0.00    +0.000 A 
ATOM     30  O   UNL     1       0.491   8.897  21.385  0.00  0.00    +0.000 OA
ATOM     31  C   UNL     1      -0.206  10.072  20.914  0.00  0.00    +0.000 C 
ATOM     32  O   UNL     1       0.201  10.486  19.595  0.00  0.00    +0.000 OA
ENDBRANCH  22  24
ENDBRANCH  19  20
ENDBRANCH  18  19
ENDBRANCH   4  18
TORSDOF 6
ENDMDL
MODEL 2
REMARK VINA RESULT:      -9.0      0.609      1.641
REMARK  Name = 
REMARK  7 active torsions:
REMARK  status: ('A' for Active; 'I' for Inactive)
REMARK    1  A    between atoms: C_1  and  C_2
REMARK    2  A    between atoms: C_6  and  C_7
REMARK    3  A    between atoms: N_9  and  C_10
REMARK    4  A    between atoms: C_13  and  O_14
REMARK    5  A    between atoms: O_14  and  C_15
REMARK    6  A    between atoms: C_15  and  C_16
REMARK    7  A    between atoms: N_18  and  C_19
REMARK                            x       y       z     vdW  Elec       q    Type
REMARK                         _______ _______ _______ _____ _____    ______ ____
ROOT
ATOM      1  C   UNL     1       7.945   7.226  18.464  0.00  0.00    +0.000 A 
ATOM      2  C   UNL     1       7.895   6.046  19.211  0.00  0.00    +0.000 A 
ATOM      3  C   UNL     1       7.070   4.976  18.832  0.00  0.00    +0.000 A 
ATOM      4  C   UNL     1       6.269   5.072  17.697  0.00  0.00    +0.000 A 
ATOM      5  C   UNL     1       6.298   6.255  16.956  0.00  0.00    +0.000 A 
ATOM      6  C   UNL     1       7.113   7.331  17.345  0.00  0.00    +0.000 A 
ENDROOT
BRANCH   1   9
ATOM      7  C   UNL     1       8.630   9.618  18.338  0.00  0.00    +0.000 C 
ATOM      8  O   UNL     1       7.707  10.025  17.641  0.00  0.00    +0.000 OA
ATOM      9  N   UNL     1       8.804   8.312  18.778  0.00  0.00    +0.000 N 
ATOM     10  H   UNL     1       9.499   8.148  19.491  0.00  0.00    +0.000 HD
BRANCH   7  16
ATOM     11  C   UNL     1      12.035  13.031  17.103  0.00  0.00    +0.000 C 
ATOM     12  C   UNL     1      11.311  12.278  18.178  0.00  0.00    +0.000 A 
ATOM     13  C   UNL     1      11.618  12.452  19.530  0.00  0.00    +0.000 A 
ATOM     14  C   UNL     1      10.937  11.726  20.512  0.00  0.00    +0.000 A 
ATOM     15  C   UNL     1       9.934  10.814  20.157  0.00  0.00    +0.000 A 
ATOM     16  C   UNL     1       9.616  10.633  18.809  0.00  0.00    +0.000 A 
ATOM     17  C   UNL     1      10.306  11.363  17.829  0.00  0.00    +0.000 A 
ENDBRANCH   7  16
ENDBRANCH   1   9
BRANCH   4  18
ATOM     18  O   UNL     1       5.470   4.073  17.200  0.00  0.00    +0.000 OA
BRANCH  18  19
ATOM     19  C   UNL     1       4.372   3.704  18.029  0.00  0.00    +0.000 C 
BRANCH  19  20
ATOM     20  C   UNL     1       3.243   4.741  18.064  0.00  0.00    +0.000 C 
ATOM     21  O   UNL     1       2.189   4.506  17.475  0.00  0.00    +0.000 OA
ATOM     22  N   UNL     1       3.553   5.910  18.739  0.00  0.00    +0.000 N 
ATOM     23  H   UNL     1       4.516   5.992  19.052  0.00  0.00    +0.000 HD
BRANCH  22  24
ATOM     24  C   UNL     1       2.701   7.021  18.939  0.00  0.00    +0.000 A 
ATOM     25  C   UNL     1       2.420   7.960  17.925  0.00  0.00    +0.000 A 
ATOM     26  C   UNL     1       1.595   9.067  18.160  0.00  0.00    +0.000 A 
ATOM     27  C   UNL     1       1.048   9.200  19.412  0.00  0.00    +0.000 A 
ATOM     28  C   UNL     1       1.291   8.280  20.403  0.00  0.00    +0.000 A 
ATOM     29  C   UNL     1       2.108   7.181  20.200  0.00  0.00    +0.000 A 
ATOM     30  O   UNL     1       0.641   8.591  21.559  0.00  0.00    +0.000 OA
ATOM     31  C   UNL     1      -0.104   9.758  21.146  0.00  0.00    +0.000 C 
ATOM     32  O   UNL     1       0.227  10.205  19.817  0.00  0.00    +0.000 OA
ENDBRANCH  22  24
ENDBRANCH  19  20
ENDBRANCH  18  19
ENDBRANCH   4  18
TORSDOF 6
ENDMDL
MODEL 3
REMARK VINA RESULT:      -8.7      0.746      1.275
REMARK  Name = 
REMARK  7 active torsions:
REMARK  status: ('A' for Active; 'I' for Inactive)
REMARK    1  A    between atoms: C_1  and  C_2
REMARK    2  A    between atoms: C_6  and  C_7
REMARK    3  A    between atoms: N_9  and  C_10
REMARK    4  A    between atoms: C_13  and  O_14
REMARK    5  A    between atoms: O_14  and  C_15
REMARK    6  A    between atoms: C_15  and  C_16
REMARK    7  A    between atoms: N_18  and  C_19
REMARK                            x       y       z     vdW  Elec       q    Type
REMARK                         _______ _______ _______ _____ _____    ______ ____
ROOT
ATOM      1  C   UNL     1       8.041   7.158  18.434  0.00  0.00    +0.000 A 
ATOM      2  C   UNL     1       7.493   7.131  17.148  0.00  0.00    +0.000 A 
ATOM      3  C   UNL     1       6.679   6.069  16.723  0.00  0.00    +0.000 A 
ATOM      4  C   UNL     1       6.404   5.006  17.580  0.00  0.00    +0.000 A 
ATOM      5  C   UNL     1       6.962   5.016  18.859  0.00  0.00    +0.000 A 
ATOM      6  C   UNL     1       7.789   6.072  19.279  0.00  0.00    +0.000 A 
ENDROOT
BRANCH   1   9
ATOM      7  C   UNL     1       8.681   9.563  18.541  0.00  0.00    +0.000 C 
ATOM      8  O   UNL     1       7.856   9.996  17.745  0.00  0.00    +0.000 OA
ATOM      9  N   UNL     1       8.823   8.235  18.926  0.00  0.00    +0.000 N 
ATOM     10  H   UNL     1       9.415   8.040  19.720  0.00  0.00    +0.000 HD
BRANCH   7  16
ATOM     11  C   UNL     1       9.355  12.674  22.366  0.00  0.00    +0.000 C 
ATOM     12  C   UNL     1       9.861  12.110  21.072  0.00  0.00    +0.000 A 
ATOM     13  C   UNL     1      11.040  12.571  20.482  0.00  0.00    +0.000 A 
ATOM     14  C   UNL     1      11.481  12.038  19.266  0.00  0.00    +0.000 A 
ATOM     15  C   UNL     1      10.749  11.033  18.622  0.00  0.00    +0.000 A 
ATOM     16  C   UNL     1       9.568  10.562  19.203  0.00  0.00    +0.000 A 
ATOM     17  C   UNL     1       9.131  11.104  20.421  0.00  0.00    +0.000 A 
ENDBRANCH   7  16
ENDBRANCH   1   9
BRANCH   4  18
ATOM     18  O   UNL     1       5.578   3.949  17.294  0.00  0.00    +0.000 OA
BRANCH  18  19
ATOM     19  C   UNL     1       4.230   4.296  16.991  0.00  0.00    +0.000 C 
BRANCH  19  20
ATOM     20  C   UNL     1       3.520   5.070  18.108  0.00  0.00    +0.000 C 
ATOM     21  O   UNL     1       3.320   4.520  19.189  0.00  0.00    +0.000 OA
ATOM     22  N   UNL     1       3.111   6.345  17.756  0.00  0.00    +0.000 N 
ATOM     23  H   UNL     1       3.238   6.593  16.779  0.00  0.00    +0.000 HD
BRANCH  22  24
ATOM     24  C   UNL     1       2.452   7.279  18.589  0.00  0.00    +0.000 A 
ATOM     25  C   UNL     1       2.175   7.028  19.949  0.00  0.00    +0.000 A 
ATOM     26  C   UNL     1       1.493   7.959  20.742  0.00  0.00    +0.000 A 
ATOM     27  C   UNL     1       1.116   9.142  20.155  0.00  0.00    +0.000 A 
ATOM     28  C   UNL     1       1.402   9.413  18.838  0.00  0.00    +0.000 A 
ATOM     29  C   UNL     1       2.067   8.507  18.031  0.00  0.00    +0.000 A 
ATOM     30  O   UNL     1       0.955  10.644  18.463  0.00  0.00    +0.000 OA
ATOM     31  C   UNL     1       0.443  11.142  19.718  0.00  0.00    +0.000 C 
ATOM     32  O   UNL     1       0.453  10.157  20.769  0.00  0.00    +0.000 OA
ENDBRANCH  22  24
ENDBRANCH  19  20
ENDBRANCH  18  19
ENDBRANCH   4  18
TORSDOF 6
ENDMDL
MODEL 4
REMARK VINA RESULT:      -8.6      5.025      6.275
REMARK  Name = 
REMARK  7 active torsions:
REMARK  status: ('A' for Active; 'I' for Inactive)
REMARK    1  A    between atoms: C_1  and  C_2
REMARK    2  A    between atoms: C_6  and  C_7
REMARK    3  A    between atoms: N_9  and  C_10
REMARK    4  A    between atoms: C_13  and  O_14
REMARK    5  A    between atoms: O_14  and  C_15
REMARK    6  A    between atoms: C_15  and  C_16
REMARK    7  A    between atoms: N_18  and  C_19
REMARK                            x       y       z     vdW  Elec       q    Type
REMARK                         _______ _______ _______ _____ _____    ______ ____
ROOT
ATOM      1  C   UNL     1       4.530   3.074  17.474  0.00  0.00    +0.000 A 
ATOM      2  C   UNL     1       5.062   3.648  18.632  0.00  0.00    +0.000 A 
ATOM      3  C   UNL     1       4.442   3.483  19.880  0.00  0.00    +0.000 A 
ATOM      4  C   UNL     1       3.268   2.743  19.991  0.00  0.00    +0.000 A 
ATOM      5  C   UNL     1       2.720   2.182  18.836  0.00  0.00    +0.000 A 
ATOM      6  C   UNL     1       3.332   2.360  17.585  0.00  0.00    +0.000 A 
ENDROOT
BRANCH   1   9
ATOM      7  C   UNL     1       5.314   4.344  15.478  0.00  0.00    +0.000 C 
ATOM      8  O   UNL     1       4.968   5.463  15.840  0.00  0.00    +0.000 OA
ATOM      9  N   UNL     1       5.151   3.167  16.201  0.00  0.00    +0.000 N 
ATOM     10  H   UNL     1       5.641   2.347  15.874  0.00  0.00    +0.000 HD
BRANCH   7  16
ATOM     11  C   UNL     1       8.955   6.091  12.571  0.00  0.00    +0.000 C 
ATOM     12  C   UNL     1       7.804   5.148  12.750  0.00  0.00    +0.000 A 
ATOM     13  C   UNL     1       7.376   4.307  11.720  0.00  0.00    +0.000 A 
ATOM     14  C   UNL     1       6.290   3.447  11.910  0.00  0.00    +0.000 A 
ATOM     15  C   UNL     1       5.613   3.414  13.136  0.00  0.00    +0.000 A 
ATOM     16  C   UNL     1       6.032   4.248  14.175  0.00  0.00    +0.000 A 
ATOM     17  C   UNL     1       7.122   5.110  13.976  0.00  0.00    +0.000 A 
ENDBRANCH   7  16
ENDBRANCH   1   9
BRANCH   4  18
ATOM     18  O   UNL     1       2.610   2.467  21.162  0.00  0.00    +0.000 OA
BRANCH  18  19
ATOM     19  C   UNL     1       2.141   3.606  21.879  0.00  0.00    +0.000 C 
BRANCH  19  20
ATOM     20  C   UNL     1       1.564   4.710  20.985  0.00  0.00    +0.000 C 
ATOM     21  O   UNL     1       0.554   4.482  20.323  0.00  0.00    +0.000 OA
ATOM     22  N   UNL     1       2.298   5.884  20.972  0.00  0.00    +0.000 N 
ATOM     23  H   UNL     1       3.181   5.855  21.474  0.00  0.00    +0.000 HD
BRANCH  22  24
ATOM     24  C   UNL     1       1.990   7.062  20.252  0.00  0.00    +0.000 A 
ATOM     25  C   UNL     1       2.318   7.235  18.891  0.00  0.00    +0.000 A 
ATOM     26  C   UNL     1       2.028   8.424  18.212  0.00  0.00    +0.000 A 
ATOM     27  C   UNL     1       1.391   9.419  18.913  0.00  0.00    +0.000 A 
ATOM     28  C   UNL     1       1.042   9.257  20.232  0.00  0.00    +0.000 A 
ATOM     29  C   UNL     1       1.324   8.095  20.929  0.00  0.00    +0.000 A 
ATOM     30  O   UNL     1       0.407  10.355  20.730  0.00  0.00    +0.000 OA
ATOM     31  C   UNL     1       0.322  11.180  19.546  0.00  0.00    +0.000 C 
ATOM     32  O   UNL     1       1.031  10.632  18.418  0.00  0.00    +0.000 OA
ENDBRANCH  22  24
ENDBRANCH  19  20
ENDBRANCH  18  19
ENDBRANCH   4  18
TORSDOF 6
ENDMDL
MODEL 5
REMARK VINA RESULT:      -8.5      4.969      6.639
REMARK  Name = 
REMARK  7 active torsions:
REMARK  status: ('A' for Active; 'I' for Inactive)
REMARK    1  A    between atoms: C_1  and  C_2
REMARK    2  A    between atoms: C_6  and  C_7
REMARK    3  A    between atoms: N_9  and  C_10
REMARK    4  A    between atoms: C_13  and  O_14
REMARK    5  A    between atoms: O_14  and  C_15
REMARK    6  A    between atoms: C_15  and  C_16
REMARK    7  A    between atoms: N_18  and  C_19
REMARK                            x       y       z     vdW  Elec       q    Type
REMARK                         _______ _______ _______ _____ _____    ______ ____
ROOT
ATOM      1  C   UNL     1       4.666   2.904  17.666  0.00  0.00    +0.000 A 
ATOM      2  C   UNL     1       3.647   1.984  17.931  0.00  0.00    +0.000 A 
ATOM      3  C   UNL     1       3.096   1.854  19.215  0.00  0.00    +0.000 A 
ATOM      4  C   UNL     1       3.563   2.641  20.265  0.00  0.00    +0.000 A 
ATOM      5  C   UNL     1       4.593   3.549  20.013  0.00  0.00    +0.000 A 
ATOM      6  C   UNL     1       5.155   3.668  18.731  0.00  0.00    +0.000 A 
ENDROOT
BRANCH   1   9
ATOM      7  C   UNL     1       5.361   4.347  15.758  0.00  0.00    +0.000 C 
ATOM      8  O   UNL     1       5.061   5.431  16.244  0.00  0.00    +0.000 OA
ATOM      9  N   UNL     1       5.215   3.109  16.373  0.00  0.00    +0.000 N 
ATOM     10  H   UNL     1       5.667   2.317  15.942  0.00  0.00    +0.000 HD
BRANCH   7  16
ATOM     11  C   UNL     1       5.555   2.381  11.190  0.00  0.00    +0.000 C 
ATOM     12  C   UNL     1       6.102   3.360  12.185  0.00  0.00    +0.000 A 
ATOM     13  C   UNL     1       7.207   4.164  11.892  0.00  0.00    +0.000 A 
ATOM     14  C   UNL     1       7.706   5.058  12.845  0.00  0.00    +0.000 A 
ATOM     15  C   UNL     1       7.106   5.163  14.107  0.00  0.00    +0.000 A 
ATOM     16  C   UNL     1       6.001   4.366  14.411  0.00  0.00    +0.000 A 
ATOM     17  C   UNL     1       5.507   3.469  13.451  0.00  0.00    +0.000 A 
ENDBRANCH   7  16
ENDBRANCH   1   9
BRANCH   4  18
ATOM     18  O   UNL     1       3.061   2.642  21.542  0.00  0.00    +0.000 OA
BRANCH  18  19
ATOM     19  C   UNL     1       1.684   2.989  21.654  0.00  0.00    +0.000 C 
BRANCH  19  20
ATOM     20  C   UNL     1       1.288   4.232  20.849  0.00  0.00    +0.000 C 
ATOM     21  O   UNL     1       0.526   4.113  19.891  0.00  0.00    +0.000 OA
ATOM     22  N   UNL     1       1.893   5.406  21.266  0.00  0.00    +0.000 N 
ATOM     23  H   UNL     1       2.599   5.302  21.989  0.00  0.00    +0.000 HD
BRANCH  22  24
ATOM     24  C   UNL     1       1.700   6.695  20.718  0.00  0.00    +0.000 A 
ATOM     25  C   UNL     1       0.972   7.707  21.380  0.00  0.00    +0.000 A 
ATOM     26  C   UNL     1       0.771   8.965  20.799  0.00  0.00    +0.000 A 
ATOM     27  C   UNL     1       1.326   9.192  19.563  0.00  0.00    +0.000 A 
ATOM     28  C   UNL     1       2.059   8.226  18.916  0.00  0.00    +0.000 A 
ATOM     29  C   UNL     1       2.266   6.973  19.464  0.00  0.00    +0.000 A 
ATOM     30  O   UNL     1       2.530   8.663  17.715  0.00  0.00    +0.000 OA
ATOM     31  C   UNL     1       2.083  10.037  17.731  0.00  0.00    +0.000 C 
ATOM     32  O   UNL     1       1.236  10.348  18.853  0.00  0.00    +0.000 OA
ENDBRANCH  22  24
ENDBRANCH  19  20
ENDBRANCH  18  19
ENDBRANCH   4  18
TORSDOF 6
ENDMDL
MODEL 6
REMARK VINA RESULT:      -8.2      0.734      1.136
REMARK  Name = 
REMARK  7 active torsions:
REMARK  status: ('A' for Active; 'I' for Inactive)
REMARK    1  A    between atoms: C_1  and  C_2
REMARK    2  A    between atoms: C_6  and  C_7
REMARK    3  A    between atoms: N_9  and  C_10
REMARK    4  A    between atoms: C_13  and  O_14
REMARK    5  A    between atoms: O_14  and  C_15
REMARK    6  A    between atoms: C_15  and  C_16
REMARK    7  A    between atoms: N_18  and  C_19
REMARK                            x       y       z     vdW  Elec       q    Type
REMARK                         _______ _______ _______ _____ _____    ______ ____
ROOT
ATOM      1  C   UNL     1       7.988   7.370  18.455  0.00  0.00    +0.000 A 
ATOM      2  C   UNL     1       7.974   6.108  19.056  0.00  0.00    +0.000 A 
ATOM      3  C   UNL     1       7.145   5.081  18.580  0.00  0.00    +0.000 A 
ATOM      4  C   UNL     1       6.305   5.303  17.491  0.00  0.00    +0.000 A 
ATOM      5  C   UNL     1       6.299   6.566  16.896  0.00  0.00    +0.000 A 
ATOM      6  C   UNL     1       7.118   7.598  17.384  0.00  0.00    +0.000 A 
ENDROOT
BRANCH   1   9
ATOM      7  C   UNL     1       8.721   9.751  18.487  0.00  0.00    +0.000 C 
ATOM      8  O   UNL     1       7.842  10.211  17.766  0.00  0.00    +0.000 OA
ATOM      9  N   UNL     1       8.849   8.421  18.867  0.00  0.00    +0.000 N 
ATOM     10  H   UNL     1       9.503   8.207  19.606  0.00  0.00    +0.000 HD
BRANCH   7  16
ATOM     11  C   UNL     1       9.652  13.205  21.948  0.00  0.00    +0.000 C 
ATOM     12  C   UNL     1      10.120  12.439  20.746  0.00  0.00    +0.000 A 
ATOM     13  C   UNL     1      11.357  12.696  20.149  0.00  0.00    +0.000 A 
ATOM     14  C   UNL     1      11.763  11.977  19.020  0.00  0.00    +0.000 A 
ATOM     15  C   UNL     1      10.937  10.988  18.471  0.00  0.00    +0.000 A 
ATOM     16  C   UNL     1       9.699  10.720  19.060  0.00  0.00    +0.000 A 
ATOM     17  C   UNL     1       9.297  11.447  20.191  0.00  0.00    +0.000 A 
ENDBRANCH   7  16
ENDBRANCH   1   9
BRANCH   4  18
ATOM     18  O   UNL     1       5.498   4.360  16.905  0.00  0.00    +0.000 OA
BRANCH  18  19
ATOM     19  C   UNL     1       4.406   3.914  17.703  0.00  0.00    +0.000 C 
BRANCH  19  20
ATOM     20  C   UNL     1       3.795   5.006  18.589  0.00  0.00    +0.000 C 
ATOM     21  O   UNL     1       3.889   4.914  19.811  0.00  0.00    +0.000 OA
ATOM     22  N   UNL     1       3.125   6.001  17.897  0.00  0.00    +0.000 N 
ATOM     23  H   UNL     1       3.029   5.852  16.897  0.00  0.00    +0.000 HD
BRANCH  22  24
ATOM     24  C   UNL     1       2.484   7.132  18.456  0.00  0.00    +0.000 A 
ATOM     25  C   UNL     1       2.166   8.281  17.703  0.00  0.00    +0.000 A 
ATOM     26  C   UNL     1       1.558   9.397  18.290  0.00  0.00    +0.000 A 
ATOM     27  C   UNL     1       1.261   9.331  19.630  0.00  0.00    +0.000 A 
ATOM     28  C   UNL     1       1.541   8.208  20.372  0.00  0.00    +0.000 A 
ATOM     29  C   UNL     1       2.148   7.095  19.818  0.00  0.00    +0.000 A 
ATOM     30  O   UNL     1       1.152   8.346  21.670  0.00  0.00    +0.000 OA
ATOM     31  C   UNL     1       0.518   9.643  21.628  0.00  0.00    +0.000 C 
ATOM     32  O   UNL     1       0.672  10.312  20.361  0.00  0.00    +0.000 OA
ENDBRANCH  22  24
ENDBRANCH  19  20
ENDBRANCH  18  19
ENDBRANCH   4  18
TORSDOF 6
ENDMDL
MODEL 7
REMARK VINA RESULT:      -8.2      1.315      1.976
REMARK  Name = 
REMARK  7 active torsions:
REMARK  status: ('A' for Active; 'I' for Inactive)
REMARK    1  A    between atoms: C_1  and  C_2
REMARK    2  A    between atoms: C_6  and  C_7
REMARK    3  A    between atoms: N_9  and  C_10
REMARK    4  A    between atoms: C_13  and  O_14
REMARK    5  A    between atoms: O_14  and  C_15
REMARK    6  A    between atoms: C_15  and  C_16
REMARK    7  A    between atoms: N_18  and  C_19
REMARK                            x       y       z     vdW  Elec       q    Type
REMARK                         _______ _______ _______ _____ _____    ______ ____
ROOT
ATOM      1  C   UNL     1       6.607   7.133  17.187  0.00  0.00    +0.000 A 
ATOM      2  C   UNL     1       5.569   6.893  16.282  0.00  0.00    +0.000 A 
ATOM      3  C   UNL     1       4.942   5.640  16.204  0.00  0.00    +0.000 A 
ATOM      4  C   UNL     1       5.351   4.596  17.030  0.00  0.00    +0.000 A 
ATOM      5  C   UNL     1       6.399   4.821  17.925  0.00  0.00    +0.000 A 
ATOM      6  C   UNL     1       7.036   6.071  17.991  0.00  0.00    +0.000 A 
ENDROOT
BRANCH   1   9
ATOM      7  C   UNL     1       8.243   8.682  18.251  0.00  0.00    +0.000 C 
ATOM      8  O   UNL     1       8.752   7.885  19.031  0.00  0.00    +0.000 OA
ATOM      9  N   UNL     1       7.232   8.398  17.340  0.00  0.00    +0.000 N 
ATOM     10  H   UNL     1       7.032   9.091  16.634  0.00  0.00    +0.000 HD
BRANCH   7  16
ATOM     11  C   UNL     1      11.693  11.814  19.998  0.00  0.00    +0.000 C 
ATOM     12  C   UNL     1      10.489  11.591  19.133  0.00  0.00    +0.000 A 
ATOM     13  C   UNL     1       9.882  12.639  18.437  0.00  0.00    +0.000 A 
ATOM     14  C   UNL     1       8.750  12.406  17.648  0.00  0.00    +0.000 A 
ATOM     15  C   UNL     1       8.208  11.118  17.543  0.00  0.00    +0.000 A 
ATOM     16  C   UNL     1       8.807  10.062  18.233  0.00  0.00    +0.000 A 
ATOM     17  C   UNL     1       9.941  10.304  19.024  0.00  0.00    +0.000 A 
ENDBRANCH   7  16
ENDBRANCH   1   9
BRANCH   4  18
ATOM     18  O   UNL     1       4.775   3.352  17.083  0.00  0.00    +0.000 OA
BRANCH  18  19
ATOM     19  C   UNL     1       3.782   3.184  18.092  0.00  0.00    +0.000 C 
BRANCH  19  20
ATOM     20  C   UNL     1       2.816   4.368  18.217  0.00  0.00    +0.000 C 
ATOM     21  O   UNL     1       1.787   4.380  17.543  0.00  0.00    +0.000 OA
ATOM     22  N   UNL     1       3.240   5.371  19.073  0.00  0.00    +0.000 N 
ATOM     23  H   UNL     1       4.179   5.261  19.446  0.00  0.00    +0.000 HD
BRANCH  22  24
ATOM     24  C   UNL     1       2.544   6.562  19.386  0.00  0.00    +0.000 A 
ATOM     25  C   UNL     1       1.876   6.757  20.613  0.00  0.00    +0.000 A 
ATOM     26  C   UNL     1       1.170   7.935  20.883  0.00  0.00    +0.000 A 
ATOM     27  C   UNL     1       1.164   8.911  19.917  0.00  0.00    +0.000 A 
ATOM     28  C   UNL     1       1.832   8.747  18.727  0.00  0.00    +0.000 A 
ATOM     29  C   UNL     1       2.531   7.590  18.431  0.00  0.00    +0.000 A 
ATOM     30  O   UNL     1       1.712   9.839  17.920  0.00  0.00    +0.000 OA
ATOM     31  C   UNL     1       0.971  10.732  18.781  0.00  0.00    +0.000 C 
ATOM     32  O   UNL     1       0.537  10.113  20.007  0.00  0.00    +0.000 OA
ENDBRANCH  22  24
ENDBRANCH  19  20
ENDBRANCH  18  19
ENDBRANCH   4  18
TORSDOF 6
ENDMDL
MODEL 8
REMARK VINA RESULT:      -8.2      1.031      1.965
REMARK  Name = 
REMARK  7 active torsions:
REMARK  status: ('A' for Active; 'I' for Inactive)
REMARK    1  A    between atoms: C_1  and  C_2
REMARK    2  A    between atoms: C_6  and  C_7
REMARK    3  A    between atoms: N_9  and  C_10
REMARK    4  A    between atoms: C_13  and  O_14
REMARK    5  A    between atoms: O_14  and  C_15
REMARK    6  A    between atoms: C_15  and  C_16
REMARK    7  A    between atoms: N_18  and  C_19
REMARK                            x       y       z     vdW  Elec       q    Type
REMARK                         _______ _______ _______ _____ _____    ______ ____
ROOT
ATOM      1  C   UNL     1       7.824   7.076  18.251  0.00  0.00    +0.000 A 
ATOM      2  C   UNL     1       7.192   6.997  17.007  0.00  0.00    +0.000 A 
ATOM      3  C   UNL     1       6.339   5.930  16.686  0.00  0.00    +0.000 A 
ATOM      4  C   UNL     1       6.109   4.912  17.608  0.00  0.00    +0.000 A 
ATOM      5  C   UNL     1       6.751   4.972  18.847  0.00  0.00    +0.000 A 
ATOM      6  C   UNL     1       7.616   6.034  19.161  0.00  0.00    +0.000 A 
ENDROOT
BRANCH   1   9
ATOM      7  C   UNL     1       8.444   9.489  18.275  0.00  0.00    +0.000 C 
ATOM      8  O   UNL     1       7.518   9.911  17.592  0.00  0.00    +0.000 OA
ATOM      9  N   UNL     1       8.650   8.163  18.639  0.00  0.00    +0.000 N 
ATOM     10  H   UNL     1       9.341   7.976  19.351  0.00  0.00    +0.000 HD
BRANCH   7  16
ATOM     11  C   UNL     1      11.978  12.854  17.301  0.00  0.00    +0.000 C 
ATOM     12  C   UNL     1      11.156  12.121  18.318  0.00  0.00    +0.000 A 
ATOM     13  C   UNL     1      11.347  12.309  19.689  0.00  0.00    +0.000 A 
ATOM     14  C   UNL     1      10.576  11.601  20.617  0.00  0.00    +0.000 A 
ATOM     15  C   UNL     1       9.598  10.694  20.187  0.00  0.00    +0.000 A 
ATOM     16  C   UNL     1       9.396  10.499  18.818  0.00  0.00    +0.000 A 
ATOM     17  C   UNL     1      10.175  11.211  17.894  0.00  0.00    +0.000 A 
ENDBRANCH   7  16
ENDBRANCH   1   9
BRANCH   4  18
ATOM     18  O   UNL     1       5.253   3.854  17.428  0.00  0.00    +0.000 OA
BRANCH  18  19
ATOM     19  C   UNL     1       4.597   3.396  18.607  0.00  0.00    +0.000 C 
BRANCH  19  20
ATOM     20  C   UNL     1       3.753   4.468  19.305  0.00  0.00    +0.000 C 
ATOM     21  O   UNL     1       3.338   4.261  20.444  0.00  0.00    +0.000 OA
ATOM     22  N   UNL     1       3.487   5.587  18.533  0.00  0.00    +0.000 N 
ATOM     23  H   UNL     1       3.795   5.535  17.567  0.00  0.00    +0.000 HD
BRANCH  22  24
ATOM     24  C   UNL     1       2.750   6.728  18.928  0.00  0.00    +0.000 A 
ATOM     25  C   UNL     1       2.148   6.848  20.198  0.00  0.00    +0.000 A 
ATOM     26  C   UNL     1       1.399   7.977  20.550  0.00  0.00    +0.000 A 
ATOM     27  C   UNL     1       1.283   8.981  19.620  0.00  0.00    +0.000 A 
ATOM     28  C   UNL     1       1.885   8.891  18.388  0.00  0.00    +0.000 A 
ATOM     29  C   UNL     1       2.624   7.784  18.012  0.00  0.00    +0.000 A 
ATOM     30  O   UNL     1       1.659   9.999  17.628  0.00  0.00    +0.000 OA
ATOM     31  C   UNL     1       0.926  10.823  18.561  0.00  0.00    +0.000 C 
ATOM     32  O   UNL     1       0.600  10.144  19.789  0.00  0.00    +0.000 OA
ENDBRANCH  22  24
ENDBRANCH  19  20
ENDBRANCH  18  19
ENDBRANCH   4  18
TORSDOF 6
ENDMDL
MODEL 9
REMARK VINA RESULT:      -8.1      1.194      1.535
REMARK  Name = 
REMARK  7 active torsions:
REMARK  status: ('A' for Active; 'I' for Inactive)
REMARK    1  A    between atoms: C_1  and  C_2
REMARK    2  A    between atoms: C_6  and  C_7
REMARK    3  A    between atoms: N_9  and  C_10
REMARK    4  A    between atoms: C_13  and  O_14
REMARK    5  A    between atoms: O_14  and  C_15
REMARK    6  A    between atoms: C_15  and  C_16
REMARK    7  A    between atoms: N_18  and  C_19
REMARK                            x       y       z     vdW  Elec       q    Type
REMARK                         _______ _______ _______ _____ _____    ______ ____
ROOT
ATOM      1  C   UNL     1       6.632   7.192  17.207  0.00  0.00    +0.000 A 
ATOM      2  C   UNL     1       5.727   6.881  16.188  0.00  0.00    +0.000 A 
ATOM      3  C   UNL     1       5.093   5.631  16.131  0.00  0.00    +0.000 A 
ATOM      4  C   UNL     1       5.361   4.661  17.094  0.00  0.00    +0.000 A 
ATOM      5  C   UNL     1       6.278   4.956  18.104  0.00  0.00    +0.000 A 
ATOM      6  C   UNL     1       6.923   6.203  18.152  0.00  0.00    +0.000 A 
ENDROOT
BRANCH   1   9
ATOM      7  C   UNL     1       8.261   8.766  18.246  0.00  0.00    +0.000 C 
ATOM      8  O   UNL     1       8.768   7.986  19.045  0.00  0.00    +0.000 OA
ATOM      9  N   UNL     1       7.255   8.461  17.337  0.00  0.00    +0.000 N 
ATOM     10  H   UNL     1       7.056   9.139  16.616  0.00  0.00    +0.000 HD
BRANCH   7  16
ATOM     11  C   UNL     1      11.781  11.901  19.840  0.00  0.00    +0.000 C 
ATOM     12  C   UNL     1      10.541  11.677  19.028  0.00  0.00    +0.000 A 
ATOM     13  C   UNL     1       9.903  12.724  18.358  0.00  0.00    +0.000 A 
ATOM     14  C   UNL     1       8.739  12.490  17.619  0.00  0.00    +0.000 A 
ATOM     15  C   UNL     1       8.194  11.202  17.539  0.00  0.00    +0.000 A 
ATOM     16  C   UNL     1       8.823  10.146  18.203  0.00  0.00    +0.000 A 
ATOM     17  C   UNL     1       9.990  10.389  18.944  0.00  0.00    +0.000 A 
ENDBRANCH   7  16
ENDBRANCH   1   9
BRANCH   4  18
ATOM     18  O   UNL     1       4.759   3.430  17.172  0.00  0.00    +0.000 OA
BRANCH  18  19
ATOM     19  C   UNL     1       3.728   3.319  18.149  0.00  0.00    +0.000 C 
BRANCH  19  20
ATOM     20  C   UNL     1       2.767   4.514  18.178  0.00  0.00    +0.000 C 
ATOM     21  O   UNL     1       1.729   4.468  17.520  0.00  0.00    +0.000 OA
ATOM     22  N   UNL     1       3.207   5.590  18.931  0.00  0.00    +0.000 N 
ATOM     23  H   UNL     1       4.150   5.510  19.299  0.00  0.00    +0.000 HD
BRANCH  22  24
ATOM     24  C   UNL     1       2.519   6.807  19.142  0.00  0.00    +0.000 A 
ATOM     25  C   UNL     1       2.366   7.784  18.136  0.00  0.00    +0.000 A 
ATOM     26  C   UNL     1       1.706   8.994  18.383  0.00  0.00    +0.000 A 
ATOM     27  C   UNL     1       1.191   9.194  19.640  0.00  0.00    +0.000 A 
ATOM     28  C   UNL     1       1.309   8.242  20.624  0.00  0.00    +0.000 A 
ATOM     29  C   UNL     1       1.963   7.041  20.409  0.00  0.00    +0.000 A 
ATOM     30  O   UNL     1       0.716   8.634  21.787  0.00  0.00    +0.000 OA
ATOM     31  C   UNL     1       0.139   9.896  21.385  0.00  0.00    +0.000 C 
ATOM     32  O   UNL     1       0.521  10.301  20.056  0.00  0.00    +0.000 OA
ENDBRANCH  22  24
ENDBRANCH  19  20
ENDBRANCH  18  19
ENDBRANCH   4  18
TORSDOF 6
ENDMDL
