MODEL 1
REMARK VINA RESULT:      -9.1      0.000      0.000
REMARK  Name = 
REMARK  6 active torsions:
REMARK  status: ('A' for Active; 'I' for Inactive)
REMARK    1  A    between atoms: C_2  and  C_28
REMARK    2  A    between atoms: N_3  and  C_4
REMARK    3  A    between atoms: C_8  and  C_9
REMARK    4  A    between atoms: C_9  and  N_10
REMARK    5  A    between atoms: N_10  and  C_11
REMARK    6  A    between atoms: C_13  and  C_14
REMARK                            x       y       z     vdW  Elec       q    Type
REMARK                         _______ _______ _______ _____ _____    ______ ____
ROOT
ATOM      1  N   UNL     1       4.218   4.767  17.036  0.00  0.00    +0.000 N 
ATOM      2  H   UNL     1       3.717   4.100  16.458  0.00  0.00    +0.000 HD
ENDROOT
BRANCH   1   3
ATOM      3  C   UNL     1       3.324   5.337  17.970  0.00  0.00    +0.000 A 
ATOM      4  N   UNL     1       3.111   6.676  18.110  0.00  0.00    +0.000 NA
ATOM      5  C   UNL     1       2.252   7.054  19.104  0.00  0.00    +0.000 A 
ATOM      6  N   UNL     1       1.674   6.212  19.976  0.00  0.00    +0.000 NA
ATOM      7  C   UNL     1       1.890   4.917  19.833  0.00  0.00    +0.000 A 
ATOM      8  C   UNL     1       1.274   4.064  20.744  0.00  0.00    +0.000 A 
ATOM      9  C   UNL     1       1.406   2.679  20.657  0.00  0.00    +0.000 A 
ATOM     10  C   UNL     1       2.164   2.131  19.635  0.00  0.00    +0.000 A 
ATOM     11  C   UNL     1       2.802   2.976  18.729  0.00  0.00    +0.000 A 
ATOM     12  C   UNL     1       2.682   4.392  18.819  0.00  0.00    +0.000 A 
BRANCH   5  13
ATOM     13  C   UNL     1       1.793   8.460  19.302  0.00  0.00    +0.000 A 
ATOM     14  C   UNL     1       1.798   9.436  18.304  0.00  0.00    +0.000 A 
ATOM     15  C   UNL     1       1.303  10.709  18.589  0.00  0.00    +0.000 A 
ATOM     16  N   UNL     1       0.804  11.093  19.786  0.00  0.00    +0.000 NA
ATOM     17  C   UNL     1       0.800  10.160  20.751  0.00  0.00    +0.000 A 
ATOM     18  C   UNL     1       1.272   8.871  20.559  0.00  0.00    +0.000 A 
ENDBRANCH   5  13
ENDBRANCH   1   3
BRANCH   1  19
ATOM     19  C   UNL     1       5.239   5.437  16.250  0.00  0.00    +0.000 C 
BRANCH  19  24
ATOM     20  C   UNL     1       7.802   7.907  17.872  0.00  0.00    +0.000 A 
ATOM     21  C   UNL     1       8.347   7.091  18.860  0.00  0.00    +0.000 A 
ATOM     22  C   UNL     1       7.894   5.780  19.025  0.00  0.00    +0.000 A 
ATOM     23  C   UNL     1       6.885   5.262  18.200  0.00  0.00    +0.000 A 
ATOM     24  C   UNL     1       6.305   6.046  17.188  0.00  0.00    +0.000 A 
ATOM     25  C   UNL     1       6.790   7.371  17.036  0.00  0.00    +0.000 A 
BRANCH  20  28
ATOM     26  O   UNL     1       9.264   9.793  19.687  0.00  0.00    +0.000 OA
ATOM     27  C   UNL     1       8.910  10.069  18.550  0.00  0.00    +0.000 C 
ATOM     28  N   UNL     1       8.225   9.248  17.661  0.00  0.00    +0.000 N 
ATOM     29  H   UNL     1       7.984   9.650  16.765  0.00  0.00    +0.000 HD
BRANCH  27  30
ATOM     30  C   UNL     1       9.192  11.445  18.010  0.00  0.00    +0.000 C 
ATOM     31  C   UNL     1      10.613  11.891  17.715  0.00  0.00    +0.000 C 
ATOM     32  C   UNL     1       9.883  12.467  18.890  0.00  0.00    +0.000 C 
ENDBRANCH  27  30
ENDBRANCH  20  28
ENDBRANCH  19  24
ENDBRANCH   1  19
TORSDOF 6
ENDMDL
MODEL 2
REMARK VINA RESULT:      -8.9      0.603      1.141
REMARK  Name = 
REMARK  6 active torsions:
REMARK  status: ('A' for Active; 'I' for Inactive)
REMARK    1  A    between atoms: C_2  and  C_28
REMARK    2  A    between atoms: N_3  and  C_4
REMARK    3  A    between atoms: C_8  and  C_9
REMARK    4  A    between atoms: C_9  and  N_10
REMARK    5  A    between atoms: N_10  and  C_11
REMARK    6  A    between atoms: C_13  and  C_14
REMARK                            x       y       z     vdW  Elec       q    Type
REMARK                         _______ _______ _______ _____ _____    ______ ____
ROOT
ATOM      1  N   UNL     1       4.281   4.843  16.846  0.00  0.00    +0.000 N 
ATOM      2  H   UNL     1       3.665   4.350  16.207  0.00  0.00    +0.000 HD
ENDROOT
BRANCH   1   3
ATOM      3  C   UNL     1       3.510   5.456  17.857  0.00  0.00    +0.000 A 
ATOM      4  N   UNL     1       3.163   6.775  17.865  0.00  0.00    +0.000 NA
ATOM      5  C   UNL     1       2.460   7.212  18.952  0.00  0.00    +0.000 A 
ATOM      6  N   UNL     1       2.157   6.457  20.021  0.00  0.00    +0.000 NA
ATOM      7  C   UNL     1       2.499   5.182  20.004  0.00  0.00    +0.000 A 
ATOM      8  C   UNL     1       2.167   4.418  21.119  0.00  0.00    +0.000 A 
ATOM      9  C   UNL     1       2.450   3.055  21.185  0.00  0.00    +0.000 A 
ATOM     10  C   UNL     1       3.070   2.437  20.111  0.00  0.00    +0.000 A 
ATOM     11  C   UNL     1       3.425   3.194  18.998  0.00  0.00    +0.000 A 
ATOM     12  C   UNL     1       3.153   4.591  18.928  0.00  0.00    +0.000 A 
BRANCH   5  13
ATOM     13  C   UNL     1       1.876   8.581  19.056  0.00  0.00    +0.000 A 
ATOM     14  C   UNL     1       1.159   9.047  20.160  0.00  0.00    +0.000 A 
ATOM     15  C   UNL     1       0.696  10.364  20.170  0.00  0.00    +0.000 A 
ATOM     16  N   UNL     1       0.885  11.256  19.171  0.00  0.00    +0.000 NA
ATOM     17  C   UNL     1       1.569  10.812  18.105  0.00  0.00    +0.000 A 
ATOM     18  C   UNL     1       2.066   9.522  18.008  0.00  0.00    +0.000 A 
ENDBRANCH   5  13
ENDBRANCH   1   3
BRANCH   1  19
ATOM     19  C   UNL     1       5.409   5.398  16.118  0.00  0.00    +0.000 C 
BRANCH  19  24
ATOM     20  C   UNL     1       7.831   7.946  17.835  0.00  0.00    +0.000 A 
ATOM     21  C   UNL     1       8.310   7.167  18.886  0.00  0.00    +0.000 A 
ATOM     22  C   UNL     1       7.857   5.858  19.061  0.00  0.00    +0.000 A 
ATOM     23  C   UNL     1       6.914   5.303  18.184  0.00  0.00    +0.000 A 
ATOM     24  C   UNL     1       6.401   6.048  17.108  0.00  0.00    +0.000 A 
ATOM     25  C   UNL     1       6.884   7.373  16.948  0.00  0.00    +0.000 A 
BRANCH  20  28
ATOM     26  O   UNL     1       9.298   9.846  19.631  0.00  0.00    +0.000 OA
ATOM     27  C   UNL     1       8.944  10.111  18.491  0.00  0.00    +0.000 C 
ATOM     28  N   UNL     1       8.256   9.284  17.611  0.00  0.00    +0.000 N 
ATOM     29  H   UNL     1       8.015   9.677  16.711  0.00  0.00    +0.000 HD
BRANCH  27  30
ATOM     30  C   UNL     1       9.229  11.481  17.938  0.00  0.00    +0.000 C 
ATOM     31  C   UNL     1       8.791  12.731  18.681  0.00  0.00    +0.000 C 
ATOM     32  C   UNL     1       8.087  12.332  17.419  0.00  0.00    +0.000 C 
ENDBRANCH  27  30
ENDBRANCH  20  28
ENDBRANCH  19  24
ENDBRANCH   1  19
TORSDOF 6
ENDMDL
MODEL 3
REMARK VINA RESULT:      -8.7      3.241      4.936
REMARK  Name = 
REMARK  6 active torsions:
REMARK  status: ('A' for Active; 'I' for Inactive)
REMARK    1  A    between atoms: C_2  and  C_28
REMARK    2  A    between atoms: N_3  and  C_4
REMARK    3  A    between atoms: C_8  and  C_9
REMARK    4  A    between atoms: C_9  and  N_10
REMARK    5  A    between atoms: N_10  and  C_11
REMARK    6  A    between atoms: C_13  and  C_14
REMARK                            x       y       z     vdW  Elec       q    Type
REMARK                         _______ _______ _______ _____ _____    ______ ____
ROOT
ATOM      1  N   UNL     1       3.355   7.242  17.451  0.00  0.00    +0.000 N 
ATOM      2  H   UNL     1       2.767   7.591  16.701  0.00  0.00    +0.000 HD
ENDROOT
BRANCH   1   3
ATOM      3  C   UNL     1       2.605   7.197  18.647  0.00  0.00    +0.000 A 
ATOM      4  N   UNL     1       2.114   8.297  19.287  0.00  0.00    +0.000 NA
ATOM      5  C   UNL     1       1.458   8.072  20.464  0.00  0.00    +0.000 A 
ATOM      6  N   UNL     1       1.331   6.872  21.052  0.00  0.00    +0.000 NA
ATOM      7  C   UNL     1       1.812   5.814  20.425  0.00  0.00    +0.000 A 
ATOM      8  C   UNL     1       1.662   4.579  21.050  0.00  0.00    +0.000 A 
ATOM      9  C   UNL     1       2.101   3.397  20.455  0.00  0.00    +0.000 A 
ATOM     10  C   UNL     1       2.696   3.446  19.205  0.00  0.00    +0.000 A 
ATOM     11  C   UNL     1       2.871   4.678  18.578  0.00  0.00    +0.000 A 
ATOM     12  C   UNL     1       2.437   5.891  19.186  0.00  0.00    +0.000 A 
BRANCH   5  13
ATOM     13  C   UNL     1       0.734   9.138  21.218  0.00  0.00    +0.000 A 
ATOM     14  C   UNL     1       0.631  10.465  20.798  0.00  0.00    +0.000 A 
ATOM     15  C   UNL     1      -0.110  11.369  21.559  0.00  0.00    +0.000 A 
ATOM     16  N   UNL     1      -0.756  11.063  22.707  0.00  0.00    +0.000 NA
ATOM     17  C   UNL     1      -0.657   9.790  23.119  0.00  0.00    +0.000 A 
ATOM     18  C   UNL     1       0.056   8.824  22.427  0.00  0.00    +0.000 A 
ENDBRANCH   5  13
ENDBRANCH   1   3
BRANCH   1  19
ATOM     19  C   UNL     1       4.721   7.700  17.267  0.00  0.00    +0.000 C 
BRANCH  19  24
ATOM     20  C   UNL     1       6.393   4.672  15.438  0.00  0.00    +0.000 A 
ATOM     21  C   UNL     1       7.255   4.223  16.436  0.00  0.00    +0.000 A 
ATOM     22  C   UNL     1       7.321   4.882  17.665  0.00  0.00    +0.000 A 
ATOM     23  C   UNL     1       6.522   6.005  17.919  0.00  0.00    +0.000 A 
ATOM     24  C   UNL     1       5.636   6.498  16.945  0.00  0.00    +0.000 A 
ATOM     25  C   UNL     1       5.582   5.804  15.708  0.00  0.00    +0.000 A 
BRANCH  20  28
ATOM     26  O   UNL     1       7.695   5.336  12.821  0.00  0.00    +0.000 OA
ATOM     27  C   UNL     1       6.928   4.399  12.989  0.00  0.00    +0.000 C 
ATOM     28  N   UNL     1       6.286   4.041  14.169  0.00  0.00    +0.000 N 
ATOM     29  H   UNL     1       5.658   3.249  14.123  0.00  0.00    +0.000 HD
BRANCH  27  30
ATOM     30  C   UNL     1       6.580   3.520  11.818  0.00  0.00    +0.000 C 
ATOM     31  C   UNL     1       5.133   3.259  11.442  0.00  0.00    +0.000 C 
ATOM     32  C   UNL     1       5.947   2.165  12.062  0.00  0.00    +0.000 C 
ENDBRANCH  27  30
ENDBRANCH  20  28
ENDBRANCH  19  24
ENDBRANCH   1  19
TORSDOF 6
ENDMDL
MODEL 4
REMARK VINA RESULT:      -8.6      3.784      6.880
REMARK  Name = 
REMARK  6 active torsions:
REMARK  status: ('A' for Active; 'I' for Inactive)
REMARK    1  A    between atoms: C_2  and  C_28
REMARK    2  A    between atoms: N_3  and  C_4
REMARK    3  A    between atoms: C_8  and  C_9
REMARK    4  A    between atoms: C_9  and  N_10
REMARK    5  A    between atoms: N_10  and  C_11
REMARK    6  A    between atoms: C_13  and  C_14
REMARK                            x       y       z     vdW  Elec       q    Type
REMARK                         _______ _______ _______ _____ _____    ______ ____
ROOT
ATOM      1  N   UNL     1       0.514   9.713  17.852  0.00  0.00    +0.000 N 
ATOM      2  H   UNL     1       0.201   9.582  16.895  0.00  0.00    +0.000 HD
ENDROOT
BRANCH   1   3
ATOM      3  C   UNL     1      -0.353  10.617  18.505  0.00  0.00    +0.000 A 
ATOM      4  N   UNL     1      -0.028  11.314  19.631  0.00  0.00    +0.000 NA
ATOM      5  C   UNL     1      -1.010  12.102  20.162  0.00  0.00    +0.000 A 
ATOM      6  N   UNL     1      -2.267  12.177  19.695  0.00  0.00    +0.000 NA
ATOM      7  C   UNL     1      -2.571  11.496  18.605  0.00  0.00    +0.000 A 
ATOM      8  C   UNL     1      -3.878  11.595  18.136  0.00  0.00    +0.000 A 
ATOM      9  C   UNL     1      -4.291  10.946  16.973  0.00  0.00    +0.000 A 
ATOM     10  C   UNL     1      -3.379  10.188  16.258  0.00  0.00    +0.000 A 
ATOM     11  C   UNL     1      -2.074  10.064  16.728  0.00  0.00    +0.000 A 
ATOM     12  C   UNL     1      -1.647  10.712  17.923  0.00  0.00    +0.000 A 
BRANCH   5  13
ATOM     13  C   UNL     1      -0.784  13.041  21.300  0.00  0.00    +0.000 A 
ATOM     14  C   UNL     1       0.117  14.107  21.272  0.00  0.00    +0.000 A 
ATOM     15  C   UNL     1       0.214  14.951  22.379  0.00  0.00    +0.000 A 
ATOM     16  N   UNL     1      -0.510  14.820  23.515  0.00  0.00    +0.000 NA
ATOM     17  C   UNL     1      -1.374  13.794  23.549  0.00  0.00    +0.000 A 
ATOM     18  C   UNL     1      -1.538  12.907  22.497  0.00  0.00    +0.000 A 
ENDBRANCH   5  13
ENDBRANCH   1   3
BRANCH   1  19
ATOM     19  C   UNL     1       1.964   9.661  17.912  0.00  0.00    +0.000 C 
BRANCH  19  24
ATOM     20  C   UNL     1       3.567   6.093  17.853  0.00  0.00    +0.000 A 
ATOM     21  C   UNL     1       3.140   5.606  19.087  0.00  0.00    +0.000 A 
ATOM     22  C   UNL     1       2.371   6.405  19.935  0.00  0.00    +0.000 A 
ATOM     23  C   UNL     1       2.014   7.708  19.563  0.00  0.00    +0.000 A 
ATOM     24  C   UNL     1       2.419   8.245  18.329  0.00  0.00    +0.000 A 
ATOM     25  C   UNL     1       3.193   7.409  17.482  0.00  0.00    +0.000 A 
BRANCH  20  28
ATOM     26  O   UNL     1       6.441   5.253  18.006  0.00  0.00    +0.000 OA
ATOM     27  C   UNL     1       5.688   4.963  17.089  0.00  0.00    +0.000 C 
ATOM     28  N   UNL     1       4.352   5.324  16.951  0.00  0.00    +0.000 N 
ATOM     29  H   UNL     1       3.884   5.021  16.108  0.00  0.00    +0.000 HD
BRANCH  27  30
ATOM     30  C   UNL     1       6.218   4.153  15.936  0.00  0.00    +0.000 C 
ATOM     31  C   UNL     1       6.996   4.812  14.811  0.00  0.00    +0.000 C 
ATOM     32  C   UNL     1       5.604   4.317  14.560  0.00  0.00    +0.000 C 
ENDBRANCH  27  30
ENDBRANCH  20  28
ENDBRANCH  19  24
ENDBRANCH   1  19
TORSDOF 6
ENDMDL
MODEL 5
REMARK VINA RESULT:      -8.6      4.782      8.867
REMARK  Name = 
REMARK  6 active torsions:
REMARK  status: ('A' for Active; 'I' for Inactive)
REMARK    1  A    between atoms: C_2  and  C_28
REMARK    2  A    between atoms: N_3  and  C_4
REMARK    3  A    between atoms: C_8  and  C_9
REMARK    4  A    between atoms: C_9  and  N_10
REMARK    5  A    between atoms: N_10  and  C_11
REMARK    6  A    between atoms: C_13  and  C_14
REMARK                            x       y       z     vdW  Elec       q    Type
REMARK                         _______ _______ _______ _____ _____    ______ ____
ROOT
ATOM      1  N   UNL     1      -0.430  11.436  19.436  0.00  0.00    +0.000 N 
ATOM      2  H   UNL     1       0.122  12.230  19.127  0.00  0.00    +0.000 HD
ENDROOT
BRANCH   1   3
ATOM      3  C   UNL     1      -1.797  11.791  19.436  0.00  0.00    +0.000 A 
ATOM      4  N   UNL     1      -2.441  12.364  20.492  0.00  0.00    +0.000 NA
ATOM      5  C   UNL     1      -3.780  12.590  20.336  0.00  0.00    +0.000 A 
ATOM      6  N   UNL     1      -4.498  12.225  19.261  0.00  0.00    +0.000 NA
ATOM      7  C   UNL     1      -3.864  11.669  18.245  0.00  0.00    +0.000 A 
ATOM      8  C   UNL     1      -4.627  11.307  17.138  0.00  0.00    +0.000 A 
ATOM      9  C   UNL     1      -4.049  10.748  16.000  0.00  0.00    +0.000 A 
ATOM     10  C   UNL     1      -2.678  10.551  15.960  0.00  0.00    +0.000 A 
ATOM     11  C   UNL     1      -1.906  10.890  17.069  0.00  0.00    +0.000 A 
ATOM     12  C   UNL     1      -2.491  11.450  18.241  0.00  0.00    +0.000 A 
BRANCH   5  13
ATOM     13  C   UNL     1      -4.608  13.338  21.327  0.00  0.00    +0.000 A 
ATOM     14  C   UNL     1      -5.922  13.753  21.100  0.00  0.00    +0.000 A 
ATOM     15  C   UNL     1      -6.619  14.408  22.116  0.00  0.00    +0.000 A 
ATOM     16  N   UNL     1      -6.116  14.687  23.340  0.00  0.00    +0.000 NA
ATOM     17  C   UNL     1      -4.852  14.295  23.563  0.00  0.00    +0.000 A 
ATOM     18  C   UNL     1      -4.085  13.639  22.614  0.00  0.00    +0.000 A 
ENDBRANCH   5  13
ENDBRANCH   1   3
BRANCH   1  19
ATOM     19  C   UNL     1       0.300  10.685  20.442  0.00  0.00    +0.000 C 
BRANCH  19  24
ATOM     20  C   UNL     1       2.091   7.252  19.880  0.00  0.00    +0.000 A 
ATOM     21  C   UNL     1       2.490   7.392  18.552  0.00  0.00    +0.000 A 
ATOM     22  C   UNL     1       2.178   8.550  17.838  0.00  0.00    +0.000 A 
ATOM     23  C   UNL     1       1.460   9.593  18.441  0.00  0.00    +0.000 A 
ATOM     24  C   UNL     1       1.036   9.500  19.778  0.00  0.00    +0.000 A 
ATOM     25  C   UNL     1       1.374   8.316  20.484  0.00  0.00    +0.000 A 
BRANCH  20  28
ATOM     26  O   UNL     1       0.865   4.517  19.820  0.00  0.00    +0.000 OA
ATOM     27  C   UNL     1       1.773   4.847  20.568  0.00  0.00    +0.000 C 
ATOM     28  N   UNL     1       2.380   6.095  20.654  0.00  0.00    +0.000 N 
ATOM     29  H   UNL     1       3.101   6.203  21.354  0.00  0.00    +0.000 HD
BRANCH  27  30
ATOM     30  C   UNL     1       2.313   3.842  21.549  0.00  0.00    +0.000 C 
ATOM     31  C   UNL     1       2.936   2.542  21.072  0.00  0.00    +0.000 C 
ATOM     32  C   UNL     1       1.595   2.521  21.740  0.00  0.00    +0.000 C 
ENDBRANCH  27  30
ENDBRANCH  20  28
ENDBRANCH  19  24
ENDBRANCH   1  19
TORSDOF 6
ENDMDL
MODEL 6
REMARK VINA RESULT:      -8.5      3.322      7.296
REMARK  Name = 
REMARK  6 active torsions:
REMARK  status: ('A' for Active; 'I' for Inactive)
REMARK    1  A    between atoms: C_2  and  C_28
REMARK    2  A    between atoms: N_3  and  C_4
REMARK    3  A    between atoms: C_8  and  C_9
REMARK    4  A    between atoms: C_9  and  N_10
REMARK    5  A    between atoms: N_10  and  C_11
REMARK    6  A    between atoms: C_13  and  C_14
REMARK                            x       y       z     vdW  Elec       q    Type
REMARK                         _______ _______ _______ _____ _____    ______ ____
ROOT
ATOM      1  N   UNL     1       2.348   7.300  19.910  0.00  0.00    +0.000 N 
ATOM      2  H   UNL     1       2.961   7.528  20.686  0.00  0.00    +0.000 HD
ENDROOT
BRANCH   1   3
ATOM      3  C   UNL     1       2.894   6.217  19.187  0.00  0.00    +0.000 A 
ATOM      4  N   UNL     1       3.810   6.346  18.185  0.00  0.00    +0.000 NA
ATOM      5  C   UNL     1       4.188   5.194  17.556  0.00  0.00    +0.000 A 
ATOM      6  N   UNL     1       3.674   3.979  17.809  0.00  0.00    +0.000 NA
ATOM      7  C   UNL     1       2.786   3.866  18.780  0.00  0.00    +0.000 A 
ATOM      8  C   UNL     1       2.273   2.596  19.030  0.00  0.00    +0.000 A 
ATOM      9  C   UNL     1       1.360   2.362  20.057  0.00  0.00    +0.000 A 
ATOM     10  C   UNL     1       0.954   3.417  20.858  0.00  0.00    +0.000 A 
ATOM     11  C   UNL     1       1.445   4.696  20.606  0.00  0.00    +0.000 A 
ATOM     12  C   UNL     1       2.368   4.945  19.550  0.00  0.00    +0.000 A 
BRANCH   5  13
ATOM     13  C   UNL     1       5.282   5.132  16.543  0.00  0.00    +0.000 A 
ATOM     14  C   UNL     1       5.222   4.382  15.366  0.00  0.00    +0.000 A 
ATOM     15  C   UNL     1       6.286   4.434  14.466  0.00  0.00    +0.000 A 
ATOM     16  N   UNL     1       7.409   5.169  14.640  0.00  0.00    +0.000 NA
ATOM     17  C   UNL     1       7.475   5.888  15.771  0.00  0.00    +0.000 A 
ATOM     18  C   UNL     1       6.466   5.898  16.721  0.00  0.00    +0.000 A 
ENDBRANCH   5  13
ENDBRANCH   1   3
BRANCH   1  19
ATOM     19  C   UNL     1       1.739   8.510  19.387  0.00  0.00    +0.000 C 
BRANCH  19  24
ATOM     20  C   UNL     1      -0.183  11.209  21.466  0.00  0.00    +0.000 A 
ATOM     21  C   UNL     1      -0.499  10.471  22.604  0.00  0.00    +0.000 A 
ATOM     22  C   UNL     1      -0.125   9.130  22.704  0.00  0.00    +0.000 A 
ATOM     23  C   UNL     1       0.574   8.501  21.664  0.00  0.00    +0.000 A 
ATOM     24  C   UNL     1       0.916   9.203  20.495  0.00  0.00    +0.000 A 
ATOM     25  C   UNL     1       0.532  10.568  20.423  0.00  0.00    +0.000 A 
BRANCH  20  28
ATOM     26  O   UNL     1       1.486  13.691  21.685  0.00  0.00    +0.000 OA
ATOM     27  C   UNL     1       0.293  13.685  21.420  0.00  0.00    +0.000 C 
ATOM     28  N   UNL     1      -0.540  12.577  21.311  0.00  0.00    +0.000 N 
ATOM     29  H   UNL     1      -1.515  12.758  21.113  0.00  0.00    +0.000 HD
BRANCH  27  30
ATOM     30  C   UNL     1      -0.414  14.997  21.208  0.00  0.00    +0.000 C 
ATOM     31  C   UNL     1      -0.560  15.590  19.818  0.00  0.00    +0.000 C 
ATOM     32  C   UNL     1       0.382  16.220  20.799  0.00  0.00    +0.000 C 
ENDBRANCH  27  30
ENDBRANCH  20  28
ENDBRANCH  19  24
ENDBRANCH   1  19
TORSDOF 6
ENDMDL
MODEL 7
REMARK VINA RESULT:      -8.5      3.337      7.590
REMARK  Name = 
REMARK  6 active torsions:
REMARK  status: ('A' for Active; 'I' for Inactive)
REMARK    1  A    between atoms: C_2  and  C_28
REMARK    2  A    between atoms: N_3  and  C_4
REMARK    3  A    between atoms: C_8  and  C_9
REMARK    4  A    between atoms: C_9  and  N_10
REMARK    5  A    between atoms: N_10  and  C_11
REMARK    6  A    between atoms: C_13  and  C_14
REMARK                            x       y       z     vdW  Elec       q    Type
REMARK                         _______ _______ _______ _____ _____    ______ ____
ROOT
ATOM      1  N   UNL     1       2.220   7.361  19.981  0.00  0.00    +0.000 N 
ATOM      2  H   UNL     1       2.796   7.586  20.786  0.00  0.00    +0.000 HD
ENDROOT
BRANCH   1   3
ATOM      3  C   UNL     1       2.815   6.300  19.264  0.00  0.00    +0.000 A 
ATOM      4  N   UNL     1       3.737   6.466  18.273  0.00  0.00    +0.000 NA
ATOM      5  C   UNL     1       4.166   5.329  17.647  0.00  0.00    +0.000 A 
ATOM      6  N   UNL     1       3.696   4.096  17.893  0.00  0.00    +0.000 NA
ATOM      7  C   UNL     1       2.801   3.947  18.853  0.00  0.00    +0.000 A 
ATOM      8  C   UNL     1       2.334   2.658  19.095  0.00  0.00    +0.000 A 
ATOM      9  C   UNL     1       1.418   2.389  20.111  0.00  0.00    +0.000 A 
ATOM     10  C   UNL     1       0.963   3.426  20.909  0.00  0.00    +0.000 A 
ATOM     11  C   UNL     1       1.408   4.724  20.663  0.00  0.00    +0.000 A 
ATOM     12  C   UNL     1       2.333   5.009  19.619  0.00  0.00    +0.000 A 
BRANCH   5  13
ATOM     13  C   UNL     1       5.274   5.311  16.646  0.00  0.00    +0.000 A 
ATOM     14  C   UNL     1       6.438   6.074  16.749  0.00  0.00    +0.000 A 
ATOM     15  C   UNL     1       7.431   5.944  15.777  0.00  0.00    +0.000 A 
ATOM     16  N   UNL     1       7.360   5.119  14.708  0.00  0.00    +0.000 NA
ATOM     17  C   UNL     1       6.241   4.386  14.601  0.00  0.00    +0.000 A 
ATOM     18  C   UNL     1       5.204   4.449  15.518  0.00  0.00    +0.000 A 
ENDBRANCH   5  13
ENDBRANCH   1   3
BRANCH   1  19
ATOM     19  C   UNL     1       1.612   8.569  19.453  0.00  0.00    +0.000 C 
BRANCH  19  24
ATOM     20  C   UNL     1      -0.348  11.262  21.505  0.00  0.00    +0.000 A 
ATOM     21  C   UNL     1      -0.644  10.534  22.656  0.00  0.00    +0.000 A 
ATOM     22  C   UNL     1      -0.245   9.201  22.772  0.00  0.00    +0.000 A 
ATOM     23  C   UNL     1       0.459   8.571  21.736  0.00  0.00    +0.000 A 
ATOM     24  C   UNL     1       0.782   9.263  20.556  0.00  0.00    +0.000 A 
ATOM     25  C   UNL     1       0.373  10.619  20.467  0.00  0.00    +0.000 A 
BRANCH  20  28
ATOM     26  O   UNL     1       1.162  13.792  22.063  0.00  0.00    +0.000 OA
ATOM     27  C   UNL     1       0.029  13.754  21.608  0.00  0.00    +0.000 C 
ATOM     28  N   UNL     1      -0.730  12.621  21.333  0.00  0.00    +0.000 N 
ATOM     29  H   UNL     1      -1.666  12.774  20.985  0.00  0.00    +0.000 HD
BRANCH  27  30
ATOM     30  C   UNL     1      -0.688  15.046  21.321  0.00  0.00    +0.000 C 
ATOM     31  C   UNL     1      -1.654  15.643  22.329  0.00  0.00    +0.000 C 
ATOM     32  C   UNL     1      -2.182  15.033  21.066  0.00  0.00    +0.000 C 
ENDBRANCH  27  30
ENDBRANCH  20  28
ENDBRANCH  19  24
ENDBRANCH   1  19
TORSDOF 6
ENDMDL
MODEL 8
REMARK VINA RESULT:      -8.4      3.529      6.432
REMARK  Name = 
REMARK  6 active torsions:
REMARK  status: ('A' for Active; 'I' for Inactive)
REMARK    1  A    between atoms: C_2  and  C_28
REMARK    2  A    between atoms: N_3  and  C_4
REMARK    3  A    between atoms: C_8  and  C_9
REMARK    4  A    between atoms: C_9  and  N_10
REMARK    5  A    between atoms: N_10  and  C_11
REMARK    6  A    between atoms: C_13  and  C_14
REMARK                            x       y       z     vdW  Elec       q    Type
REMARK                         _______ _______ _______ _____ _____    ______ ____
ROOT
ATOM      1  N   UNL     1       1.028   9.468  18.534  0.00  0.00    +0.000 N 
ATOM      2  H   UNL     1       0.204   9.123  18.053  0.00  0.00    +0.000 HD
ENDROOT
BRANCH   1   3
ATOM      3  C   UNL     1       0.703  10.659  19.220  0.00  0.00    +0.000 A 
ATOM      4  N   UNL     1       0.929  11.912  18.731  0.00  0.00    +0.000 NA
ATOM      5  C   UNL     1       0.602  12.953  19.555  0.00  0.00    +0.000 A 
ATOM      6  N   UNL     1       0.149  12.820  20.812  0.00  0.00    +0.000 NA
ATOM      7  C   UNL     1      -0.064  11.602  21.276  0.00  0.00    +0.000 A 
ATOM      8  C   UNL     1      -0.542  11.491  22.579  0.00  0.00    +0.000 A 
ATOM      9  C   UNL     1      -0.835  10.253  23.148  0.00  0.00    +0.000 A 
ATOM     10  C   UNL     1      -0.656   9.101  22.401  0.00  0.00    +0.000 A 
ATOM     11  C   UNL     1      -0.160   9.198  21.103  0.00  0.00    +0.000 A 
ATOM     12  C   UNL     1       0.156  10.458  20.518  0.00  0.00    +0.000 A 
BRANCH   5  13
ATOM     13  C   UNL     1       0.646  14.382  19.129  0.00  0.00    +0.000 A 
ATOM     14  C   UNL     1      -0.461  15.233  19.117  0.00  0.00    +0.000 A 
ATOM     15  C   UNL     1      -0.296  16.567  18.742  0.00  0.00    +0.000 A 
ATOM     16  N   UNL     1       0.880  17.125  18.375  0.00  0.00    +0.000 NA
ATOM     17  C   UNL     1       1.947  16.311  18.379  0.00  0.00    +0.000 A 
ATOM     18  C   UNL     1       1.877  14.974  18.737  0.00  0.00    +0.000 A 
ENDBRANCH   5  13
ENDBRANCH   1   3
BRANCH   1  19
ATOM     19  C   UNL     1       2.217   9.181  17.751  0.00  0.00    +0.000 C 
BRANCH  19  24
ATOM     20  C   UNL     1       4.161   5.788  17.674  0.00  0.00    +0.000 A 
ATOM     21  C   UNL     1       3.726   5.222  18.871  0.00  0.00    +0.000 A 
ATOM     22  C   UNL     1       2.843   5.915  19.701  0.00  0.00    +0.000 A 
ATOM     23  C   UNL     1       2.378   7.190  19.348  0.00  0.00    +0.000 A 
ATOM     24  C   UNL     1       2.787   7.803  18.151  0.00  0.00    +0.000 A 
ATOM     25  C   UNL     1       3.678   7.074  17.321  0.00  0.00    +0.000 A 
BRANCH  20  28
ATOM     26  O   UNL     1       6.825   6.655  16.606  0.00  0.00    +0.000 OA
ATOM     27  C   UNL     1       6.292   5.588  16.340  0.00  0.00    +0.000 C 
ATOM     28  N   UNL     1       5.060   5.128  16.792  0.00  0.00    +0.000 N 
ATOM     29  H   UNL     1       4.756   4.228  16.447  0.00  0.00    +0.000 HD
BRANCH  27  30
ATOM     30  C   UNL     1       6.985   4.640  15.399  0.00  0.00    +0.000 C 
ATOM     31  C   UNL     1       7.083   4.945  13.915  0.00  0.00    +0.000 C 
ATOM     32  C   UNL     1       6.169   3.857  14.390  0.00  0.00    +0.000 C 
ENDBRANCH  27  30
ENDBRANCH  20  28
ENDBRANCH  19  24
ENDBRANCH   1  19
TORSDOF 6
ENDMDL
MODEL 9
REMARK VINA RESULT:      -8.4      3.752      8.226
REMARK  Name = 
REMARK  6 active torsions:
REMARK  status: ('A' for Active; 'I' for Inactive)
REMARK    1  A    between atoms: C_2  and  C_28
REMARK    2  A    between atoms: N_3  and  C_4
REMARK    3  A    between atoms: C_8  and  C_9
REMARK    4  A    between atoms: C_9  and  N_10
REMARK    5  A    between atoms: N_10  and  C_11
REMARK    6  A    between atoms: C_13  and  C_14
REMARK                            x       y       z     vdW  Elec       q    Type
REMARK                         _______ _______ _______ _____ _____    ______ ____
ROOT
ATOM      1  N   UNL     1       2.295   7.398  19.942  0.00  0.00    +0.000 N 
ATOM      2  H   UNL     1       2.968   7.691  20.643  0.00  0.00    +0.000 HD
ENDROOT
BRANCH   1   3
ATOM      3  C   UNL     1       2.843   6.338  19.186  0.00  0.00    +0.000 A 
ATOM      4  N   UNL     1       3.790   6.496  18.217  0.00  0.00    +0.000 NA
ATOM      5  C   UNL     1       4.166   5.367  17.546  0.00  0.00    +0.000 A 
ATOM      6  N   UNL     1       3.624   4.152  17.729  0.00  0.00    +0.000 NA
ATOM      7  C   UNL     1       2.707   4.011  18.668  0.00  0.00    +0.000 A 
ATOM      8  C   UNL     1       2.165   2.740  18.845  0.00  0.00    +0.000 A 
ATOM      9  C   UNL     1       1.219   2.477  19.834  0.00  0.00    +0.000 A 
ATOM     10  C   UNL     1       0.808   3.502  20.671  0.00  0.00    +0.000 A 
ATOM     11  C   UNL     1       1.328   4.782  20.492  0.00  0.00    +0.000 A 
ATOM     12  C   UNL     1       2.285   5.062  19.475  0.00  0.00    +0.000 A 
BRANCH   5  13
ATOM     13  C   UNL     1       5.288   5.331  16.562  0.00  0.00    +0.000 A 
ATOM     14  C   UNL     1       6.457   6.086  16.675  0.00  0.00    +0.000 A 
ATOM     15  C   UNL     1       7.462   5.940  15.719  0.00  0.00    +0.000 A 
ATOM     16  N   UNL     1       7.400   5.106  14.656  0.00  0.00    +0.000 NA
ATOM     17  C   UNL     1       6.276   4.382  14.538  0.00  0.00    +0.000 A 
ATOM     18  C   UNL     1       5.227   4.461  15.440  0.00  0.00    +0.000 A 
ENDBRANCH   5  13
ENDBRANCH   1   3
BRANCH   1  19
ATOM     19  C   UNL     1       1.544   8.545  19.464  0.00  0.00    +0.000 C 
BRANCH  19  24
ATOM     20  C   UNL     1      -0.775  10.908  21.547  0.00  0.00    +0.000 A 
ATOM     21  C   UNL     1      -0.520  10.439  22.834  0.00  0.00    +0.000 A 
ATOM     22  C   UNL     1       0.361   9.375  23.038  0.00  0.00    +0.000 A 
ATOM     23  C   UNL     1       1.004   8.759  21.954  0.00  0.00    +0.000 A 
ATOM     24  C   UNL     1       0.780   9.196  20.637  0.00  0.00    +0.000 A 
ATOM     25  C   UNL     1      -0.113  10.285  20.459  0.00  0.00    +0.000 A 
BRANCH  20  28
ATOM     26  O   UNL     1      -3.111  11.936  23.120  0.00  0.00    +0.000 OA
ATOM     27  C   UNL     1      -2.729  12.416  22.064  0.00  0.00    +0.000 C 
ATOM     28  N   UNL     1      -1.662  11.987  21.281  0.00  0.00    +0.000 N 
ATOM     29  H   UNL     1      -1.503  12.485  20.416  0.00  0.00    +0.000 HD
BRANCH  27  30
ATOM     30  C   UNL     1      -3.475  13.586  21.480  0.00  0.00    +0.000 C 
ATOM     31  C   UNL     1      -3.168  15.006  21.920  0.00  0.00    +0.000 C 
ATOM     32  C   UNL     1      -4.450  14.359  22.345  0.00  0.00    +0.000 C 
ENDBRANCH  27  30
ENDBRANCH  20  28
ENDBRANCH  19  24
ENDBRANCH   1  19
TORSDOF 6
ENDMDL
