MODEL 1
REMARK VINA RESULT:      -8.7      0.000      0.000
REMARK  Name = 
REMARK  4 active torsions:
REMARK  status: ('A' for Active; 'I' for Inactive)
REMARK    1  A    between atoms: C_2  and  C_16
REMARK    2  A    between atoms: N_3  and  C_4
REMARK    3  A    between atoms: C_9  and  N_10
REMARK    4  A    between atoms: C_19  and  C_20
REMARK                            x       y       z     vdW  Elec       q    Type
REMARK                         _______ _______ _______ _____ _____    ______ ____
ROOT
ATOM      1  O   UNL     1       3.279   6.069  20.073  0.00  0.00    +0.000 OA
ATOM      2  C   UNL     1       2.699   6.420  19.043  0.00  0.00    +0.000 C 
ATOM      3  N   UNL     1       2.412   5.527  18.015  0.00  0.00    +0.000 N 
ATOM      4  H   UNL     1       1.665   5.775  17.371  0.00  0.00    +0.000 HD
ENDROOT
BRANCH   3   5
ATOM      5  C   UNL     1       2.767   4.146  18.095  0.00  0.00    +0.000 A 
ATOM      6  C   UNL     1       1.804   3.222  18.529  0.00  0.00    +0.000 A 
ATOM      7  C   UNL     1       2.092   1.853  18.608  0.00  0.00    +0.000 A 
ATOM      8  C   UNL     1       3.334   1.381  18.197  0.00  0.00    +0.000 A 
ATOM      9  C   UNL     1       4.290   2.282  17.729  0.00  0.00    +0.000 A 
ATOM     10  C   UNL     1       4.044   3.668  17.714  0.00  0.00    +0.000 A 
BRANCH  10  11
ATOM     11  N   UNL     1       5.098   4.513  17.299  0.00  0.00    +0.000 N 
ATOM     12  C   UNL     1       5.230   5.015  15.952  0.00  0.00    +0.000 C 
ATOM     13  C   UNL     1       6.677   5.457  15.863  0.00  0.00    +0.000 C 
ATOM     14  C   UNL     1       7.065   5.785  17.297  0.00  0.00    +0.000 C 
ATOM     15  C   UNL     1       6.121   4.957  18.126  0.00  0.00    +0.000 C 
ATOM     16  O   UNL     1       6.255   4.756  19.325  0.00  0.00    +0.000 OA
ENDBRANCH  10  11
ENDBRANCH   3   5
BRANCH   2  17
ATOM     17  C   UNL     1       2.208   7.792  18.910  0.00  0.00    +0.000 A 
ATOM     18  C   UNL     1       2.383   8.664  17.848  0.00  0.00    +0.000 A 
ATOM     19  C   UNL     1       1.641   9.829  18.137  0.00  0.00    +0.000 A 
ATOM     20  C   UNL     1       1.014   9.634  19.359  0.00  0.00    +0.000 A 
ATOM     21  O   UNL     1       1.402   8.391  19.848  0.00  0.00    +0.000 OA
BRANCH  20  22
ATOM     22  C   UNL     1       0.106  10.544  20.027  0.00  0.00    +0.000 A 
ATOM     23  N   UNL     1      -0.087  10.533  21.335  0.00  0.00    +0.000 NA
ATOM     24  C   UNL     1      -1.027  11.499  21.689  0.00  0.00    +0.000 A 
ATOM     25  C   UNL     1      -1.503  11.782  22.988  0.00  0.00    +0.000 A 
ATOM     26  C   UNL     1      -2.485  12.771  23.180  0.00  0.00    +0.000 A 
ATOM     27  C   UNL     1      -2.988  13.484  22.096  0.00  0.00    +0.000 A 
ATOM     28  C   UNL     1      -2.515  13.237  20.806  0.00  0.00    +0.000 A 
ATOM     29  C   UNL     1      -1.539  12.242  20.624  0.00  0.00    +0.000 A 
ATOM     30  S   UNL     1      -0.788  11.722  19.163  0.00  0.00    +0.000 S 
ENDBRANCH  20  22
ENDBRANCH   2  17
TORSDOF 4
ENDMDL
MODEL 2
REMARK VINA RESULT:      -8.6      2.038      3.377
REMARK  Name = 
REMARK  4 active torsions:
REMARK  status: ('A' for Active; 'I' for Inactive)
REMARK    1  A    between atoms: C_2  and  C_16
REMARK    2  A    between atoms: N_3  and  C_4
REMARK    3  A    between atoms: C_9  and  N_10
REMARK    4  A    between atoms: C_19  and  C_20
REMARK                            x       y       z     vdW  Elec       q    Type
REMARK                         _______ _______ _______ _____ _____    ______ ____
ROOT
ATOM      1  O   UNL     1       4.766   3.951  18.578  0.00  0.00    +0.000 OA
ATOM      2  C   UNL     1       4.106   4.953  18.295  0.00  0.00    +0.000 C 
ATOM      3  N   UNL     1       4.253   5.617  17.080  0.00  0.00    +0.000 N 
ATOM      4  H   UNL     1       3.483   6.202  16.767  0.00  0.00    +0.000 HD
ENDROOT
BRANCH   3   5
ATOM      5  C   UNL     1       5.176   5.172  16.085  0.00  0.00    +0.000 A 
ATOM      6  C   UNL     1       4.698   4.396  15.017  0.00  0.00    +0.000 A 
ATOM      7  C   UNL     1       5.555   3.949  14.002  0.00  0.00    +0.000 A 
ATOM      8  C   UNL     1       6.895   4.322  14.011  0.00  0.00    +0.000 A 
ATOM      9  C   UNL     1       7.377   5.123  15.046  0.00  0.00    +0.000 A 
ATOM     10  C   UNL     1       6.548   5.519  16.113  0.00  0.00    +0.000 A 
BRANCH  10  11
ATOM     11  N   UNL     1       7.141   6.262  17.159  0.00  0.00    +0.000 N 
ATOM     12  C   UNL     1       7.135   7.705  17.208  0.00  0.00    +0.000 C 
ATOM     13  C   UNL     1       8.234   8.044  18.196  0.00  0.00    +0.000 C 
ATOM     14  C   UNL     1       8.324   6.824  19.100  0.00  0.00    +0.000 C 
ATOM     15  C   UNL     1       7.790   5.702  18.250  0.00  0.00    +0.000 C 
ATOM     16  O   UNL     1       7.910   4.516  18.523  0.00  0.00    +0.000 OA
ENDBRANCH  10  11
ENDBRANCH   3   5
BRANCH   2  17
ATOM     17  C   UNL     1       3.067   5.428  19.208  0.00  0.00    +0.000 A 
ATOM     18  C   UNL     1       2.417   4.722  20.207  0.00  0.00    +0.000 A 
ATOM     19  C   UNL     1       1.574   5.631  20.881  0.00  0.00    +0.000 A 
ATOM     20  C   UNL     1       1.743   6.876  20.292  0.00  0.00    +0.000 A 
ATOM     21  O   UNL     1       2.636   6.733  19.234  0.00  0.00    +0.000 OA
BRANCH  20  22
ATOM     22  C   UNL     1       1.119   8.121  20.691  0.00  0.00    +0.000 A 
ATOM     23  N   UNL     1       0.567   8.298  21.879  0.00  0.00    +0.000 NA
ATOM     24  C   UNL     1       0.028   9.580  21.971  0.00  0.00    +0.000 A 
ATOM     25  C   UNL     1      -0.652  10.136  23.077  0.00  0.00    +0.000 A 
ATOM     26  C   UNL     1      -1.170  11.441  23.003  0.00  0.00    +0.000 A 
ATOM     27  C   UNL     1      -1.010  12.198  21.847  0.00  0.00    +0.000 A 
ATOM     28  C   UNL     1      -0.321  11.678  20.749  0.00  0.00    +0.000 A 
ATOM     29  C   UNL     1       0.187  10.369  20.831  0.00  0.00    +0.000 A 
ATOM     30  S   UNL     1       1.060   9.476  19.645  0.00  0.00    +0.000 S 
ENDBRANCH  20  22
ENDBRANCH   2  17
TORSDOF 4
ENDMDL
MODEL 3
REMARK VINA RESULT:      -8.6      1.061      1.097
REMARK  Name = 
REMARK  4 active torsions:
REMARK  status: ('A' for Active; 'I' for Inactive)
REMARK    1  A    between atoms: C_2  and  C_16
REMARK    2  A    between atoms: N_3  and  C_4
REMARK    3  A    between atoms: C_9  and  N_10
REMARK    4  A    between atoms: C_19  and  C_20
REMARK                            x       y       z     vdW  Elec       q    Type
REMARK                         _______ _______ _______ _____ _____    ______ ____
ROOT
ATOM      1  O   UNL     1       2.369   6.187  20.361  0.00  0.00    +0.000 OA
ATOM      2  C   UNL     1       2.277   6.755  19.271  0.00  0.00    +0.000 C 
ATOM      3  N   UNL     1       2.445   6.076  18.066  0.00  0.00    +0.000 N 
ATOM      4  H   UNL     1       2.038   6.491  17.232  0.00  0.00    +0.000 HD
ENDROOT
BRANCH   3   5
ATOM      5  C   UNL     1       2.729   4.677  18.024  0.00  0.00    +0.000 A 
ATOM      6  C   UNL     1       1.677   3.766  18.209  0.00  0.00    +0.000 A 
ATOM      7  C   UNL     1       1.895   2.383  18.158  0.00  0.00    +0.000 A 
ATOM      8  C   UNL     1       3.161   1.891  17.860  0.00  0.00    +0.000 A 
ATOM      9  C   UNL     1       4.209   2.783  17.637  0.00  0.00    +0.000 A 
ATOM     10  C   UNL     1       4.025   4.174  17.759  0.00  0.00    +0.000 A 
BRANCH  10  11
ATOM     11  N   UNL     1       5.161   5.000  17.594  0.00  0.00    +0.000 N 
ATOM     12  C   UNL     1       5.522   5.610  16.336  0.00  0.00    +0.000 C 
ATOM     13  C   UNL     1       6.979   5.986  16.515  0.00  0.00    +0.000 C 
ATOM     14  C   UNL     1       7.145   6.169  18.016  0.00  0.00    +0.000 C 
ATOM     15  C   UNL     1       6.053   5.319  18.608  0.00  0.00    +0.000 C 
ATOM     16  O   UNL     1       5.989   5.007  19.788  0.00  0.00    +0.000 OA
ENDBRANCH  10  11
ENDBRANCH   3   5
BRANCH   2  17
ATOM     17  C   UNL     1       1.892   8.165  19.208  0.00  0.00    +0.000 A 
ATOM     18  C   UNL     1       1.865   8.996  18.100  0.00  0.00    +0.000 A 
ATOM     19  C   UNL     1       1.330  10.233  18.519  0.00  0.00    +0.000 A 
ATOM     20  C   UNL     1       1.024  10.123  19.867  0.00  0.00    +0.000 A 
ATOM     21  O   UNL     1       1.411   8.856  20.294  0.00  0.00    +0.000 OA
BRANCH  20  22
ATOM     22  C   UNL     1       0.403  11.129  20.705  0.00  0.00    +0.000 A 
ATOM     23  N   UNL     1      -0.636  10.874  21.482  0.00  0.00    +0.000 NA
ATOM     24  C   UNL     1      -1.031  12.032  22.150  0.00  0.00    +0.000 A 
ATOM     25  C   UNL     1      -2.106  12.163  23.056  0.00  0.00    +0.000 A 
ATOM     26  C   UNL     1      -2.400  13.414  23.626  0.00  0.00    +0.000 A 
ATOM     27  C   UNL     1      -1.631  14.530  23.310  0.00  0.00    +0.000 A 
ATOM     28  C   UNL     1      -0.549  14.420  22.435  0.00  0.00    +0.000 A 
ATOM     29  C   UNL     1      -0.268  13.165  21.866  0.00  0.00    +0.000 A 
ATOM     30  S   UNL     1       0.983  12.739  20.760  0.00  0.00    +0.000 S 
ENDBRANCH  20  22
ENDBRANCH   2  17
TORSDOF 4
ENDMDL
MODEL 4
REMARK VINA RESULT:      -8.6      2.042      3.553
REMARK  Name = 
REMARK  4 active torsions:
REMARK  status: ('A' for Active; 'I' for Inactive)
REMARK    1  A    between atoms: C_2  and  C_16
REMARK    2  A    between atoms: N_3  and  C_4
REMARK    3  A    between atoms: C_9  and  N_10
REMARK    4  A    between atoms: C_19  and  C_20
REMARK                            x       y       z     vdW  Elec       q    Type
REMARK                         _______ _______ _______ _____ _____    ______ ____
ROOT
ATOM      1  O   UNL     1       4.683   3.698  18.341  0.00  0.00    +0.000 OA
ATOM      2  C   UNL     1       4.130   4.781  18.142  0.00  0.00    +0.000 C 
ATOM      3  N   UNL     1       4.354   5.525  16.986  0.00  0.00    +0.000 N 
ATOM      4  H   UNL     1       3.649   6.208  16.722  0.00  0.00    +0.000 HD
ENDROOT
BRANCH   3   5
ATOM      5  C   UNL     1       5.238   5.074  15.960  0.00  0.00    +0.000 A 
ATOM      6  C   UNL     1       4.691   4.537  14.783  0.00  0.00    +0.000 A 
ATOM      7  C   UNL     1       5.510   4.097  13.735  0.00  0.00    +0.000 A 
ATOM      8  C   UNL     1       6.891   4.242  13.825  0.00  0.00    +0.000 A 
ATOM      9  C   UNL     1       7.447   4.807  14.972  0.00  0.00    +0.000 A 
ATOM     10  C   UNL     1       6.645   5.186  16.065  0.00  0.00    +0.000 A 
BRANCH  10  11
ATOM     11  N   UNL     1       7.301   5.675  17.218  0.00  0.00    +0.000 N 
ATOM     12  C   UNL     1       7.857   4.819  18.238  0.00  0.00    +0.000 C 
ATOM     13  C   UNL     1       8.021   5.732  19.436  0.00  0.00    +0.000 C 
ATOM     14  C   UNL     1       8.175   7.123  18.838  0.00  0.00    +0.000 C 
ATOM     15  C   UNL     1       7.487   7.021  17.503  0.00  0.00    +0.000 C 
ATOM     16  O   UNL     1       7.185   7.982  16.811  0.00  0.00    +0.000 OA
ENDBRANCH  10  11
ENDBRANCH   3   5
BRANCH   2  17
ATOM     17  C   UNL     1       3.133   5.281  19.089  0.00  0.00    +0.000 A 
ATOM     18  C   UNL     1       2.526   4.600  20.131  0.00  0.00    +0.000 A 
ATOM     19  C   UNL     1       1.718   5.528  20.822  0.00  0.00    +0.000 A 
ATOM     20  C   UNL     1       1.865   6.758  20.199  0.00  0.00    +0.000 A 
ATOM     21  O   UNL     1       2.709   6.589  19.106  0.00  0.00    +0.000 OA
BRANCH  20  22
ATOM     22  C   UNL     1       1.265   8.015  20.598  0.00  0.00    +0.000 A 
ATOM     23  N   UNL     1       0.702   8.198  21.780  0.00  0.00    +0.000 NA
ATOM     24  C   UNL     1       0.191   9.491  21.874  0.00  0.00    +0.000 A 
ATOM     25  C   UNL     1      -0.489  10.056  22.975  0.00  0.00    +0.000 A 
ATOM     26  C   UNL     1      -0.977  11.373  22.903  0.00  0.00    +0.000 A 
ATOM     27  C   UNL     1      -0.787  12.133  21.753  0.00  0.00    +0.000 A 
ATOM     28  C   UNL     1      -0.096  11.603  20.660  0.00  0.00    +0.000 A 
ATOM     29  C   UNL     1       0.381  10.283  20.741  0.00  0.00    +0.000 A 
ATOM     30  S   UNL     1       1.248   9.377  19.559  0.00  0.00    +0.000 S 
ENDBRANCH  20  22
ENDBRANCH   2  17
TORSDOF 4
ENDMDL
MODEL 5
REMARK VINA RESULT:      -8.5      1.098      1.386
REMARK  Name = 
REMARK  4 active torsions:
REMARK  status: ('A' for Active; 'I' for Inactive)
REMARK    1  A    between atoms: C_2  and  C_16
REMARK    2  A    between atoms: N_3  and  C_4
REMARK    3  A    between atoms: C_9  and  N_10
REMARK    4  A    between atoms: C_19  and  C_20
REMARK                            x       y       z     vdW  Elec       q    Type
REMARK                         _______ _______ _______ _____ _____    ______ ____
ROOT
ATOM      1  O   UNL     1       2.689   6.286  20.221  0.00  0.00    +0.000 OA
ATOM      2  C   UNL     1       2.400   6.758  19.119  0.00  0.00    +0.000 C 
ATOM      3  N   UNL     1       2.369   5.979  17.965  0.00  0.00    +0.000 N 
ATOM      4  H   UNL     1       1.818   6.320  17.182  0.00  0.00    +0.000 HD
ENDROOT
BRANCH   3   5
ATOM      5  C   UNL     1       2.665   4.583  17.992  0.00  0.00    +0.000 A 
ATOM      6  C   UNL     1       1.620   3.672  18.215  0.00  0.00    +0.000 A 
ATOM      7  C   UNL     1       1.849   2.290  18.231  0.00  0.00    +0.000 A 
ATOM      8  C   UNL     1       3.121   1.795  17.965  0.00  0.00    +0.000 A 
ATOM      9  C   UNL     1       4.163   2.684  17.705  0.00  0.00    +0.000 A 
ATOM     10  C   UNL     1       3.967   4.078  17.758  0.00  0.00    +0.000 A 
BRANCH  10  11
ATOM     11  N   UNL     1       5.097   4.904  17.560  0.00  0.00    +0.000 N 
ATOM     12  C   UNL     1       5.443   5.482  16.283  0.00  0.00    +0.000 C 
ATOM     13  C   UNL     1       6.899   5.870  16.437  0.00  0.00    +0.000 C 
ATOM     14  C   UNL     1       7.079   6.094  17.931  0.00  0.00    +0.000 C 
ATOM     15  C   UNL     1       5.997   5.255  18.556  0.00  0.00    +0.000 C 
ATOM     16  O   UNL     1       5.946   4.976  19.745  0.00  0.00    +0.000 OA
ENDBRANCH  10  11
ENDBRANCH   3   5
BRANCH   2  17
ATOM     17  C   UNL     1       1.987   8.157  19.006  0.00  0.00    +0.000 A 
ATOM     18  C   UNL     1       2.016   8.970  17.885  0.00  0.00    +0.000 A 
ATOM     19  C   UNL     1       1.423  10.199  18.244  0.00  0.00    +0.000 A 
ATOM     20  C   UNL     1       1.028  10.102  19.570  0.00  0.00    +0.000 A 
ATOM     21  O   UNL     1       1.416   8.853  20.045  0.00  0.00    +0.000 OA
BRANCH  20  22
ATOM     22  C   UNL     1       0.328  11.105  20.346  0.00  0.00    +0.000 A 
ATOM     23  N   UNL     1       0.068  12.317  19.885  0.00  0.00    +0.000 NA
ATOM     24  C   UNL     1      -0.592  13.068  20.856  0.00  0.00    +0.000 A 
ATOM     25  C   UNL     1      -1.024  14.408  20.742  0.00  0.00    +0.000 A 
ATOM     26  C   UNL     1      -1.651  15.042  21.829  0.00  0.00    +0.000 A 
ATOM     27  C   UNL     1      -1.859  14.355  23.021  0.00  0.00    +0.000 A 
ATOM     28  C   UNL     1      -1.461  13.023  23.149  0.00  0.00    +0.000 A 
ATOM     29  C   UNL     1      -0.829  12.400  22.057  0.00  0.00    +0.000 A 
ATOM     30  S   UNL     1      -0.231  10.789  21.934  0.00  0.00    +0.000 S 
ENDBRANCH  20  22
ENDBRANCH   2  17
TORSDOF 4
ENDMDL
MODEL 6
REMARK VINA RESULT:      -8.4      2.133      3.735
REMARK  Name = 
REMARK  4 active torsions:
REMARK  status: ('A' for Active; 'I' for Inactive)
REMARK    1  A    between atoms: C_2  and  C_16
REMARK    2  A    between atoms: N_3  and  C_4
REMARK    3  A    between atoms: C_9  and  N_10
REMARK    4  A    between atoms: C_19  and  C_20
REMARK                            x       y       z     vdW  Elec       q    Type
REMARK                         _______ _______ _______ _____ _____    ______ ____
ROOT
ATOM      1  O   UNL     1       1.852   8.009  17.614  0.00  0.00    +0.000 OA
ATOM      2  C   UNL     1       2.172   7.651  18.749  0.00  0.00    +0.000 C 
ATOM      3  N   UNL     1       3.159   6.693  18.971  0.00  0.00    +0.000 N 
ATOM      4  H   UNL     1       3.608   6.684  19.883  0.00  0.00    +0.000 HD
ENDROOT
BRANCH   3   5
ATOM      5  C   UNL     1       3.862   6.072  17.895  0.00  0.00    +0.000 A 
ATOM      6  C   UNL     1       4.750   6.845  17.130  0.00  0.00    +0.000 A 
ATOM      7  C   UNL     1       5.481   6.283  16.075  0.00  0.00    +0.000 A 
ATOM      8  C   UNL     1       5.377   4.922  15.807  0.00  0.00    +0.000 A 
ATOM      9  C   UNL     1       4.527   4.133  16.580  0.00  0.00    +0.000 A 
ATOM     10  C   UNL     1       3.729   4.695  17.596  0.00  0.00    +0.000 A 
BRANCH  10  11
ATOM     11  N   UNL     1       2.837   3.834  18.276  0.00  0.00    +0.000 N 
ATOM     12  C   UNL     1       3.236   2.983  19.371  0.00  0.00    +0.000 C 
ATOM     13  C   UNL     1       2.127   1.954  19.462  0.00  0.00    +0.000 C 
ATOM     14  C   UNL     1       0.906   2.658  18.887  0.00  0.00    +0.000 C 
ATOM     15  C   UNL     1       1.487   3.707  17.977  0.00  0.00    +0.000 C 
ATOM     16  O   UNL     1       0.841   4.332  17.148  0.00  0.00    +0.000 OA
ENDBRANCH  10  11
ENDBRANCH   3   5
BRANCH   2  17
ATOM     17  C   UNL     1       1.579   8.299  19.918  0.00  0.00    +0.000 A 
ATOM     18  C   UNL     1       1.432   7.789  21.197  0.00  0.00    +0.000 A 
ATOM     19  C   UNL     1       0.899   8.820  22.000  0.00  0.00    +0.000 A 
ATOM     20  C   UNL     1       0.752   9.942  21.198  0.00  0.00    +0.000 A 
ATOM     21  O   UNL     1       1.136   9.600  19.905  0.00  0.00    +0.000 OA
BRANCH  20  22
ATOM     22  C   UNL     1       0.289  11.252  21.609  0.00  0.00    +0.000 A 
ATOM     23  N   UNL     1       0.859  12.374  21.203  0.00  0.00    +0.000 NA
ATOM     24  C   UNL     1       0.219  13.472  21.776  0.00  0.00    +0.000 A 
ATOM     25  C   UNL     1       0.546  14.833  21.593  0.00  0.00    +0.000 A 
ATOM     26  C   UNL     1      -0.178  15.830  22.272  0.00  0.00    +0.000 A 
ATOM     27  C   UNL     1      -1.226  15.485  23.120  0.00  0.00    +0.000 A 
ATOM     28  C   UNL     1      -1.581  14.146  23.298  0.00  0.00    +0.000 A 
ATOM     29  C   UNL     1      -0.847  13.158  22.620  0.00  0.00    +0.000 A 
ATOM     30  S   UNL     1      -1.052  11.448  22.656  0.00  0.00    +0.000 S 
ENDBRANCH  20  22
ENDBRANCH   2  17
TORSDOF 4
ENDMDL
MODEL 7
REMARK VINA RESULT:      -8.4      0.976      1.161
REMARK  Name = 
REMARK  4 active torsions:
REMARK  status: ('A' for Active; 'I' for Inactive)
REMARK    1  A    between atoms: C_2  and  C_16
REMARK    2  A    between atoms: N_3  and  C_4
REMARK    3  A    between atoms: C_9  and  N_10
REMARK    4  A    between atoms: C_19  and  C_20
REMARK                            x       y       z     vdW  Elec       q    Type
REMARK                         _______ _______ _______ _____ _____    ______ ____
ROOT
ATOM      1  O   UNL     1       3.048   6.223  20.098  0.00  0.00    +0.000 OA
ATOM      2  C   UNL     1       2.606   6.577  19.003  0.00  0.00    +0.000 C 
ATOM      3  N   UNL     1       2.377   5.671  17.970  0.00  0.00    +0.000 N 
ATOM      4  H   UNL     1       1.720   5.943  17.243  0.00  0.00    +0.000 HD
ENDROOT
BRANCH   3   5
ATOM      5  C   UNL     1       2.638   4.275  18.121  0.00  0.00    +0.000 A 
ATOM      6  C   UNL     1       1.603   3.436  18.566  0.00  0.00    +0.000 A 
ATOM      7  C   UNL     1       1.797   2.057  18.712  0.00  0.00    +0.000 A 
ATOM      8  C   UNL     1       3.015   1.486  18.359  0.00  0.00    +0.000 A 
ATOM      9  C   UNL     1       4.041   2.300  17.881  0.00  0.00    +0.000 A 
ATOM     10  C   UNL     1       3.889   3.698  17.798  0.00  0.00    +0.000 A 
BRANCH  10  11
ATOM     11  N   UNL     1       5.008   4.452  17.378  0.00  0.00    +0.000 N 
ATOM     12  C   UNL     1       5.198   4.900  16.019  0.00  0.00    +0.000 C 
ATOM     13  C   UNL     1       6.674   5.235  15.945  0.00  0.00    +0.000 C 
ATOM     14  C   UNL     1       7.060   5.580  17.375  0.00  0.00    +0.000 C 
ATOM     15  C   UNL     1       6.045   4.848  18.212  0.00  0.00    +0.000 C 
ATOM     16  O   UNL     1       6.145   4.676  19.418  0.00  0.00    +0.000 OA
ENDBRANCH  10  11
ENDBRANCH   3   5
BRANCH   2  17
ATOM     17  C   UNL     1       2.215   7.969  18.785  0.00  0.00    +0.000 A 
ATOM     18  C   UNL     1       2.483   8.771  17.687  0.00  0.00    +0.000 A 
ATOM     19  C   UNL     1       1.816   9.997  17.892  0.00  0.00    +0.000 A 
ATOM     20  C   UNL     1       1.141   9.910  19.101  0.00  0.00    +0.000 A 
ATOM     21  O   UNL     1       1.426   8.670  19.665  0.00  0.00    +0.000 OA
BRANCH  20  22
ATOM     22  C   UNL     1       0.280  10.914  19.693  0.00  0.00    +0.000 A 
ATOM     23  N   UNL     1      -1.008  11.013  19.407  0.00  0.00    +0.000 NA
ATOM     24  C   UNL     1      -1.573  12.080  20.104  0.00  0.00    +0.000 A 
ATOM     25  C   UNL     1      -2.917  12.508  20.053  0.00  0.00    +0.000 A 
ATOM     26  C   UNL     1      -3.329  13.630  20.794  0.00  0.00    +0.000 A 
ATOM     27  C   UNL     1      -2.420  14.321  21.590  0.00  0.00    +0.000 A 
ATOM     28  C   UNL     1      -1.091  13.901  21.674  0.00  0.00    +0.000 A 
ATOM     29  C   UNL     1      -0.688  12.782  20.924  0.00  0.00    +0.000 A 
ATOM     30  S   UNL     1       0.870  12.054  20.826  0.00  0.00    +0.000 S 
ENDBRANCH  20  22
ENDBRANCH   2  17
TORSDOF 4
ENDMDL
MODEL 8
REMARK VINA RESULT:      -8.4      1.914      3.508
REMARK  Name = 
REMARK  4 active torsions:
REMARK  status: ('A' for Active; 'I' for Inactive)
REMARK    1  A    between atoms: C_2  and  C_16
REMARK    2  A    between atoms: N_3  and  C_4
REMARK    3  A    between atoms: C_9  and  N_10
REMARK    4  A    between atoms: C_19  and  C_20
REMARK                            x       y       z     vdW  Elec       q    Type
REMARK                         _______ _______ _______ _____ _____    ______ ____
ROOT
ATOM      1  O   UNL     1       2.063   8.322  17.652  0.00  0.00    +0.000 OA
ATOM      2  C   UNL     1       2.170   7.843  18.783  0.00  0.00    +0.000 C 
ATOM      3  N   UNL     1       2.994   6.752  19.050  0.00  0.00    +0.000 N 
ATOM      4  H   UNL     1       3.300   6.618  20.010  0.00  0.00    +0.000 HD
ENDROOT
BRANCH   3   5
ATOM      5  C   UNL     1       3.769   6.126  18.027  0.00  0.00    +0.000 A 
ATOM      6  C   UNL     1       4.673   6.905  17.289  0.00  0.00    +0.000 A 
ATOM      7  C   UNL     1       5.474   6.340  16.288  0.00  0.00    +0.000 A 
ATOM      8  C   UNL     1       5.423   4.970  16.051  0.00  0.00    +0.000 A 
ATOM      9  C   UNL     1       4.557   4.176  16.800  0.00  0.00    +0.000 A 
ATOM     10  C   UNL     1       3.691   4.738  17.758  0.00  0.00    +0.000 A 
BRANCH  10  11
ATOM     11  N   UNL     1       2.790   3.868  18.415  0.00  0.00    +0.000 N 
ATOM     12  C   UNL     1       3.149   3.079  19.569  0.00  0.00    +0.000 C 
ATOM     13  C   UNL     1       2.077   2.009  19.630  0.00  0.00    +0.000 C 
ATOM     14  C   UNL     1       0.871   2.637  18.947  0.00  0.00    +0.000 C 
ATOM     15  C   UNL     1       1.470   3.672  18.033  0.00  0.00    +0.000 C 
ATOM     16  O   UNL     1       0.857   4.235  17.138  0.00  0.00    +0.000 OA
ENDBRANCH  10  11
ENDBRANCH   3   5
BRANCH   2  17
ATOM     17  C   UNL     1       1.492   8.475  19.914  0.00  0.00    +0.000 A 
ATOM     18  C   UNL     1       1.507   8.090  21.245  0.00  0.00    +0.000 A 
ATOM     19  C   UNL     1       0.791   9.067  21.970  0.00  0.00    +0.000 A 
ATOM     20  C   UNL     1       0.372  10.035  21.070  0.00  0.00    +0.000 A 
ATOM     21  O   UNL     1       0.774   9.642  19.797  0.00  0.00    +0.000 OA
BRANCH  20  22
ATOM     22  C   UNL     1      -0.351  11.253  21.374  0.00  0.00    +0.000 A 
ATOM     23  N   UNL     1      -0.247  11.878  22.534  0.00  0.00    +0.000 NA
ATOM     24  C   UNL     1      -1.071  13.002  22.549  0.00  0.00    +0.000 A 
ATOM     25  C   UNL     1      -1.242  13.914  23.614  0.00  0.00    +0.000 A 
ATOM     26  C   UNL     1      -2.142  14.987  23.486  0.00  0.00    +0.000 A 
ATOM     27  C   UNL     1      -2.864  15.165  22.310  0.00  0.00    +0.000 A 
ATOM     28  C   UNL     1      -2.694  14.290  21.235  0.00  0.00    +0.000 A 
ATOM     29  C   UNL     1      -1.797  13.216  21.376  0.00  0.00    +0.000 A 
ATOM     30  S   UNL     1      -1.398  11.988  20.235  0.00  0.00    +0.000 S 
ENDBRANCH  20  22
ENDBRANCH   2  17
TORSDOF 4
ENDMDL
MODEL 9
REMARK VINA RESULT:      -8.4      1.632      1.655
REMARK  Name = 
REMARK  4 active torsions:
REMARK  status: ('A' for Active; 'I' for Inactive)
REMARK    1  A    between atoms: C_2  and  C_16
REMARK    2  A    between atoms: N_3  and  C_4
REMARK    3  A    between atoms: C_9  and  N_10
REMARK    4  A    between atoms: C_19  and  C_20
REMARK                            x       y       z     vdW  Elec       q    Type
REMARK                         _______ _______ _______ _____ _____    ______ ____
ROOT
ATOM      1  O   UNL     1       1.861   6.041  17.916  0.00  0.00    +0.000 OA
ATOM      2  C   UNL     1       2.289   6.749  18.829  0.00  0.00    +0.000 C 
ATOM      3  N   UNL     1       3.100   6.243  19.841  0.00  0.00    +0.000 N 
ATOM      4  H   UNL     1       3.681   6.902  20.352  0.00  0.00    +0.000 HD
ENDROOT
BRANCH   3   5
ATOM      5  C   UNL     1       3.490   4.870  19.877  0.00  0.00    +0.000 A 
ATOM      6  C   UNL     1       2.674   3.951  20.557  0.00  0.00    +0.000 A 
ATOM      7  C   UNL     1       2.997   2.589  20.608  0.00  0.00    +0.000 A 
ATOM      8  C   UNL     1       4.114   2.115  19.926  0.00  0.00    +0.000 A 
ATOM      9  C   UNL     1       4.914   3.009  19.216  0.00  0.00    +0.000 A 
ATOM     10  C   UNL     1       4.646   4.391  19.216  0.00  0.00    +0.000 A 
BRANCH  10  11
ATOM     11  N   UNL     1       5.556   5.232  18.535  0.00  0.00    +0.000 N 
ATOM     12  C   UNL     1       5.314   5.755  17.211  0.00  0.00    +0.000 C 
ATOM     13  C   UNL     1       6.685   6.182  16.727  0.00  0.00    +0.000 C 
ATOM     14  C   UNL     1       7.462   6.483  18.001  0.00  0.00    +0.000 C 
ATOM     15  C   UNL     1       6.775   5.651  19.050  0.00  0.00    +0.000 C 
ATOM     16  O   UNL     1       7.235   5.429  20.160  0.00  0.00    +0.000 OA
ENDBRANCH  10  11
ENDBRANCH   3   5
BRANCH   2  17
ATOM     17  C   UNL     1       2.025   8.188  18.825  0.00  0.00    +0.000 A 
ATOM     18  C   UNL     1       2.097   9.069  17.759  0.00  0.00    +0.000 A 
ATOM     19  C   UNL     1       1.657  10.326  18.224  0.00  0.00    +0.000 A 
ATOM     20  C   UNL     1       1.308  10.181  19.559  0.00  0.00    +0.000 A 
ATOM     21  O   UNL     1       1.576   8.868  19.933  0.00  0.00    +0.000 OA
BRANCH  20  22
ATOM     22  C   UNL     1       0.753  11.197  20.430  0.00  0.00    +0.000 A 
ATOM     23  N   UNL     1      -0.205  10.945  21.306  0.00  0.00    +0.000 NA
ATOM     24  C   UNL     1      -0.553  12.112  21.984  0.00  0.00    +0.000 A 
ATOM     25  C   UNL     1      -1.541  12.248  22.984  0.00  0.00    +0.000 A 
ATOM     26  C   UNL     1      -1.800  13.507  23.553  0.00  0.00    +0.000 A 
ATOM     27  C   UNL     1      -1.082  14.627  23.143  0.00  0.00    +0.000 A 
ATOM     28  C   UNL     1      -0.085  14.512  22.172  0.00  0.00    +0.000 A 
ATOM     29  C   UNL     1       0.162  13.249  21.606  0.00  0.00    +0.000 A 
ATOM     30  S   UNL     1       1.310  12.816  20.396  0.00  0.00    +0.000 S 
ENDBRANCH  20  22
ENDBRANCH   2  17
TORSDOF 4
ENDMDL
