MODEL 1
REMARK VINA RESULT:      -9.1      0.000      0.000
REMARK  Name = 
REMARK  6 active torsions:
REMARK  status: ('A' for Active; 'I' for Inactive)
REMARK    1  A    between atoms: C_1  and  C_2
REMARK    2  A    between atoms: C_5  and  N_6
REMARK    3  A    between atoms: C_7  and  C_9
REMARK    4  A    between atoms: C_11  and  C_12
REMARK    5  A    between atoms: C_21  and  C_22
REMARK    6  A    between atoms: C_27  and  C_28
REMARK                            x       y       z     vdW  Elec       q    Type
REMARK                         _______ _______ _______ _____ _____    ______ ____
ROOT
ATOM      1  C   UNL     1       2.719   6.743  18.627  0.00  0.00    +0.000 A 
ATOM      2  C   UNL     1       3.702   6.557  17.509  0.00  0.00    +0.000 A 
ATOM      3  C   UNL     1       4.268   5.344  17.396  0.00  0.00    +0.000 A 
ATOM      4  N   UNL     1       3.899   4.356  18.311  0.00  0.00    +0.000 N 
ATOM      5  C   UNL     1       4.311   3.053  18.438  0.00  0.00    +0.000 A 
ATOM      6  N   UNL     1       3.724   2.438  19.442  0.00  0.00    +0.000 NA
ATOM      7  C   UNL     1       2.876   3.391  20.007  0.00  0.00    +0.000 A 
ATOM      8  C   UNL     1       2.967   4.595  19.322  0.00  0.00    +0.000 A 
ATOM      9  N   UNL     1       2.366   5.820  19.478  0.00  0.00    +0.000 NA
ENDROOT
BRANCH   3  10
ATOM     10  C   UNL     1       5.249   5.153  16.316  0.00  0.00    +0.000 A 
ATOM     11  C   UNL     1       4.877   4.509  15.128  0.00  0.00    +0.000 A 
ATOM     12  C   UNL     1       5.830   4.233  14.144  0.00  0.00    +0.000 A 
ATOM     13  C   UNL     1       7.164   4.587  14.345  0.00  0.00    +0.000 A 
ATOM     14  C   UNL     1       7.543   5.227  15.524  0.00  0.00    +0.000 A 
ATOM     15  C   UNL     1       6.590   5.514  16.504  0.00  0.00    +0.000 A 
ENDBRANCH   3  10
BRANCH   7  16
ATOM     16  C   UNL     1       2.037   3.108  21.167  0.00  0.00    +0.000 C 
ATOM     17  N   UNL     1       0.696   3.171  20.905  0.00  0.00    +0.000 N 
ATOM     18  O   UNL     1       2.445   2.830  22.290  0.00  0.00    +0.000 OA
ATOM     19  H   UNL     1       0.378   3.390  19.969  0.00  0.00    +0.000 HD
ATOM     20  H   UNL     1       0.042   2.974  21.647  0.00  0.00    +0.000 HD
ENDBRANCH   7  16
BRANCH   1  22
ATOM     21  N   UNL     1       1.210   8.328  19.765  0.00  0.00    +0.000 N 
ATOM     22  C   UNL     1       2.123   8.143  18.737  0.00  0.00    +0.000 C 
ATOM     23  O   UNL     1       2.509   8.968  17.914  0.00  0.00    +0.000 OA
ATOM     24  H   UNL     1       1.021   7.496  20.319  0.00  0.00    +0.000 HD
BRANCH  21  29
ATOM     25  C   UNL     1      -1.479  13.295  20.959  0.00  0.00    +0.000 C 
ATOM     26  C   UNL     1      -0.781  12.001  20.667  0.00  0.00    +0.000 A 
ATOM     27  C   UNL     1      -0.686  11.537  19.363  0.00  0.00    +0.000 A 
ATOM     28  C   UNL     1      -0.034  10.336  19.085  0.00  0.00    +0.000 A 
ATOM     29  C   UNL     1       0.549   9.544  20.091  0.00  0.00    +0.000 A 
ATOM     30  C   UNL     1       0.461  10.009  21.420  0.00  0.00    +0.000 A 
ATOM     31  C   UNL     1       1.024   9.296  22.622  0.00  0.00    +0.000 C 
ATOM     32  C   UNL     1      -0.208  11.231  21.686  0.00  0.00    +0.000 A 
ENDBRANCH  21  29
ENDBRANCH   1  22
TORSDOF 4
ENDMDL
MODEL 2
REMARK VINA RESULT:      -8.9      0.406      1.314
REMARK  Name = 
REMARK  6 active torsions:
REMARK  status: ('A' for Active; 'I' for Inactive)
REMARK    1  A    between atoms: C_1  and  C_2
REMARK    2  A    between atoms: C_5  and  N_6
REMARK    3  A    between atoms: C_7  and  C_9
REMARK    4  A    between atoms: C_11  and  C_12
REMARK    5  A    between atoms: C_21  and  C_22
REMARK    6  A    between atoms: C_27  and  C_28
REMARK                            x       y       z     vdW  Elec       q    Type
REMARK                         _______ _______ _______ _____ _____    ______ ____
ROOT
ATOM      1  C   UNL     1       2.715   6.888  18.618  0.00  0.00    +0.000 A 
ATOM      2  C   UNL     1       3.702   6.679  17.508  0.00  0.00    +0.000 A 
ATOM      3  C   UNL     1       4.251   5.456  17.410  0.00  0.00    +0.000 A 
ATOM      4  N   UNL     1       3.862   4.481  18.331  0.00  0.00    +0.000 N 
ATOM      5  C   UNL     1       4.254   3.174  18.472  0.00  0.00    +0.000 A 
ATOM      6  N   UNL     1       3.651   2.577  19.477  0.00  0.00    +0.000 NA
ATOM      7  C   UNL     1       2.814   3.547  20.028  0.00  0.00    +0.000 A 
ATOM      8  C   UNL     1       2.927   4.743  19.334  0.00  0.00    +0.000 A 
ATOM      9  N   UNL     1       2.344   5.978  19.475  0.00  0.00    +0.000 NA
ENDROOT
BRANCH   3  10
ATOM     10  C   UNL     1       5.236   5.241  16.338  0.00  0.00    +0.000 A 
ATOM     11  C   UNL     1       4.867   4.574  15.161  0.00  0.00    +0.000 A 
ATOM     12  C   UNL     1       5.824   4.276  14.187  0.00  0.00    +0.000 A 
ATOM     13  C   UNL     1       7.158   4.631  14.386  0.00  0.00    +0.000 A 
ATOM     14  C   UNL     1       7.534   5.293  15.554  0.00  0.00    +0.000 A 
ATOM     15  C   UNL     1       6.577   5.602  16.524  0.00  0.00    +0.000 A 
ENDBRANCH   3  10
BRANCH   7  16
ATOM     16  C   UNL     1       1.963   3.287  21.186  0.00  0.00    +0.000 C 
ATOM     17  N   UNL     1       0.626   3.296  20.899  0.00  0.00    +0.000 N 
ATOM     18  O   UNL     1       2.359   3.071  22.326  0.00  0.00    +0.000 OA
ATOM     19  H   UNL     1       0.318   3.465  19.949  0.00  0.00    +0.000 HD
ATOM     20  H   UNL     1      -0.034   3.110  21.638  0.00  0.00    +0.000 HD
ENDBRANCH   7  16
BRANCH   1  22
ATOM     21  N   UNL     1       1.162   8.485  19.679  0.00  0.00    +0.000 N 
ATOM     22  C   UNL     1       2.140   8.299  18.712  0.00  0.00    +0.000 C 
ATOM     23  O   UNL     1       2.597   9.129  17.932  0.00  0.00    +0.000 OA
ATOM     24  H   UNL     1       0.920   7.648  20.204  0.00  0.00    +0.000 HD
BRANCH  21  29
ATOM     25  C   UNL     1      -1.464  13.446  21.025  0.00  0.00    +0.000 C 
ATOM     26  C   UNL     1      -0.788  12.159  20.658  0.00  0.00    +0.000 A 
ATOM     27  C   UNL     1       0.141  11.589  21.516  0.00  0.00    +0.000 A 
ATOM     28  C   UNL     1       0.769  10.390  21.181  0.00  0.00    +0.000 A 
ATOM     29  C   UNL     1       0.503   9.709  19.980  0.00  0.00    +0.000 A 
ATOM     30  C   UNL     1      -0.442  10.279  19.103  0.00  0.00    +0.000 A 
ATOM     31  C   UNL     1      -0.851   9.693  17.776  0.00  0.00    +0.000 C 
ATOM     32  C   UNL     1      -1.071  11.501  19.456  0.00  0.00    +0.000 A 
ENDBRANCH  21  29
ENDBRANCH   1  22
TORSDOF 4
ENDMDL
MODEL 3
REMARK VINA RESULT:      -8.4      2.497      4.791
REMARK  Name = 
REMARK  6 active torsions:
REMARK  status: ('A' for Active; 'I' for Inactive)
REMARK    1  A    between atoms: C_1  and  C_2
REMARK    2  A    between atoms: C_5  and  N_6
REMARK    3  A    between atoms: C_7  and  C_9
REMARK    4  A    between atoms: C_11  and  C_12
REMARK    5  A    between atoms: C_21  and  C_22
REMARK    6  A    between atoms: C_27  and  C_28
REMARK                            x       y       z     vdW  Elec       q    Type
REMARK                         _______ _______ _______ _____ _____    ______ ____
ROOT
ATOM      1  C   UNL     1       2.965   7.719  18.150  0.00  0.00    +0.000 A 
ATOM      2  C   UNL     1       2.166   6.581  18.715  0.00  0.00    +0.000 A 
ATOM      3  C   UNL     1       2.750   5.370  18.707  0.00  0.00    +0.000 A 
ATOM      4  N   UNL     1       4.042   5.263  18.188  0.00  0.00    +0.000 N 
ATOM      5  C   UNL     1       4.864   4.174  18.050  0.00  0.00    +0.000 A 
ATOM      6  N   UNL     1       6.020   4.486  17.505  0.00  0.00    +0.000 NA
ATOM      7  C   UNL     1       5.954   5.860  17.273  0.00  0.00    +0.000 A 
ATOM      8  C   UNL     1       4.732   6.369  17.688  0.00  0.00    +0.000 A 
ATOM      9  N   UNL     1       4.174   7.624  17.672  0.00  0.00    +0.000 NA
ENDROOT
BRANCH   3  10
ATOM     10  C   UNL     1       1.971   4.241  19.240  0.00  0.00    +0.000 A 
ATOM     11  C   UNL     1       1.965   3.973  20.616  0.00  0.00    +0.000 A 
ATOM     12  C   UNL     1       1.313   2.841  21.113  0.00  0.00    +0.000 A 
ATOM     13  C   UNL     1       0.673   1.963  20.239  0.00  0.00    +0.000 A 
ATOM     14  C   UNL     1       0.675   2.221  18.869  0.00  0.00    +0.000 A 
ATOM     15  C   UNL     1       1.317   3.358  18.371  0.00  0.00    +0.000 A 
ENDBRANCH   3  10
BRANCH   7  16
ATOM     16  C   UNL     1       7.049   6.609  16.663  0.00  0.00    +0.000 C 
ATOM     17  N   UNL     1       7.243   7.846  17.213  0.00  0.00    +0.000 N 
ATOM     18  O   UNL     1       7.761   6.210  15.746  0.00  0.00    +0.000 OA
ATOM     19  H   UNL     1       6.654   8.153  17.977  0.00  0.00    +0.000 HD
ATOM     20  H   UNL     1       7.990   8.426  16.862  0.00  0.00    +0.000 HD
ENDBRANCH   7  16
BRANCH   1  22
ATOM     21  N   UNL     1       1.320   9.256  19.161  0.00  0.00    +0.000 N 
ATOM     22  C   UNL     1       2.253   9.069  18.150  0.00  0.00    +0.000 C 
ATOM     23  O   UNL     1       2.574   9.856  17.265  0.00  0.00    +0.000 OA
ATOM     24  H   UNL     1       1.198   8.457  19.778  0.00  0.00    +0.000 HD
BRANCH  21  29
ATOM     25  C   UNL     1      -1.704  14.061  20.200  0.00  0.00    +0.000 C 
ATOM     26  C   UNL     1      -0.928  12.811  19.915  0.00  0.00    +0.000 A 
ATOM     27  C   UNL     1       0.230  12.530  20.624  0.00  0.00    +0.000 A 
ATOM     28  C   UNL     1       0.953  11.366  20.365  0.00  0.00    +0.000 A 
ATOM     29  C   UNL     1       0.558  10.433  19.390  0.00  0.00    +0.000 A 
ATOM     30  C   UNL     1      -0.621  10.708  18.666  0.00  0.00    +0.000 A 
ATOM     31  C   UNL     1      -1.195   9.827  17.586  0.00  0.00    +0.000 C 
ATOM     32  C   UNL     1      -1.344  11.898  18.939  0.00  0.00    +0.000 A 
ENDBRANCH  21  29
ENDBRANCH   1  22
TORSDOF 4
ENDMDL
MODEL 4
REMARK VINA RESULT:      -8.4      1.505      1.770
REMARK  Name = 
REMARK  6 active torsions:
REMARK  status: ('A' for Active; 'I' for Inactive)
REMARK    1  A    between atoms: C_1  and  C_2
REMARK    2  A    between atoms: C_5  and  N_6
REMARK    3  A    between atoms: C_7  and  C_9
REMARK    4  A    between atoms: C_11  and  C_12
REMARK    5  A    between atoms: C_21  and  C_22
REMARK    6  A    between atoms: C_27  and  C_28
REMARK                            x       y       z     vdW  Elec       q    Type
REMARK                         _______ _______ _______ _____ _____    ______ ____
ROOT
ATOM      1  C   UNL     1       2.633   6.680  19.168  0.00  0.00    +0.000 A 
ATOM      2  C   UNL     1       3.572   6.621  18.000  0.00  0.00    +0.000 A 
ATOM      3  C   UNL     1       4.113   5.424  17.718  0.00  0.00    +0.000 A 
ATOM      4  N   UNL     1       3.759   4.335  18.517  0.00  0.00    +0.000 N 
ATOM      5  C   UNL     1       4.152   3.022  18.468  0.00  0.00    +0.000 A 
ATOM      6  N   UNL     1       3.590   2.295  19.410  0.00  0.00    +0.000 NA
ATOM      7  C   UNL     1       2.779   3.182  20.118  0.00  0.00    +0.000 A 
ATOM      8  C   UNL     1       2.867   4.460  19.584  0.00  0.00    +0.000 A 
ATOM      9  N   UNL     1       2.294   5.664  19.912  0.00  0.00    +0.000 NA
ENDROOT
BRANCH   3  10
ATOM     10  C   UNL     1       5.052   5.355  16.587  0.00  0.00    +0.000 A 
ATOM     11  C   UNL     1       4.732   4.604  15.446  0.00  0.00    +0.000 A 
ATOM     12  C   UNL     1       5.663   4.452  14.416  0.00  0.00    +0.000 A 
ATOM     13  C   UNL     1       6.926   5.035  14.523  0.00  0.00    +0.000 A 
ATOM     14  C   UNL     1       7.252   5.782  15.653  0.00  0.00    +0.000 A 
ATOM     15  C   UNL     1       6.318   5.946  16.680  0.00  0.00    +0.000 A 
ENDBRANCH   3  10
BRANCH   7  16
ATOM     16  C   UNL     1       1.976   2.769  21.265  0.00  0.00    +0.000 C 
ATOM     17  N   UNL     1       0.630   2.920  21.078  0.00  0.00    +0.000 N 
ATOM     18  O   UNL     1       2.417   2.319  22.318  0.00  0.00    +0.000 OA
ATOM     19  H   UNL     1       0.284   3.282  20.198  0.00  0.00    +0.000 HD
ATOM     20  H   UNL     1      -0.001   2.644  21.815  0.00  0.00    +0.000 HD
ENDBRANCH   7  16
BRANCH   1  22
ATOM     21  N   UNL     1       1.958   8.921  18.384  0.00  0.00    +0.000 N 
ATOM     22  C   UNL     1       2.066   8.064  19.471  0.00  0.00    +0.000 C 
ATOM     23  O   UNL     1       1.760   8.285  20.639  0.00  0.00    +0.000 OA
ATOM     24  H   UNL     1       2.293   8.534  17.505  0.00  0.00    +0.000 HD
BRANCH  21  29
ATOM     25  C   UNL     1      -0.056  14.329  18.490  0.00  0.00    +0.000 C 
ATOM     26  C   UNL     1       0.450  12.918  18.460  0.00  0.00    +0.000 A 
ATOM     27  C   UNL     1       1.812  12.666  18.373  0.00  0.00    +0.000 A 
ATOM     28  C   UNL     1       2.288  11.355  18.349  0.00  0.00    +0.000 A 
ATOM     29  C   UNL     1       1.432  10.241  18.407  0.00  0.00    +0.000 A 
ATOM     30  C   UNL     1       0.046  10.487  18.498  0.00  0.00    +0.000 A 
ATOM     31  C   UNL     1      -1.016   9.420  18.569  0.00  0.00    +0.000 C 
ATOM     32  C   UNL     1      -0.423  11.826  18.520  0.00  0.00    +0.000 A 
ENDBRANCH  21  29
ENDBRANCH   1  22
TORSDOF 4
ENDMDL
MODEL 5
REMARK VINA RESULT:      -8.2      2.438      4.807
REMARK  Name = 
REMARK  6 active torsions:
REMARK  status: ('A' for Active; 'I' for Inactive)
REMARK    1  A    between atoms: C_1  and  C_2
REMARK    2  A    between atoms: C_5  and  N_6
REMARK    3  A    between atoms: C_7  and  C_9
REMARK    4  A    between atoms: C_11  and  C_12
REMARK    5  A    between atoms: C_21  and  C_22
REMARK    6  A    between atoms: C_27  and  C_28
REMARK                            x       y       z     vdW  Elec       q    Type
REMARK                         _______ _______ _______ _____ _____    ______ ____
ROOT
ATOM      1  C   UNL     1       3.049   7.584  18.278  0.00  0.00    +0.000 A 
ATOM      2  C   UNL     1       2.374   6.480  19.037  0.00  0.00    +0.000 A 
ATOM      3  C   UNL     1       3.025   5.306  19.104  0.00  0.00    +0.000 A 
ATOM      4  N   UNL     1       4.268   5.204  18.478  0.00  0.00    +0.000 N 
ATOM      5  C   UNL     1       5.138   4.148  18.379  0.00  0.00    +0.000 A 
ATOM      6  N   UNL     1       6.220   4.452  17.695  0.00  0.00    +0.000 NA
ATOM      7  C   UNL     1       6.052   5.786  17.323  0.00  0.00    +0.000 A 
ATOM      8  C   UNL     1       4.844   6.278  17.797  0.00  0.00    +0.000 A 
ATOM      9  N   UNL     1       4.213   7.494  17.698  0.00  0.00    +0.000 NA
ENDROOT
BRANCH   3  10
ATOM     10  C   UNL     1       2.366   4.208  19.828  0.00  0.00    +0.000 A 
ATOM     11  C   UNL     1       1.466   3.361  19.164  0.00  0.00    +0.000 A 
ATOM     12  C   UNL     1       0.761   2.384  19.871  0.00  0.00    +0.000 A 
ATOM     13  C   UNL     1       0.938   2.253  21.248  0.00  0.00    +0.000 A 
ATOM     14  C   UNL     1       1.830   3.090  21.917  0.00  0.00    +0.000 A 
ATOM     15  C   UNL     1       2.545   4.061  21.210  0.00  0.00    +0.000 A 
ENDBRANCH   3  10
BRANCH   7  16
ATOM     16  C   UNL     1       7.041   6.513  16.534  0.00  0.00    +0.000 C 
ATOM     17  N   UNL     1       7.512   5.811  15.458  0.00  0.00    +0.000 N 
ATOM     18  O   UNL     1       7.443   7.649  16.767  0.00  0.00    +0.000 OA
ATOM     19  H   UNL     1       7.160   4.880  15.276  0.00  0.00    +0.000 HD
ATOM     20  H   UNL     1       8.188   6.244  14.849  0.00  0.00    +0.000 HD
ENDBRANCH   7  16
BRANCH   1  22
ATOM     21  N   UNL     1       1.416   9.145  19.271  0.00  0.00    +0.000 N 
ATOM     22  C   UNL     1       2.261   8.889  18.201  0.00  0.00    +0.000 C 
ATOM     23  O   UNL     1       2.452   9.584  17.208  0.00  0.00    +0.000 OA
ATOM     24  H   UNL     1       1.399   8.416  19.981  0.00  0.00    +0.000 HD
BRANCH  21  29
ATOM     25  C   UNL     1      -1.792  13.874  20.084  0.00  0.00    +0.000 C 
ATOM     26  C   UNL     1      -0.968  12.642  19.857  0.00  0.00    +0.000 A 
ATOM     27  C   UNL     1       0.175  12.418  20.611  0.00  0.00    +0.000 A 
ATOM     28  C   UNL     1       0.943  11.272  20.407  0.00  0.00    +0.000 A 
ATOM     29  C   UNL     1       0.609  10.302  19.444  0.00  0.00    +0.000 A 
ATOM     30  C   UNL     1      -0.553  10.520  18.675  0.00  0.00    +0.000 A 
ATOM     31  C   UNL     1      -1.063   9.593  17.602  0.00  0.00    +0.000 C 
ATOM     32  C   UNL     1      -1.322  11.692  18.893  0.00  0.00    +0.000 A 
ENDBRANCH  21  29
ENDBRANCH   1  22
TORSDOF 4
ENDMDL
MODEL 6
REMARK VINA RESULT:      -8.0      2.576      4.964
REMARK  Name = 
REMARK  6 active torsions:
REMARK  status: ('A' for Active; 'I' for Inactive)
REMARK    1  A    between atoms: C_1  and  C_2
REMARK    2  A    between atoms: C_5  and  N_6
REMARK    3  A    between atoms: C_7  and  C_9
REMARK    4  A    between atoms: C_11  and  C_12
REMARK    5  A    between atoms: C_21  and  C_22
REMARK    6  A    between atoms: C_27  and  C_28
REMARK                            x       y       z     vdW  Elec       q    Type
REMARK                         _______ _______ _______ _____ _____    ______ ____
ROOT
ATOM      1  C   UNL     1       2.903   7.678  18.148  0.00  0.00    +0.000 A 
ATOM      2  C   UNL     1       2.226   6.623  18.973  0.00  0.00    +0.000 A 
ATOM      3  C   UNL     1       2.910   5.484  19.176  0.00  0.00    +0.000 A 
ATOM      4  N   UNL     1       4.186   5.370  18.620  0.00  0.00    +0.000 N 
ATOM      5  C   UNL     1       5.092   4.341  18.658  0.00  0.00    +0.000 A 
ATOM      6  N   UNL     1       6.196   4.622  18.000  0.00  0.00    +0.000 NA
ATOM      7  C   UNL     1       6.005   5.910  17.501  0.00  0.00    +0.000 A 
ATOM      8  C   UNL     1       4.760   6.399  17.871  0.00  0.00    +0.000 A 
ATOM      9  N   UNL     1       4.097   7.578  17.633  0.00  0.00    +0.000 NA
ENDROOT
BRANCH   3  10
ATOM     10  C   UNL     1       2.251   4.432  19.967  0.00  0.00    +0.000 A 
ATOM     11  C   UNL     1       2.587   4.244  21.315  0.00  0.00    +0.000 A 
ATOM     12  C   UNL     1       2.041   3.182  22.039  0.00  0.00    +0.000 A 
ATOM     13  C   UNL     1       1.165   2.290  21.419  0.00  0.00    +0.000 A 
ATOM     14  C   UNL     1       0.826   2.468  20.079  0.00  0.00    +0.000 A 
ATOM     15  C   UNL     1       1.363   3.537  19.355  0.00  0.00    +0.000 A 
ENDBRANCH   3  10
BRANCH   7  16
ATOM     16  C   UNL     1       7.008   6.598  16.695  0.00  0.00    +0.000 C 
ATOM     17  N   UNL     1       7.257   7.881  17.102  0.00  0.00    +0.000 N 
ATOM     18  O   UNL     1       7.604   6.117  15.736  0.00  0.00    +0.000 OA
ATOM     19  H   UNL     1       6.764   8.256  17.902  0.00  0.00    +0.000 HD
ATOM     20  H   UNL     1       7.948   8.425  16.610  0.00  0.00    +0.000 HD
ENDBRANCH   7  16
BRANCH   1  22
ATOM     21  N   UNL     1       2.270   9.960  18.838  0.00  0.00    +0.000 N 
ATOM     22  C   UNL     1       2.080   8.941  17.915  0.00  0.00    +0.000 C 
ATOM     23  O   UNL     1       1.336   8.937  16.939  0.00  0.00    +0.000 OA
ATOM     24  H   UNL     1       2.924   9.739  19.585  0.00  0.00    +0.000 HD
BRANCH  21  29
ATOM     25  C   UNL     1      -0.140  15.204  18.723  0.00  0.00    +0.000 C 
ATOM     26  C   UNL     1       0.470  13.835  18.756  0.00  0.00    +0.000 A 
ATOM     27  C   UNL     1       1.776  13.641  18.330  0.00  0.00    +0.000 A 
ATOM     28  C   UNL     1       2.348  12.370  18.363  0.00  0.00    +0.000 A 
ATOM     29  C   UNL     1       1.648  11.238  18.816  0.00  0.00    +0.000 A 
ATOM     30  C   UNL     1       0.320  11.425  19.254  0.00  0.00    +0.000 A 
ATOM     31  C   UNL     1      -0.580  10.333  19.772  0.00  0.00    +0.000 C 
ATOM     32  C   UNL     1      -0.249  12.724  19.213  0.00  0.00    +0.000 A 
ENDBRANCH  21  29
ENDBRANCH   1  22
TORSDOF 4
ENDMDL
MODEL 7
REMARK VINA RESULT:      -7.9      2.376      4.521
REMARK  Name = 
REMARK  6 active torsions:
REMARK  status: ('A' for Active; 'I' for Inactive)
REMARK    1  A    between atoms: C_1  and  C_2
REMARK    2  A    between atoms: C_5  and  N_6
REMARK    3  A    between atoms: C_7  and  C_9
REMARK    4  A    between atoms: C_11  and  C_12
REMARK    5  A    between atoms: C_21  and  C_22
REMARK    6  A    between atoms: C_27  and  C_28
REMARK                            x       y       z     vdW  Elec       q    Type
REMARK                         _______ _______ _______ _____ _____    ______ ____
ROOT
ATOM      1  C   UNL     1       2.962   7.574  18.220  0.00  0.00    +0.000 A 
ATOM      2  C   UNL     1       2.239   6.373  18.755  0.00  0.00    +0.000 A 
ATOM      3  C   UNL     1       2.898   5.202  18.712  0.00  0.00    +0.000 A 
ATOM      4  N   UNL     1       4.192   5.191  18.188  0.00  0.00    +0.000 N 
ATOM      5  C   UNL     1       5.081   4.161  18.018  0.00  0.00    +0.000 A 
ATOM      6  N   UNL     1       6.213   4.560  17.480  0.00  0.00    +0.000 NA
ATOM      7  C   UNL     1       6.060   5.933  17.287  0.00  0.00    +0.000 A 
ATOM      8  C   UNL     1       4.809   6.352  17.718  0.00  0.00    +0.000 A 
ATOM      9  N   UNL     1       4.174   7.569  17.737  0.00  0.00    +0.000 NA
ENDROOT
BRANCH   3  10
ATOM     10  C   UNL     1       2.194   4.012  19.214  0.00  0.00    +0.000 A 
ATOM     11  C   UNL     1       1.452   3.207  18.338  0.00  0.00    +0.000 A 
ATOM     12  C   UNL     1       0.698   2.137  18.828  0.00  0.00    +0.000 A 
ATOM     13  C   UNL     1       0.669   1.870  20.197  0.00  0.00    +0.000 A 
ATOM     14  C   UNL     1       1.403   2.666  21.075  0.00  0.00    +0.000 A 
ATOM     15  C   UNL     1       2.167   3.730  20.587  0.00  0.00    +0.000 A 
ENDBRANCH   3  10
BRANCH   7  16
ATOM     16  C   UNL     1       7.104   6.765  16.697  0.00  0.00    +0.000 C 
ATOM     17  N   UNL     1       7.223   7.996  17.282  0.00  0.00    +0.000 N 
ATOM     18  O   UNL     1       7.834   6.439  15.767  0.00  0.00    +0.000 OA
ATOM     19  H   UNL     1       6.619   8.243  18.055  0.00  0.00    +0.000 HD
ATOM     20  H   UNL     1       7.931   8.631  16.946  0.00  0.00    +0.000 HD
ENDBRANCH   7  16
BRANCH   1  22
ATOM     21  N   UNL     1       1.236   8.981  19.283  0.00  0.00    +0.000 N 
ATOM     22  C   UNL     1       2.167   8.876  18.259  0.00  0.00    +0.000 C 
ATOM     23  O   UNL     1       2.428   9.702  17.389  0.00  0.00    +0.000 OA
ATOM     24  H   UNL     1       1.172   8.162  19.883  0.00  0.00    +0.000 HD
BRANCH  21  29
ATOM     25  C   UNL     1      -2.136  13.569  20.230  0.00  0.00    +0.000 C 
ATOM     26  C   UNL     1      -1.262  12.373  20.002  0.00  0.00    +0.000 A 
ATOM     27  C   UNL     1      -0.947  11.974  18.711  0.00  0.00    +0.000 A 
ATOM     28  C   UNL     1      -0.131  10.864  18.493  0.00  0.00    +0.000 A 
ATOM     29  C   UNL     1       0.404  10.103  19.548  0.00  0.00    +0.000 A 
ATOM     30  C   UNL     1       0.092  10.502  20.864  0.00  0.00    +0.000 A 
ATOM     31  C   UNL     1       0.573   9.809  22.113  0.00  0.00    +0.000 C 
ATOM     32  C   UNL     1      -0.742  11.632  21.069  0.00  0.00    +0.000 A 
ENDBRANCH  21  29
ENDBRANCH   1  22
TORSDOF 4
ENDMDL
MODEL 8
REMARK VINA RESULT:      -7.8      3.226      9.173
REMARK  Name = 
REMARK  6 active torsions:
REMARK  status: ('A' for Active; 'I' for Inactive)
REMARK    1  A    between atoms: C_1  and  C_2
REMARK    2  A    between atoms: C_5  and  N_6
REMARK    3  A    between atoms: C_7  and  C_9
REMARK    4  A    between atoms: C_11  and  C_12
REMARK    5  A    between atoms: C_21  and  C_22
REMARK    6  A    between atoms: C_27  and  C_28
REMARK                            x       y       z     vdW  Elec       q    Type
REMARK                         _______ _______ _______ _____ _____    ______ ____
ROOT
ATOM      1  C   UNL     1       0.802  10.157  19.960  0.00  0.00    +0.000 A 
ATOM      2  C   UNL     1      -0.468  10.179  19.161  0.00  0.00    +0.000 A 
ATOM      3  C   UNL     1      -0.948  11.387  18.821  0.00  0.00    +0.000 A 
ATOM      4  N   UNL     1      -0.235  12.518  19.224  0.00  0.00    +0.000 N 
ATOM      5  C   UNL     1      -0.486  13.852  19.029  0.00  0.00    +0.000 A 
ATOM      6  N   UNL     1       0.433  14.620  19.574  0.00  0.00    +0.000 NA
ATOM      7  C   UNL     1       1.342  13.739  20.160  0.00  0.00    +0.000 A 
ATOM      8  C   UNL     1       0.949  12.423  19.958  0.00  0.00    +0.000 A 
ATOM      9  N   UNL     1       1.474  11.211  20.332  0.00  0.00    +0.000 NA
ENDROOT
BRANCH   3  10
ATOM     10  C   UNL     1      -2.203  11.425  18.054  0.00  0.00    +0.000 A 
ATOM     11  C   UNL     1      -3.411  11.744  18.691  0.00  0.00    +0.000 A 
ATOM     12  C   UNL     1      -4.618  11.679  17.990  0.00  0.00    +0.000 A 
ATOM     13  C   UNL     1      -4.630  11.284  16.652  0.00  0.00    +0.000 A 
ATOM     14  C   UNL     1      -3.434  10.965  16.012  0.00  0.00    +0.000 A 
ATOM     15  C   UNL     1      -2.224  11.040  16.708  0.00  0.00    +0.000 A 
ENDBRANCH   3  10
BRANCH   7  16
ATOM     16  C   UNL     1       2.525  14.195  20.884  0.00  0.00    +0.000 C 
ATOM     17  N   UNL     1       3.564  14.556  20.071  0.00  0.00    +0.000 N 
ATOM     18  O   UNL     1       2.627  14.270  22.105  0.00  0.00    +0.000 OA
ATOM     19  H   UNL     1       3.456  14.498  19.066  0.00  0.00    +0.000 HD
ATOM     20  H   UNL     1       4.415  14.898  20.488  0.00  0.00    +0.000 HD
ENDBRANCH   7  16
BRANCH   1  22
ATOM     21  N   UNL     1       1.836   8.010  19.321  0.00  0.00    +0.000 N 
ATOM     22  C   UNL     1       1.294   8.766  20.350  0.00  0.00    +0.000 C 
ATOM     23  O   UNL     1       1.169   8.453  21.531  0.00  0.00    +0.000 OA
ATOM     24  H   UNL     1       1.821   8.462  18.410  0.00  0.00    +0.000 HD
BRANCH  21  29
ATOM     25  C   UNL     1       4.021   2.700  19.919  0.00  0.00    +0.000 C 
ATOM     26  C   UNL     1       3.461   4.081  19.748  0.00  0.00    +0.000 A 
ATOM     27  C   UNL     1       2.453   4.535  20.585  0.00  0.00    +0.000 A 
ATOM     28  C   UNL     1       1.932   5.820  20.432  0.00  0.00    +0.000 A 
ATOM     29  C   UNL     1       2.390   6.706  19.440  0.00  0.00    +0.000 A 
ATOM     30  C   UNL     1       3.417   6.254  18.586  0.00  0.00    +0.000 A 
ATOM     31  C   UNL     1       4.029   7.062  17.470  0.00  0.00    +0.000 C 
ATOM     32  C   UNL     1       3.935   4.944  18.753  0.00  0.00    +0.000 A 
ENDBRANCH  21  29
ENDBRANCH   1  22
TORSDOF 4
ENDMDL
MODEL 9
REMARK VINA RESULT:      -7.8      3.233      9.985
REMARK  Name = 
REMARK  6 active torsions:
REMARK  status: ('A' for Active; 'I' for Inactive)
REMARK    1  A    between atoms: C_1  and  C_2
REMARK    2  A    between atoms: C_5  and  N_6
REMARK    3  A    between atoms: C_7  and  C_9
REMARK    4  A    between atoms: C_11  and  C_12
REMARK    5  A    between atoms: C_21  and  C_22
REMARK    6  A    between atoms: C_27  and  C_28
REMARK                            x       y       z     vdW  Elec       q    Type
REMARK                         _______ _______ _______ _____ _____    ______ ____
ROOT
ATOM      1  C   UNL     1       0.626  10.428  20.599  0.00  0.00    +0.000 A 
ATOM      2  C   UNL     1      -0.644  10.783  21.314  0.00  0.00    +0.000 A 
ATOM      3  C   UNL     1      -1.118  12.027  21.125  0.00  0.00    +0.000 A 
ATOM      4  N   UNL     1      -0.406  12.883  20.282  0.00  0.00    +0.000 N 
ATOM      5  C   UNL     1      -0.645  14.183  19.917  0.00  0.00    +0.000 A 
ATOM      6  N   UNL     1       0.271  14.649  19.095  0.00  0.00    +0.000 NA
ATOM      7  C   UNL     1       1.163  13.593  18.909  0.00  0.00    +0.000 A 
ATOM      8  C   UNL     1       0.766  12.481  19.638  0.00  0.00    +0.000 A 
ATOM      9  N   UNL     1       1.289  11.223  19.806  0.00  0.00    +0.000 NA
ENDROOT
BRANCH   3  10
ATOM     10  C   UNL     1      -2.352  12.396  21.836  0.00  0.00    +0.000 A 
ATOM     11  C   UNL     1      -2.412  12.324  23.235  0.00  0.00    +0.000 A 
ATOM     12  C   UNL     1      -3.612  12.573  23.905  0.00  0.00    +0.000 A 
ATOM     13  C   UNL     1      -4.764  12.884  23.184  0.00  0.00    +0.000 A 
ATOM     14  C   UNL     1      -4.714  12.958  21.793  0.00  0.00    +0.000 A 
ATOM     15  C   UNL     1      -3.512  12.720  21.120  0.00  0.00    +0.000 A 
ENDBRANCH   3  10
BRANCH   7  16
ATOM     16  C   UNL     1       2.345  13.702  18.059  0.00  0.00    +0.000 C 
ATOM     17  N   UNL     1       2.683  12.533  17.433  0.00  0.00    +0.000 N 
ATOM     18  O   UNL     1       3.005  14.721  17.885  0.00  0.00    +0.000 OA
ATOM     19  H   UNL     1       2.119  11.706  17.580  0.00  0.00    +0.000 HD
ATOM     20  H   UNL     1       3.478  12.523  16.813  0.00  0.00    +0.000 HD
ENDBRANCH   7  16
BRANCH   1  22
ATOM     21  N   UNL     1       1.553   8.306  19.748  0.00  0.00    +0.000 N 
ATOM     22  C   UNL     1       1.144   9.018  20.867  0.00  0.00    +0.000 C 
ATOM     23  O   UNL     1       1.153   8.652  22.038  0.00  0.00    +0.000 OA
ATOM     24  H   UNL     1       1.438   8.800  18.866  0.00  0.00    +0.000 HD
BRANCH  21  29
ATOM     25  C   UNL     1       3.726   2.960  19.845  0.00  0.00    +0.000 C 
ATOM     26  C   UNL     1       3.168   4.350  19.803  0.00  0.00    +0.000 A 
ATOM     27  C   UNL     1       2.244   4.762  20.752  0.00  0.00    +0.000 A 
ATOM     28  C   UNL     1       1.725   6.056  20.720  0.00  0.00    +0.000 A 
ATOM     29  C   UNL     1       2.101   6.995  19.742  0.00  0.00    +0.000 A 
ATOM     30  C   UNL     1       3.043   6.587  18.775  0.00  0.00    +0.000 A 
ATOM     31  C   UNL     1       3.561   7.454  17.657  0.00  0.00    +0.000 C 
ATOM     32  C   UNL     1       3.560   5.266  18.820  0.00  0.00    +0.000 A 
ENDBRANCH  21  29
ENDBRANCH   1  22
TORSDOF 4
ENDMDL
