MODEL 1
REMARK VINA RESULT:      -8.0      0.000      0.000
REMARK  Name = 
REMARK  4 active torsions:
REMARK  status: ('A' for Active; 'I' for Inactive)
REMARK    1  A    between atoms: C_2  and  C_3
REMARK    2  A    between atoms: C_3  and  C_4
REMARK    3  A    between atoms: N_14  and  C_15
REMARK    4  A    between atoms: C_21  and  N_22
REMARK                            x       y       z     vdW  Elec       q    Type
REMARK                         _______ _______ _______ _____ _____    ______ ____
ROOT
ATOM      1  O   UNL     1       1.781   6.074  17.880  0.00  0.00    +0.000 OA
ATOM      2  C   UNL     1       2.481   6.767  18.616  0.00  0.00    +0.000 C 
ATOM      3  N   UNL     1       3.255   6.276  19.656  0.00  0.00    +0.000 N 
ATOM      4  H   UNL     1       3.314   6.900  20.465  0.00  0.00    +0.000 HD
ENDROOT
BRANCH   3   5
ATOM      5  C   UNL     1       3.355   4.893  19.967  0.00  0.00    +0.000 A 
ATOM      6  C   UNL     1       2.371   4.294  20.769  0.00  0.00    +0.000 A 
ATOM      7  C   UNL     1       2.464   2.947  21.120  0.00  0.00    +0.000 A 
ATOM      8 CL   UNL     1       1.268   2.232  22.127  0.00  0.00    +0.000 Cl
ATOM      9  C   UNL     1       3.528   2.175  20.666  0.00  0.00    +0.000 A 
ATOM     10  C   UNL     1       4.499   2.746  19.837  0.00  0.00    +0.000 A 
ATOM     11  C   UNL     1       4.421   4.104  19.473  0.00  0.00    +0.000 A 
BRANCH  11  12
ATOM     12  N   UNL     1       5.471   4.677  18.701  0.00  0.00    +0.000 N 
ATOM     13  C   UNL     1       5.645   4.678  17.335  0.00  0.00    +0.000 A 
ATOM     14  N   UNL     1       6.817   5.179  17.016  0.00  0.00    +0.000 NA
ATOM     15  C   UNL     1       7.337   5.513  18.226  0.00  0.00    +0.000 A 
ATOM     16  N   UNL     1       6.537   5.306  19.267  0.00  0.00    +0.000 NA
ENDBRANCH  11  12
ENDBRANCH   3   5
BRANCH   2  17
ATOM     17  C   UNL     1       2.598   8.267  18.410  0.00  0.00    +0.000 C 
BRANCH  17  18
ATOM     18  C   UNL     1       1.386   9.104  18.779  0.00  0.00    +0.000 A 
ATOM     19  C   UNL     1       0.588   9.591  17.722  0.00  0.00    +0.000 A 
ATOM     20  C   UNL     1      -0.602  10.265  17.972  0.00  0.00    +0.000 A 
ATOM     21  C   UNL     1      -1.037  10.441  19.282  0.00  0.00    +0.000 A 
ATOM     22  C   UNL     1      -0.277   9.968  20.360  0.00  0.00    +0.000 A 
ATOM     23  C   UNL     1      -0.764  10.126  21.671  0.00  0.00    +0.000 A 
ATOM     24  C   UNL     1      -0.035   9.674  22.765  0.00  0.00    +0.000 A 
ATOM     25  C   UNL     1       1.208   9.083  22.564  0.00  0.00    +0.000 A 
ATOM     26  C   UNL     1       1.701   8.904  21.265  0.00  0.00    +0.000 A 
ATOM     27  C   UNL     1       0.967   9.325  20.126  0.00  0.00    +0.000 A 
ENDBRANCH  17  18
ENDBRANCH   2  17
TORSDOF 4
ENDMDL
MODEL 2
REMARK VINA RESULT:      -7.9      1.859      2.935
REMARK  Name = 
REMARK  4 active torsions:
REMARK  status: ('A' for Active; 'I' for Inactive)
REMARK    1  A    between atoms: C_2  and  C_3
REMARK    2  A    between atoms: C_3  and  C_4
REMARK    3  A    between atoms: N_14  and  C_15
REMARK    4  A    between atoms: C_21  and  N_22
REMARK                            x       y       z     vdW  Elec       q    Type
REMARK                         _______ _______ _______ _____ _____    ______ ____
ROOT
ATOM      1  O   UNL     1       2.008   7.412  20.012  0.00  0.00    +0.000 OA
ATOM      2  C   UNL     1       2.177   7.778  18.849  0.00  0.00    +0.000 C 
ATOM      3  N   UNL     1       2.580   6.949  17.814  0.00  0.00    +0.000 N 
ATOM      4  H   UNL     1       3.183   7.403  17.125  0.00  0.00    +0.000 HD
ENDROOT
BRANCH   3   5
ATOM      5  C   UNL     1       2.809   5.557  17.976  0.00  0.00    +0.000 A 
ATOM      6  C   UNL     1       1.722   4.706  18.235  0.00  0.00    +0.000 A 
ATOM      7  C   UNL     1       1.923   3.340  18.435  0.00  0.00    +0.000 A 
ATOM      8 CL   UNL     1       0.587   2.312  18.781  0.00  0.00    +0.000 Cl
ATOM      9  C   UNL     1       3.202   2.799  18.365  0.00  0.00    +0.000 A 
ATOM     10  C   UNL     1       4.292   3.625  18.073  0.00  0.00    +0.000 A 
ATOM     11  C   UNL     1       4.109   5.008  17.869  0.00  0.00    +0.000 A 
BRANCH  11  12
ATOM     12  N   UNL     1       5.247   5.835  17.660  0.00  0.00    +0.000 N 
ATOM     13  C   UNL     1       5.540   6.661  16.598  0.00  0.00    +0.000 A 
ATOM     14  N   UNL     1       6.757   7.143  16.705  0.00  0.00    +0.000 NA
ATOM     15  C   UNL     1       7.186   6.611  17.880  0.00  0.00    +0.000 A 
ATOM     16  N   UNL     1       6.289   5.881  18.536  0.00  0.00    +0.000 NA
ENDBRANCH  11  12
ENDBRANCH   3   5
BRANCH   2  17
ATOM     17  C   UNL     1       1.901   9.211  18.426  0.00  0.00    +0.000 C 
BRANCH  17  18
ATOM     18  C   UNL     1       0.795   9.941  19.166  0.00  0.00    +0.000 A 
ATOM     19  C   UNL     1       1.105  10.473  20.435  0.00  0.00    +0.000 A 
ATOM     20  C   UNL     1       0.189  11.257  21.128  0.00  0.00    +0.000 A 
ATOM     21  C   UNL     1      -1.045  11.551  20.557  0.00  0.00    +0.000 A 
ATOM     22  C   UNL     1      -1.390  11.046  19.296  0.00  0.00    +0.000 A 
ATOM     23  C   UNL     1      -2.630  11.395  18.727  0.00  0.00    +0.000 A 
ATOM     24  C   UNL     1      -3.007  10.909  17.481  0.00  0.00    +0.000 A 
ATOM     25  C   UNL     1      -2.161  10.042  16.797  0.00  0.00    +0.000 A 
ATOM     26  C   UNL     1      -0.918   9.697  17.341  0.00  0.00    +0.000 A 
ATOM     27  C   UNL     1      -0.489  10.201  18.596  0.00  0.00    +0.000 A 
ENDBRANCH  17  18
ENDBRANCH   2  17
TORSDOF 4
ENDMDL
MODEL 3
REMARK VINA RESULT:      -7.9      3.809      7.687
REMARK  Name = 
REMARK  4 active torsions:
REMARK  status: ('A' for Active; 'I' for Inactive)
REMARK    1  A    between atoms: C_2  and  C_3
REMARK    2  A    between atoms: C_3  and  C_4
REMARK    3  A    between atoms: N_14  and  C_15
REMARK    4  A    between atoms: C_21  and  N_22
REMARK                            x       y       z     vdW  Elec       q    Type
REMARK                         _______ _______ _______ _____ _____    ______ ____
ROOT
ATOM      1  O   UNL     1       2.017   8.992  17.230  0.00  0.00    +0.000 OA
ATOM      2  C   UNL     1       1.757   8.755  18.409  0.00  0.00    +0.000 C 
ATOM      3  N   UNL     1       0.670   9.276  19.094  0.00  0.00    +0.000 N 
ATOM      4  H   UNL     1       0.852   9.473  20.081  0.00  0.00    +0.000 HD
ENDROOT
BRANCH   3   5
ATOM      5  C   UNL     1      -0.299  10.122  18.491  0.00  0.00    +0.000 A 
ATOM      6  C   UNL     1      -1.184   9.586  17.540  0.00  0.00    +0.000 A 
ATOM      7  C   UNL     1      -2.120  10.402  16.905  0.00  0.00    +0.000 A 
ATOM      8 CL   UNL     1      -3.179   9.741  15.721  0.00  0.00    +0.000 Cl
ATOM      9  C   UNL     1      -2.201  11.754  17.216  0.00  0.00    +0.000 A 
ATOM     10  C   UNL     1      -1.352  12.298  18.185  0.00  0.00    +0.000 A 
ATOM     11  C   UNL     1      -0.399  11.490  18.837  0.00  0.00    +0.000 A 
BRANCH  11  12
ATOM     12  N   UNL     1       0.508  12.090  19.754  0.00  0.00    +0.000 N 
ATOM     13  C   UNL     1       0.287  12.515  21.046  0.00  0.00    +0.000 A 
ATOM     14  N   UNL     1       1.336  13.153  21.511  0.00  0.00    +0.000 NA
ATOM     15  C   UNL     1       2.215  13.077  20.478  0.00  0.00    +0.000 A 
ATOM     16  N   UNL     1       1.797  12.379  19.426  0.00  0.00    +0.000 NA
ENDBRANCH  11  12
ENDBRANCH   3   5
BRANCH   2  17
ATOM     17  C   UNL     1       2.608   7.802  19.229  0.00  0.00    +0.000 C 
BRANCH  17  18
ATOM     18  C   UNL     1       2.958   6.472  18.585  0.00  0.00    +0.000 A 
ATOM     19  C   UNL     1       3.919   6.484  17.553  0.00  0.00    +0.000 A 
ATOM     20  C   UNL     1       4.384   5.300  16.991  0.00  0.00    +0.000 A 
ATOM     21  C   UNL     1       3.920   4.078  17.467  0.00  0.00    +0.000 A 
ATOM     22  C   UNL     1       2.969   4.022  18.494  0.00  0.00    +0.000 A 
ATOM     23  C   UNL     1       2.550   2.769  18.981  0.00  0.00    +0.000 A 
ATOM     24  C   UNL     1       1.605   2.675  19.996  0.00  0.00    +0.000 A 
ATOM     25  C   UNL     1       1.041   3.836  20.518  0.00  0.00    +0.000 A 
ATOM     26  C   UNL     1       1.458   5.090  20.055  0.00  0.00    +0.000 A 
ATOM     27  C   UNL     1       2.444   5.221  19.044  0.00  0.00    +0.000 A 
ENDBRANCH  17  18
ENDBRANCH   2  17
TORSDOF 4
ENDMDL
MODEL 4
REMARK VINA RESULT:      -7.7      3.901      7.933
REMARK  Name = 
REMARK  4 active torsions:
REMARK  status: ('A' for Active; 'I' for Inactive)
REMARK    1  A    between atoms: C_2  and  C_3
REMARK    2  A    between atoms: C_3  and  C_4
REMARK    3  A    between atoms: N_14  and  C_15
REMARK    4  A    between atoms: C_21  and  N_22
REMARK                            x       y       z     vdW  Elec       q    Type
REMARK                         _______ _______ _______ _____ _____    ______ ____
ROOT
ATOM      1  O   UNL     1       2.062   8.989  17.184  0.00  0.00    +0.000 OA
ATOM      2  C   UNL     1       1.831   8.767  18.372  0.00  0.00    +0.000 C 
ATOM      3  N   UNL     1       0.759   9.293  19.076  0.00  0.00    +0.000 N 
ATOM      4  H   UNL     1       0.964   9.503  20.056  0.00  0.00    +0.000 HD
ENDROOT
BRANCH   3   5
ATOM      5  C   UNL     1      -0.227  10.128  18.485  0.00  0.00    +0.000 A 
ATOM      6  C   UNL     1      -1.122   9.581  17.551  0.00  0.00    +0.000 A 
ATOM      7  C   UNL     1      -2.076  10.386  16.928  0.00  0.00    +0.000 A 
ATOM      8 CL   UNL     1      -3.148   9.711  15.764  0.00  0.00    +0.000 Cl
ATOM      9  C   UNL     1      -2.163  11.739  17.235  0.00  0.00    +0.000 A 
ATOM     10  C   UNL     1      -1.303  12.293  18.189  0.00  0.00    +0.000 A 
ATOM     11  C   UNL     1      -0.333  11.496  18.828  0.00  0.00    +0.000 A 
BRANCH  11  12
ATOM     12  N   UNL     1       0.583  12.108  19.728  0.00  0.00    +0.000 N 
ATOM     13  C   UNL     1       0.392  12.493  21.037  0.00  0.00    +0.000 A 
ATOM     14  N   UNL     1       1.433  13.159  21.482  0.00  0.00    +0.000 NA
ATOM     15  C   UNL     1       2.277  13.140  20.417  0.00  0.00    +0.000 A 
ATOM     16  N   UNL     1       1.849  12.452  19.363  0.00  0.00    +0.000 NA
ENDBRANCH  11  12
ENDBRANCH   3   5
BRANCH   2  17
ATOM     17  C   UNL     1       2.705   7.826  19.183  0.00  0.00    +0.000 C 
BRANCH  17  18
ATOM     18  C   UNL     1       2.818   6.397  18.684  0.00  0.00    +0.000 A 
ATOM     19  C   UNL     1       1.814   5.489  19.083  0.00  0.00    +0.000 A 
ATOM     20  C   UNL     1       1.775   4.194  18.578  0.00  0.00    +0.000 A 
ATOM     21  C   UNL     1       2.718   3.787  17.641  0.00  0.00    +0.000 A 
ATOM     22  C   UNL     1       3.729   4.659  17.215  0.00  0.00    +0.000 A 
ATOM     23  C   UNL     1       4.645   4.229  16.235  0.00  0.00    +0.000 A 
ATOM     24  C   UNL     1       5.663   5.065  15.791  0.00  0.00    +0.000 A 
ATOM     25  C   UNL     1       5.797   6.335  16.344  0.00  0.00    +0.000 A 
ATOM     26  C   UNL     1       4.886   6.783  17.307  0.00  0.00    +0.000 A 
ATOM     27  C   UNL     1       3.817   5.967  17.758  0.00  0.00    +0.000 A 
ENDBRANCH  17  18
ENDBRANCH   2  17
TORSDOF 4
ENDMDL
MODEL 5
REMARK VINA RESULT:      -7.7      4.036      7.889
REMARK  Name = 
REMARK  4 active torsions:
REMARK  status: ('A' for Active; 'I' for Inactive)
REMARK    1  A    between atoms: C_2  and  C_3
REMARK    2  A    between atoms: C_3  and  C_4
REMARK    3  A    between atoms: N_14  and  C_15
REMARK    4  A    between atoms: C_21  and  N_22
REMARK                            x       y       z     vdW  Elec       q    Type
REMARK                         _______ _______ _______ _____ _____    ______ ____
ROOT
ATOM      1  O   UNL     1       1.367   8.673  19.722  0.00  0.00    +0.000 OA
ATOM      2  C   UNL     1       1.723   8.950  18.578  0.00  0.00    +0.000 C 
ATOM      3  N   UNL     1       1.041   9.807  17.728  0.00  0.00    +0.000 N 
ATOM      4  H   UNL     1       1.083   9.540  16.742  0.00  0.00    +0.000 HD
ENDROOT
BRANCH   3   5
ATOM      5  C   UNL     1      -0.140  10.501  18.104  0.00  0.00    +0.000 A 
ATOM      6  C   UNL     1      -1.392   9.940  17.805  0.00  0.00    +0.000 A 
ATOM      7  C   UNL     1      -2.568  10.616  18.130  0.00  0.00    +0.000 A 
ATOM      8 CL   UNL     1      -4.096   9.933  17.732  0.00  0.00    +0.000 Cl
ATOM      9  C   UNL     1      -2.516  11.850  18.769  0.00  0.00    +0.000 A 
ATOM     10  C   UNL     1      -1.279  12.407  19.107  0.00  0.00    +0.000 A 
ATOM     11  C   UNL     1      -0.080  11.739  18.786  0.00  0.00    +0.000 A 
BRANCH  11  12
ATOM     12  N   UNL     1       1.163  12.372  19.065  0.00  0.00    +0.000 N 
ATOM     13  C   UNL     1       1.679  12.784  20.274  0.00  0.00    +0.000 A 
ATOM     14  N   UNL     1       2.790  13.463  20.098  0.00  0.00    +0.000 NA
ATOM     15  C   UNL     1       2.953  13.424  18.750  0.00  0.00    +0.000 A 
ATOM     16  N   UNL     1       2.046  12.714  18.086  0.00  0.00    +0.000 NA
ENDBRANCH  11  12
ENDBRANCH   3   5
BRANCH   2  17
ATOM     17  C   UNL     1       3.010   8.393  17.996  0.00  0.00    +0.000 C 
BRANCH  17  18
ATOM     18  C   UNL     1       3.112   6.882  17.882  0.00  0.00    +0.000 A 
ATOM     19  C   UNL     1       1.941   6.133  18.125  0.00  0.00    +0.000 A 
ATOM     20  C   UNL     1       1.915   4.757  17.928  0.00  0.00    +0.000 A 
ATOM     21  C   UNL     1       3.048   4.103  17.455  0.00  0.00    +0.000 A 
ATOM     22  C   UNL     1       4.230   4.811  17.196  0.00  0.00    +0.000 A 
ATOM     23  C   UNL     1       5.346   4.126  16.680  0.00  0.00    +0.000 A 
ATOM     24  C   UNL     1       6.536   4.795  16.416  0.00  0.00    +0.000 A 
ATOM     25  C   UNL     1       6.635   6.154  16.693  0.00  0.00    +0.000 A 
ATOM     26  C   UNL     1       5.529   6.853  17.192  0.00  0.00    +0.000 A 
ATOM     27  C   UNL     1       4.291   6.207  17.442  0.00  0.00    +0.000 A 
ENDBRANCH  17  18
ENDBRANCH   2  17
TORSDOF 4
ENDMDL
MODEL 6
REMARK VINA RESULT:      -7.6      2.508      3.709
REMARK  Name = 
REMARK  4 active torsions:
REMARK  status: ('A' for Active; 'I' for Inactive)
REMARK    1  A    between atoms: C_2  and  C_3
REMARK    2  A    between atoms: C_3  and  C_4
REMARK    3  A    between atoms: N_14  and  C_15
REMARK    4  A    between atoms: C_21  and  N_22
REMARK                            x       y       z     vdW  Elec       q    Type
REMARK                         _______ _______ _______ _____ _____    ______ ____
ROOT
ATOM      1  O   UNL     1       1.817   6.991  18.219  0.00  0.00    +0.000 OA
ATOM      2  C   UNL     1       2.313   6.882  19.339  0.00  0.00    +0.000 C 
ATOM      3  N   UNL     1       3.417   6.097  19.637  0.00  0.00    +0.000 N 
ATOM      4  H   UNL     1       3.385   5.666  20.564  0.00  0.00    +0.000 HD
ENDROOT
BRANCH   3   5
ATOM      5  C   UNL     1       4.128   5.351  18.661  0.00  0.00    +0.000 A 
ATOM      6  C   UNL     1       5.233   5.934  18.019  0.00  0.00    +0.000 A 
ATOM      7  C   UNL     1       5.928   5.238  17.030  0.00  0.00    +0.000 A 
ATOM      8 CL   UNL     1       7.261   5.973  16.230  0.00  0.00    +0.000 Cl
ATOM      9  C   UNL     1       5.544   3.949  16.676  0.00  0.00    +0.000 A 
ATOM     10  C   UNL     1       4.468   3.339  17.329  0.00  0.00    +0.000 A 
ATOM     11  C   UNL     1       3.754   4.027  18.330  0.00  0.00    +0.000 A 
BRANCH  11  12
ATOM     12  N   UNL     1       2.612   3.412  18.914  0.00  0.00    +0.000 N 
ATOM     13  C   UNL     1       1.484   2.911  18.302  0.00  0.00    +0.000 A 
ATOM     14  N   UNL     1       0.587   2.561  19.195  0.00  0.00    +0.000 NA
ATOM     15  C   UNL     1       1.214   2.832  20.370  0.00  0.00    +0.000 A 
ATOM     16  N   UNL     1       2.464   3.271  20.260  0.00  0.00    +0.000 NA
ENDBRANCH  11  12
ENDBRANCH   3   5
BRANCH   2  17
ATOM     17  C   UNL     1       1.770   7.665  20.522  0.00  0.00    +0.000 C 
BRANCH  17  18
ATOM     18  C   UNL     1       1.178   9.030  20.224  0.00  0.00    +0.000 A 
ATOM     19  C   UNL     1       1.344   9.539  18.919  0.00  0.00    +0.000 A 
ATOM     20  C   UNL     1       0.734  10.726  18.527  0.00  0.00    +0.000 A 
ATOM     21  C   UNL     1      -0.078  11.415  19.421  0.00  0.00    +0.000 A 
ATOM     22  C   UNL     1      -0.273  10.942  20.726  0.00  0.00    +0.000 A 
ATOM     23  C   UNL     1      -1.133  11.641  21.594  0.00  0.00    +0.000 A 
ATOM     24  C   UNL     1      -1.347  11.204  22.896  0.00  0.00    +0.000 A 
ATOM     25  C   UNL     1      -0.678  10.075  23.359  0.00  0.00    +0.000 A 
ATOM     26  C   UNL     1       0.170   9.359  22.504  0.00  0.00    +0.000 A 
ATOM     27  C   UNL     1       0.383   9.760  21.160  0.00  0.00    +0.000 A 
ENDBRANCH  17  18
ENDBRANCH   2  17
TORSDOF 4
ENDMDL
MODEL 7
REMARK VINA RESULT:      -7.6      3.809      7.841
REMARK  Name = 
REMARK  4 active torsions:
REMARK  status: ('A' for Active; 'I' for Inactive)
REMARK    1  A    between atoms: C_2  and  C_3
REMARK    2  A    between atoms: C_3  and  C_4
REMARK    3  A    between atoms: N_14  and  C_15
REMARK    4  A    between atoms: C_21  and  N_22
REMARK                            x       y       z     vdW  Elec       q    Type
REMARK                         _______ _______ _______ _____ _____    ______ ____
ROOT
ATOM      1  O   UNL     1       1.734   8.518  17.635  0.00  0.00    +0.000 OA
ATOM      2  C   UNL     1       1.611   8.610  18.855  0.00  0.00    +0.000 C 
ATOM      3  N   UNL     1       0.696   9.434  19.493  0.00  0.00    +0.000 N 
ATOM      4  H   UNL     1       1.033   9.830  20.374  0.00  0.00    +0.000 HD
ENDROOT
BRANCH   3   5
ATOM      5  C   UNL     1      -0.238  10.247  18.797  0.00  0.00    +0.000 A 
ATOM      6  C   UNL     1      -1.127   9.650  17.889  0.00  0.00    +0.000 A 
ATOM      7  C   UNL     1      -2.030  10.429  17.165  0.00  0.00    +0.000 A 
ATOM      8 CL   UNL     1      -3.095   9.690  16.034  0.00  0.00    +0.000 Cl
ATOM      9  C   UNL     1      -2.071  11.807  17.344  0.00  0.00    +0.000 A 
ATOM     10  C   UNL     1      -1.217  12.415  18.269  0.00  0.00    +0.000 A 
ATOM     11  C   UNL     1      -0.298  11.645  19.010  0.00  0.00    +0.000 A 
BRANCH  11  12
ATOM     12  N   UNL     1       0.616  12.302  19.879  0.00  0.00    +0.000 N 
ATOM     13  C   UNL     1       0.399  12.831  21.132  0.00  0.00    +0.000 A 
ATOM     14  N   UNL     1       1.457  13.489  21.549  0.00  0.00    +0.000 NA
ATOM     15  C   UNL     1       2.336  13.318  20.527  0.00  0.00    +0.000 A 
ATOM     16  N   UNL     1       1.910  12.545  19.532  0.00  0.00    +0.000 NA
ENDBRANCH  11  12
ENDBRANCH   3   5
BRANCH   2  17
ATOM     17  C   UNL     1       2.446   7.762  19.799  0.00  0.00    +0.000 C 
BRANCH  17  18
ATOM     18  C   UNL     1       2.327   6.256  19.651  0.00  0.00    +0.000 A 
ATOM     19  C   UNL     1       1.368   5.599  20.450  0.00  0.00    +0.000 A 
ATOM     20  C   UNL     1       1.110   4.242  20.294  0.00  0.00    +0.000 A 
ATOM     21  C   UNL     1       1.784   3.517  19.317  0.00  0.00    +0.000 A 
ATOM     22  C   UNL     1       2.741   4.132  18.498  0.00  0.00    +0.000 A 
ATOM     23  C   UNL     1       3.375   3.380  17.491  0.00  0.00    +0.000 A 
ATOM     24  C   UNL     1       4.332   3.955  16.664  0.00  0.00    +0.000 A 
ATOM     25  C   UNL     1       4.690   5.287  16.852  0.00  0.00    +0.000 A 
ATOM     26  C   UNL     1       4.058   6.053  17.839  0.00  0.00    +0.000 A 
ATOM     27  C   UNL     1       3.054   5.504  18.678  0.00  0.00    +0.000 A 
ENDBRANCH  17  18
ENDBRANCH   2  17
TORSDOF 4
ENDMDL
MODEL 8
REMARK VINA RESULT:      -7.6      1.834      2.784
REMARK  Name = 
REMARK  4 active torsions:
REMARK  status: ('A' for Active; 'I' for Inactive)
REMARK    1  A    between atoms: C_2  and  C_3
REMARK    2  A    between atoms: C_3  and  C_4
REMARK    3  A    between atoms: N_14  and  C_15
REMARK    4  A    between atoms: C_21  and  N_22
REMARK                            x       y       z     vdW  Elec       q    Type
REMARK                         _______ _______ _______ _____ _____    ______ ____
ROOT
ATOM      1  O   UNL     1       2.791   6.732  20.159  0.00  0.00    +0.000 OA
ATOM      2  C   UNL     1       2.374   7.165  19.086  0.00  0.00    +0.000 C 
ATOM      3  N   UNL     1       2.209   6.400  17.941  0.00  0.00    +0.000 N 
ATOM      4  H   UNL     1       2.403   6.902  17.071  0.00  0.00    +0.000 HD
ENDROOT
BRANCH   3   5
ATOM      5  C   UNL     1       2.472   5.006  17.891  0.00  0.00    +0.000 A 
ATOM      6  C   UNL     1       1.482   4.103  18.311  0.00  0.00    +0.000 A 
ATOM      7  C   UNL     1       1.726   2.729  18.308  0.00  0.00    +0.000 A 
ATOM      8 CL   UNL     1       0.516   1.635  18.853  0.00  0.00    +0.000 Cl
ATOM      9  C   UNL     1       2.951   2.234  17.873  0.00  0.00    +0.000 A 
ATOM     10  C   UNL     1       3.936   3.116  17.418  0.00  0.00    +0.000 A 
ATOM     11  C   UNL     1       3.707   4.506  17.414  0.00  0.00    +0.000 A 
BRANCH  11  12
ATOM     12  N   UNL     1       4.760   5.382  17.027  0.00  0.00    +0.000 N 
ATOM     13  C   UNL     1       5.296   5.600  15.777  0.00  0.00    +0.000 A 
ATOM     14  N   UNL     1       6.356   6.372  15.854  0.00  0.00    +0.000 NA
ATOM     15  C   UNL     1       6.430   6.645  17.183  0.00  0.00    +0.000 A 
ATOM     16  N   UNL     1       5.449   6.140  17.924  0.00  0.00    +0.000 NA
ENDBRANCH  11  12
ENDBRANCH   3   5
BRANCH   2  17
ATOM     17  C   UNL     1       1.943   8.613  18.933  0.00  0.00    +0.000 C 
BRANCH  17  18
ATOM     18  C   UNL     1       1.026   9.170  20.007  0.00  0.00    +0.000 A 
ATOM     19  C   UNL     1       1.261   8.763  21.336  0.00  0.00    +0.000 A 
ATOM     20  C   UNL     1       0.547   9.314  22.394  0.00  0.00    +0.000 A 
ATOM     21  C   UNL     1      -0.398  10.306  22.150  0.00  0.00    +0.000 A 
ATOM     22  C   UNL     1      -0.659  10.742  20.844  0.00  0.00    +0.000 A 
ATOM     23  C   UNL     1      -1.591  11.776  20.635  0.00  0.00    +0.000 A 
ATOM     24  C   UNL     1      -1.879  12.231  19.353  0.00  0.00    +0.000 A 
ATOM     25  C   UNL     1      -1.258  11.637  18.259  0.00  0.00    +0.000 A 
ATOM     26  C   UNL     1      -0.317  10.619  18.451  0.00  0.00    +0.000 A 
ATOM     27  C   UNL     1       0.023  10.154  19.747  0.00  0.00    +0.000 A 
ENDBRANCH  17  18
ENDBRANCH   2  17
TORSDOF 4
ENDMDL
MODEL 9
REMARK VINA RESULT:      -7.6      2.116      2.177
REMARK  Name = 
REMARK  4 active torsions:
REMARK  status: ('A' for Active; 'I' for Inactive)
REMARK    1  A    between atoms: C_2  and  C_3
REMARK    2  A    between atoms: C_3  and  C_4
REMARK    3  A    between atoms: N_14  and  C_15
REMARK    4  A    between atoms: C_21  and  N_22
REMARK                            x       y       z     vdW  Elec       q    Type
REMARK                         _______ _______ _______ _____ _____    ______ ____
ROOT
ATOM      1  O   UNL     1       2.126   7.407  19.717  0.00  0.00    +0.000 OA
ATOM      2  C   UNL     1       2.397   7.765  18.572  0.00  0.00    +0.000 C 
ATOM      3  N   UNL     1       2.821   6.915  17.562  0.00  0.00    +0.000 N 
ATOM      4  H   UNL     1       3.497   7.333  16.919  0.00  0.00    +0.000 HD
ENDROOT
BRANCH   3   5
ATOM      5  C   UNL     1       2.954   5.511  17.731  0.00  0.00    +0.000 A 
ATOM      6  C   UNL     1       1.832   4.753  18.104  0.00  0.00    +0.000 A 
ATOM      7  C   UNL     1       1.942   3.378  18.313  0.00  0.00    +0.000 A 
ATOM      8 CL   UNL     1       0.567   2.465  18.798  0.00  0.00    +0.000 Cl
ATOM      9  C   UNL     1       3.163   2.736  18.139  0.00  0.00    +0.000 A 
ATOM     10  C   UNL     1       4.283   3.469  17.733  0.00  0.00    +0.000 A 
ATOM     11  C   UNL     1       4.191   4.858  17.518  0.00  0.00    +0.000 A 
BRANCH  11  12
ATOM     12  N   UNL     1       5.367   5.589  17.191  0.00  0.00    +0.000 N 
ATOM     13  C   UNL     1       6.127   5.547  16.043  0.00  0.00    +0.000 A 
ATOM     14  N   UNL     1       7.221   6.260  16.184  0.00  0.00    +0.000 NA
ATOM     15  C   UNL     1       7.089   6.765  17.439  0.00  0.00    +0.000 A 
ATOM     16  N   UNL     1       5.955   6.457  18.060  0.00  0.00    +0.000 NA
ENDBRANCH  11  12
ENDBRANCH   3   5
BRANCH   2  17
ATOM     17  C   UNL     1       2.238   9.212  18.140  0.00  0.00    +0.000 C 
BRANCH  17  18
ATOM     18  C   UNL     1       0.839   9.796  18.205  0.00  0.00    +0.000 A 
ATOM     19  C   UNL     1      -0.128   9.264  17.326  0.00  0.00    +0.000 A 
ATOM     20  C   UNL     1      -1.460   9.656  17.400  0.00  0.00    +0.000 A 
ATOM     21  C   UNL     1      -1.861  10.566  18.372  0.00  0.00    +0.000 A 
ATOM     22  C   UNL     1      -0.933  11.116  19.268  0.00  0.00    +0.000 A 
ATOM     23  C   UNL     1      -1.378  12.003  20.266  0.00  0.00    +0.000 A 
ATOM     24  C   UNL     1      -0.486  12.570  21.169  0.00  0.00    +0.000 A 
ATOM     25  C   UNL     1       0.871  12.280  21.067  0.00  0.00    +0.000 A 
ATOM     26  C   UNL     1       1.328  11.387  20.089  0.00  0.00    +0.000 A 
ATOM     27  C   UNL     1       0.439  10.767  19.174  0.00  0.00    +0.000 A 
ENDBRANCH  17  18
ENDBRANCH   2  17
TORSDOF 4
ENDMDL
