MODEL 1
REMARK VINA RESULT:      -8.8      0.000      0.000
REMARK  Name = 
REMARK  7 active torsions:
REMARK  status: ('A' for Active; 'I' for Inactive)
REMARK    1  A    between atoms: C_2  and  C_3
REMARK    2  A    between atoms: C_3  and  C_4
REMARK    3  A    between atoms: C_4  and  N_5
REMARK    4  A    between atoms: N_16  and  C_17
REMARK    5  A    between atoms: C_17  and  C_18
REMARK    6  A    between atoms: C_18  and  O_19
REMARK    7  A    between atoms: O_19  and  C_20
REMARK                            x       y       z     vdW  Elec       q    Type
REMARK                         _______ _______ _______ _____ _____    ______ ____
ROOT
ATOM      1  O   UNL     1       7.605   7.402  16.862  0.00  0.00    +0.000 OA
ATOM      2  C   UNL     1       7.900   7.228  18.039  0.00  0.00    +0.000 C 
ATOM      3  N   UNL     1       8.466   8.208  18.826  0.00  0.00    +0.000 N 
ATOM      4  H   UNL     1       8.710   7.988  19.783  0.00  0.00    +0.000 HD
ENDROOT
BRANCH   2   5
ATOM      5  C   UNL     1       7.633   5.931  18.778  0.00  0.00    +0.000 C 
BRANCH   5   6
ATOM      6  C   UNL     1       7.540   4.763  17.799  0.00  0.00    +0.000 C 
BRANCH   6   7
ATOM      7  N   UNL     1       6.165   4.443  17.456  0.00  0.00    +0.000 N 
ATOM      8  C   UNL     1       5.646   4.495  16.197  0.00  0.00    +0.000 C 
ATOM      9  O   UNL     1       6.234   4.778  15.166  0.00  0.00    +0.000 OA
ATOM     10  N   UNL     1       4.317   4.150  16.253  0.00  0.00    +0.000 N 
ATOM     11  C   UNL     1       3.905   3.760  17.577  0.00  0.00    +0.000 C 
ATOM     12  C   UNL     1       3.477   2.292  17.645  0.00  0.00    +0.000 C 
ATOM     13  C   UNL     1       2.305   2.285  18.618  0.00  0.00    +0.000 C 
ATOM     14  C   UNL     1       1.603   3.602  18.336  0.00  0.00    +0.000 C 
ATOM     15  C   UNL     1       2.744   4.594  18.127  0.00  0.00    +0.000 C 
ATOM     16  C   UNL     1       5.220   3.999  18.341  0.00  0.00    +0.000 C 
ATOM     17  O   UNL     1       5.388   3.793  19.535  0.00  0.00    +0.000 OA
ATOM     18  H   UNL     1       3.753   4.108  15.414  0.00  0.00    +0.000 HD
ENDBRANCH   6   7
ENDBRANCH   5   6
ENDBRANCH   2   5
BRANCH   3  19
ATOM     19  C   UNL     1       8.805   9.520  18.288  0.00  0.00    +0.000 C 
BRANCH  19  20
ATOM     20  C   UNL     1       9.167  10.521  19.387  0.00  0.00    +0.000 C 
BRANCH  20  21
ATOM     21  O   UNL     1      10.522  10.957  19.239  0.00  0.00    +0.000 OA
BRANCH  21  22
ATOM     22  C   UNL     1      10.707  12.136  18.561  0.00  0.00    +0.000 A 
ATOM     23  C   UNL     1      11.453  12.289  17.393  0.00  0.00    +0.000 A 
ATOM     24  C   UNL     1      11.557  13.542  16.779  0.00  0.00    +0.000 A 
ATOM     25  C   UNL     1      10.917  14.664  17.318  0.00  0.00    +0.000 A 
ATOM     26  C   UNL     1      11.004  15.919  16.696  0.00  0.00    +0.000 A 
ATOM     27  C   UNL     1      10.357  17.029  17.237  0.00  0.00    +0.000 A 
ATOM     28  C   UNL     1       9.622  16.899  18.411  0.00  0.00    +0.000 A 
ATOM     29  C   UNL     1       9.529  15.656  19.044  0.00  0.00    +0.000 A 
ATOM     30  C   UNL     1      10.168  14.524  18.508  0.00  0.00    +0.000 A 
ATOM     31  C   UNL     1      10.077  13.256  19.116  0.00  0.00    +0.000 A 
ENDBRANCH  21  22
ENDBRANCH  20  21
ENDBRANCH  19  20
ENDBRANCH   3  19
TORSDOF 7
ENDMDL
MODEL 2
REMARK VINA RESULT:      -8.8      1.770      2.726
REMARK  Name = 
REMARK  7 active torsions:
REMARK  status: ('A' for Active; 'I' for Inactive)
REMARK    1  A    between atoms: C_2  and  C_3
REMARK    2  A    between atoms: C_3  and  C_4
REMARK    3  A    between atoms: C_4  and  N_5
REMARK    4  A    between atoms: N_16  and  C_17
REMARK    5  A    between atoms: C_17  and  C_18
REMARK    6  A    between atoms: C_18  and  O_19
REMARK    7  A    between atoms: O_19  and  C_20
REMARK                            x       y       z     vdW  Elec       q    Type
REMARK                         _______ _______ _______ _____ _____    ______ ____
ROOT
ATOM      1  O   UNL     1       7.247   4.395  18.572  0.00  0.00    +0.000 OA
ATOM      2  C   UNL     1       7.115   4.944  17.484  0.00  0.00    +0.000 C 
ATOM      3  N   UNL     1       7.481   6.253  17.252  0.00  0.00    +0.000 N 
ATOM      4  H   UNL     1       7.320   6.653  16.337  0.00  0.00    +0.000 HD
ENDROOT
BRANCH   2   5
ATOM      5  C   UNL     1       6.579   4.234  16.256  0.00  0.00    +0.000 C 
BRANCH   5   6
ATOM      6  C   UNL     1       5.190   4.753  15.897  0.00  0.00    +0.000 C 
BRANCH   6   7
ATOM      7  N   UNL     1       4.320   4.842  17.057  0.00  0.00    +0.000 N 
ATOM      8  C   UNL     1       3.989   6.000  17.694  0.00  0.00    +0.000 C 
ATOM      9  O   UNL     1       4.327   7.133  17.392  0.00  0.00    +0.000 OA
ATOM     10  N   UNL     1       3.170   5.701  18.757  0.00  0.00    +0.000 N 
ATOM     11  C   UNL     1       2.844   4.300  18.821  0.00  0.00    +0.000 C 
ATOM     12  C   UNL     1       1.350   4.040  18.614  0.00  0.00    +0.000 C 
ATOM     13  C   UNL     1       1.029   2.893  19.563  0.00  0.00    +0.000 C 
ATOM     14  C   UNL     1       1.920   3.168  20.762  0.00  0.00    +0.000 C 
ATOM     15  C   UNL     1       3.235   3.642  20.148  0.00  0.00    +0.000 C 
ATOM     16  C   UNL     1       3.676   3.781  17.635  0.00  0.00    +0.000 C 
ATOM     17  O   UNL     1       3.722   2.617  17.262  0.00  0.00    +0.000 OA
ATOM     18  H   UNL     1       2.796   6.431  19.348  0.00  0.00    +0.000 HD
ENDBRANCH   6   7
ENDBRANCH   5   6
ENDBRANCH   2   5
BRANCH   3  19
ATOM     19  C   UNL     1       8.009   7.099  18.317  0.00  0.00    +0.000 C 
BRANCH  19  20
ATOM     20  C   UNL     1       8.230   8.540  17.854  0.00  0.00    +0.000 C 
BRANCH  20  21
ATOM     21  O   UNL     1       8.694   9.348  18.940  0.00  0.00    +0.000 OA
BRANCH  21  22
ATOM     22  C   UNL     1       9.052  10.636  18.627  0.00  0.00    +0.000 A 
ATOM     23  C   UNL     1       8.333  11.496  17.798  0.00  0.00    +0.000 A 
ATOM     24  C   UNL     1       8.788  12.798  17.564  0.00  0.00    +0.000 A 
ATOM     25  C   UNL     1       9.968  13.265  18.155  0.00  0.00    +0.000 A 
ATOM     26  C   UNL     1      10.419  14.577  17.937  0.00  0.00    +0.000 A 
ATOM     27  C   UNL     1      11.592  15.035  18.536  0.00  0.00    +0.000 A 
ATOM     28  C   UNL     1      12.332  14.186  19.353  0.00  0.00    +0.000 A 
ATOM     29  C   UNL     1      11.897  12.876  19.575  0.00  0.00    +0.000 A 
ATOM     30  C   UNL     1      10.712  12.399  18.987  0.00  0.00    +0.000 A 
ATOM     31  C   UNL     1      10.241  11.089  19.208  0.00  0.00    +0.000 A 
ENDBRANCH  21  22
ENDBRANCH  20  21
ENDBRANCH  19  20
ENDBRANCH   3  19
TORSDOF 7
ENDMDL
MODEL 3
REMARK VINA RESULT:      -8.8      1.753      3.014
REMARK  Name = 
REMARK  7 active torsions:
REMARK  status: ('A' for Active; 'I' for Inactive)
REMARK    1  A    between atoms: C_2  and  C_3
REMARK    2  A    between atoms: C_3  and  C_4
REMARK    3  A    between atoms: C_4  and  N_5
REMARK    4  A    between atoms: N_16  and  C_17
REMARK    5  A    between atoms: C_17  and  C_18
REMARK    6  A    between atoms: C_18  and  O_19
REMARK    7  A    between atoms: O_19  and  C_20
REMARK                            x       y       z     vdW  Elec       q    Type
REMARK                         _______ _______ _______ _____ _____    ______ ____
ROOT
ATOM      1  O   UNL     1       7.648   5.334  15.925  0.00  0.00    +0.000 OA
ATOM      2  C   UNL     1       6.611   5.886  16.274  0.00  0.00    +0.000 C 
ATOM      3  N   UNL     1       6.588   7.014  17.067  0.00  0.00    +0.000 N 
ATOM      4  H   UNL     1       5.695   7.403  17.340  0.00  0.00    +0.000 HD
ENDROOT
BRANCH   2   5
ATOM      5  C   UNL     1       5.236   5.421  15.835  0.00  0.00    +0.000 C 
BRANCH   5   6
ATOM      6  C   UNL     1       4.995   3.975  16.260  0.00  0.00    +0.000 C 
BRANCH   6   7
ATOM      7  N   UNL     1       4.462   3.881  17.609  0.00  0.00    +0.000 N 
ATOM      8  C   UNL     1       5.201   4.004  18.747  0.00  0.00    +0.000 C 
ATOM      9  O   UNL     1       6.394   4.239  18.832  0.00  0.00    +0.000 OA
ATOM     10  N   UNL     1       4.371   3.837  19.831  0.00  0.00    +0.000 N 
ATOM     11  C   UNL     1       2.992   3.677  19.448  0.00  0.00    +0.000 C 
ATOM     12  C   UNL     1       2.112   4.825  19.949  0.00  0.00    +0.000 C 
ATOM     13  C   UNL     1       0.798   4.156  20.331  0.00  0.00    +0.000 C 
ATOM     14  C   UNL     1       1.235   2.811  20.885  0.00  0.00    +0.000 C 
ATOM     15  C   UNL     1       2.365   2.375  19.955  0.00  0.00    +0.000 C 
ATOM     16  C   UNL     1       3.139   3.707  17.917  0.00  0.00    +0.000 C 
ATOM     17  O   UNL     1       2.216   3.619  17.118  0.00  0.00    +0.000 OA
ATOM     18  H   UNL     1       4.727   3.912  20.775  0.00  0.00    +0.000 HD
ENDBRANCH   6   7
ENDBRANCH   5   6
ENDBRANCH   2   5
BRANCH   3  19
ATOM     19  C   UNL     1       7.814   7.602  17.594  0.00  0.00    +0.000 C 
BRANCH  19  20
ATOM     20  C   UNL     1       7.683   9.111  17.813  0.00  0.00    +0.000 C 
BRANCH  20  21
ATOM     21  O   UNL     1       8.946   9.754  17.620  0.00  0.00    +0.000 OA
BRANCH  21  22
ATOM     22  C   UNL     1       9.279  10.721  18.535  0.00  0.00    +0.000 A 
ATOM     23  C   UNL     1       9.449  10.514  19.904  0.00  0.00    +0.000 A 
ATOM     24  C   UNL     1       9.808  11.576  20.741  0.00  0.00    +0.000 A 
ATOM     25  C   UNL     1      10.005  12.864  20.226  0.00  0.00    +0.000 A 
ATOM     26  C   UNL     1      10.382  13.929  21.060  0.00  0.00    +0.000 A 
ATOM     27  C   UNL     1      10.584  15.206  20.537  0.00  0.00    +0.000 A 
ATOM     28  C   UNL     1      10.403  15.434  19.176  0.00  0.00    +0.000 A 
ATOM     29  C   UNL     1      10.024  14.384  18.335  0.00  0.00    +0.000 A 
ATOM     30  C   UNL     1       9.824  13.088  18.843  0.00  0.00    +0.000 A 
ATOM     31  C   UNL     1       9.459  12.008  18.015  0.00  0.00    +0.000 A 
ENDBRANCH  21  22
ENDBRANCH  20  21
ENDBRANCH  19  20
ENDBRANCH   3  19
TORSDOF 7
ENDMDL
MODEL 4
REMARK VINA RESULT:      -8.5      1.691      2.140
REMARK  Name = 
REMARK  7 active torsions:
REMARK  status: ('A' for Active; 'I' for Inactive)
REMARK    1  A    between atoms: C_2  and  C_3
REMARK    2  A    between atoms: C_3  and  C_4
REMARK    3  A    between atoms: C_4  and  N_5
REMARK    4  A    between atoms: N_16  and  C_17
REMARK    5  A    between atoms: C_17  and  C_18
REMARK    6  A    between atoms: C_18  and  O_19
REMARK    7  A    between atoms: O_19  and  C_20
REMARK                            x       y       z     vdW  Elec       q    Type
REMARK                         _______ _______ _______ _____ _____    ______ ____
ROOT
ATOM      1  O   UNL     1       7.991   5.119  18.959  0.00  0.00    +0.000 OA
ATOM      2  C   UNL     1       7.494   5.585  17.940  0.00  0.00    +0.000 C 
ATOM      3  N   UNL     1       7.588   6.917  17.598  0.00  0.00    +0.000 N 
ATOM      4  H   UNL     1       7.131   7.241  16.756  0.00  0.00    +0.000 HD
ENDROOT
BRANCH   2   5
ATOM      5  C   UNL     1       6.759   4.742  16.915  0.00  0.00    +0.000 C 
BRANCH   5   6
ATOM      6  C   UNL     1       5.524   5.475  16.401  0.00  0.00    +0.000 C 
BRANCH   6   7
ATOM      7  N   UNL     1       4.388   5.331  17.295  0.00  0.00    +0.000 N 
ATOM      8  C   UNL     1       3.704   6.368  17.856  0.00  0.00    +0.000 C 
ATOM      9  O   UNL     1       3.899   7.560  17.687  0.00  0.00    +0.000 OA
ATOM     10  N   UNL     1       2.711   5.857  18.658  0.00  0.00    +0.000 N 
ATOM     11  C   UNL     1       2.636   4.421  18.594  0.00  0.00    +0.000 C 
ATOM     12  C   UNL     1       1.315   3.933  17.995  0.00  0.00    +0.000 C 
ATOM     13  C   UNL     1       0.976   2.681  18.793  0.00  0.00    +0.000 C 
ATOM     14  C   UNL     1       1.471   3.009  20.191  0.00  0.00    +0.000 C 
ATOM     15  C   UNL     1       2.791   3.739  19.957  0.00  0.00    +0.000 C 
ATOM     16  C   UNL     1       3.820   4.138  17.653  0.00  0.00    +0.000 C 
ATOM     17  O   UNL     1       4.167   3.029  17.271  0.00  0.00    +0.000 OA
ATOM     18  H   UNL     1       2.075   6.469  19.153  0.00  0.00    +0.000 HD
ENDBRANCH   6   7
ENDBRANCH   5   6
ENDBRANCH   2   5
BRANCH   3  19
ATOM     19  C   UNL     1       8.250   7.884  18.466  0.00  0.00    +0.000 C 
BRANCH  19  20
ATOM     20  C   UNL     1       8.253   9.292  17.867  0.00  0.00    +0.000 C 
BRANCH  20  21
ATOM     21  O   UNL     1       8.663  10.251  18.847  0.00  0.00    +0.000 OA
BRANCH  21  22
ATOM     22  C   UNL     1       9.397  11.314  18.383  0.00  0.00    +0.000 A 
ATOM     23  C   UNL     1      10.688  11.238  17.859  0.00  0.00    +0.000 A 
ATOM     24  C   UNL     1      11.333  12.390  17.399  0.00  0.00    +0.000 A 
ATOM     25  C   UNL     1      10.702  13.639  17.452  0.00  0.00    +0.000 A 
ATOM     26  C   UNL     1      11.340  14.796  16.975  0.00  0.00    +0.000 A 
ATOM     27  C   UNL     1      10.700  16.034  17.026  0.00  0.00    +0.000 A 
ATOM     28  C   UNL     1       9.419  16.131  17.560  0.00  0.00    +0.000 A 
ATOM     29  C   UNL     1       8.774  14.989  18.042  0.00  0.00    +0.000 A 
ATOM     30  C   UNL     1       9.400  13.730  17.992  0.00  0.00    +0.000 A 
ATOM     31  C   UNL     1       8.765  12.560  18.454  0.00  0.00    +0.000 A 
ENDBRANCH  21  22
ENDBRANCH  20  21
ENDBRANCH  19  20
ENDBRANCH   3  19
TORSDOF 7
ENDMDL
MODEL 5
REMARK VINA RESULT:      -8.5      1.839      2.932
REMARK  Name = 
REMARK  7 active torsions:
REMARK  status: ('A' for Active; 'I' for Inactive)
REMARK    1  A    between atoms: C_2  and  C_3
REMARK    2  A    between atoms: C_3  and  C_4
REMARK    3  A    between atoms: C_4  and  N_5
REMARK    4  A    between atoms: N_16  and  C_17
REMARK    5  A    between atoms: C_17  and  C_18
REMARK    6  A    between atoms: C_18  and  O_19
REMARK    7  A    between atoms: O_19  and  C_20
REMARK                            x       y       z     vdW  Elec       q    Type
REMARK                         _______ _______ _______ _____ _____    ______ ____
ROOT
ATOM      1  O   UNL     1       7.424   5.681  15.170  0.00  0.00    +0.000 OA
ATOM      2  C   UNL     1       7.086   5.554  16.341  0.00  0.00    +0.000 C 
ATOM      3  N   UNL     1       7.249   6.546  17.285  0.00  0.00    +0.000 N 
ATOM      4  H   UNL     1       6.972   6.364  18.240  0.00  0.00    +0.000 HD
ENDROOT
BRANCH   2   5
ATOM      5  C   UNL     1       6.406   4.308  16.877  0.00  0.00    +0.000 C 
BRANCH   5   6
ATOM      6  C   UNL     1       4.939   4.272  16.457  0.00  0.00    +0.000 C 
BRANCH   6   7
ATOM      7  N   UNL     1       4.041   4.455  17.584  0.00  0.00    +0.000 N 
ATOM      8  C   UNL     1       3.680   5.662  18.102  0.00  0.00    +0.000 C 
ATOM      9  O   UNL     1       4.011   6.766  17.705  0.00  0.00    +0.000 OA
ATOM     10  N   UNL     1       2.840   5.450  19.170  0.00  0.00    +0.000 N 
ATOM     11  C   UNL     1       2.529   4.056  19.357  0.00  0.00    +0.000 C 
ATOM     12  C   UNL     1       1.044   3.756  19.140  0.00  0.00    +0.000 C 
ATOM     13  C   UNL     1       0.715   2.697  20.184  0.00  0.00    +0.000 C 
ATOM     14  C   UNL     1       1.574   3.095  21.373  0.00  0.00    +0.000 C 
ATOM     15  C   UNL     1       2.897   3.529  20.747  0.00  0.00    +0.000 C 
ATOM     16  C   UNL     1       3.396   3.443  18.243  0.00  0.00    +0.000 C 
ATOM     17  O   UNL     1       3.466   2.250  17.981  0.00  0.00    +0.000 OA
ATOM     18  H   UNL     1       2.443   6.226  19.682  0.00  0.00    +0.000 HD
ENDBRANCH   6   7
ENDBRANCH   5   6
ENDBRANCH   2   5
BRANCH   3  19
ATOM     19  C   UNL     1       7.892   7.813  16.958  0.00  0.00    +0.000 C 
BRANCH  19  20
ATOM     20  C   UNL     1       7.712   8.855  18.063  0.00  0.00    +0.000 C 
BRANCH  20  21
ATOM     21  O   UNL     1       8.892   8.937  18.869  0.00  0.00    +0.000 OA
BRANCH  21  22
ATOM     22  C   UNL     1       9.322  10.201  19.186  0.00  0.00    +0.000 A 
ATOM     23  C   UNL     1       9.396  10.731  20.474  0.00  0.00    +0.000 A 
ATOM     24  C   UNL     1       9.868  12.032  20.678  0.00  0.00    +0.000 A 
ATOM     25  C   UNL     1      10.277  12.827  19.600  0.00  0.00    +0.000 A 
ATOM     26  C   UNL     1      10.769  14.126  19.802  0.00  0.00    +0.000 A 
ATOM     27  C   UNL     1      11.180  14.908  18.723  0.00  0.00    +0.000 A 
ATOM     28  C   UNL     1      11.099  14.402  17.429  0.00  0.00    +0.000 A 
ATOM     29  C   UNL     1      10.608  13.111  17.213  0.00  0.00    +0.000 A 
ATOM     30  C   UNL     1      10.196  12.305  18.290  0.00  0.00    +0.000 A 
ATOM     31  C   UNL     1       9.713  10.994  18.102  0.00  0.00    +0.000 A 
ENDBRANCH  21  22
ENDBRANCH  20  21
ENDBRANCH  19  20
ENDBRANCH   3  19
TORSDOF 7
ENDMDL
MODEL 6
REMARK VINA RESULT:      -8.3      1.737      2.360
REMARK  Name = 
REMARK  7 active torsions:
REMARK  status: ('A' for Active; 'I' for Inactive)
REMARK    1  A    between atoms: C_2  and  C_3
REMARK    2  A    between atoms: C_3  and  C_4
REMARK    3  A    between atoms: C_4  and  N_5
REMARK    4  A    between atoms: N_16  and  C_17
REMARK    5  A    between atoms: C_17  and  C_18
REMARK    6  A    between atoms: C_18  and  O_19
REMARK    7  A    between atoms: O_19  and  C_20
REMARK                            x       y       z     vdW  Elec       q    Type
REMARK                         _______ _______ _______ _____ _____    ______ ____
ROOT
ATOM      1  O   UNL     1       7.165   7.338  16.984  0.00  0.00    +0.000 OA
ATOM      2  C   UNL     1       7.702   7.050  18.048  0.00  0.00    +0.000 C 
ATOM      3  N   UNL     1       8.453   7.946  18.779  0.00  0.00    +0.000 N 
ATOM      4  H   UNL     1       8.891   7.634  19.636  0.00  0.00    +0.000 HD
ENDROOT
BRANCH   2   5
ATOM      5  C   UNL     1       7.564   5.690  18.705  0.00  0.00    +0.000 C 
BRANCH   5   6
ATOM      6  C   UNL     1       7.288   4.612  17.661  0.00  0.00    +0.000 C 
BRANCH   6   7
ATOM      7  N   UNL     1       5.867   4.360  17.495  0.00  0.00    +0.000 N 
ATOM      8  C   UNL     1       5.168   4.577  16.347  0.00  0.00    +0.000 C 
ATOM      9  O   UNL     1       5.603   4.978  15.280  0.00  0.00    +0.000 OA
ATOM     10  N   UNL     1       3.850   4.248  16.563  0.00  0.00    +0.000 N 
ATOM     11  C   UNL     1       3.629   3.702  17.877  0.00  0.00    +0.000 C 
ATOM     12  C   UNL     1       3.165   2.244  17.831  0.00  0.00    +0.000 C 
ATOM     13  C   UNL     1       2.153   2.132  18.964  0.00  0.00    +0.000 C 
ATOM     14  C   UNL     1       1.463   3.485  18.955  0.00  0.00    +0.000 C 
ATOM     15  C   UNL     1       2.593   4.478  18.696  0.00  0.00    +0.000 C 
ATOM     16  C   UNL     1       5.051   3.822  18.454  0.00  0.00    +0.000 C 
ATOM     17  O   UNL     1       5.389   3.465  19.575  0.00  0.00    +0.000 OA
ATOM     18  H   UNL     1       3.166   4.321  15.822  0.00  0.00    +0.000 HD
ENDBRANCH   6   7
ENDBRANCH   5   6
ENDBRANCH   2   5
BRANCH   3  19
ATOM     19  C   UNL     1       8.704   9.301  18.302  0.00  0.00    +0.000 C 
BRANCH  19  20
ATOM     20  C   UNL     1       9.213  10.220  19.413  0.00  0.00    +0.000 C 
BRANCH  20  21
ATOM     21  O   UNL     1      10.205  11.118  18.904  0.00  0.00    +0.000 OA
BRANCH  21  22
ATOM     22  C   UNL     1      10.378  12.288  19.601  0.00  0.00    +0.000 A 
ATOM     23  C   UNL     1      11.234  13.327  19.237  0.00  0.00    +0.000 A 
ATOM     24  C   UNL     1      11.314  14.484  20.020  0.00  0.00    +0.000 A 
ATOM     25  C   UNL     1      10.540  14.625  21.178  0.00  0.00    +0.000 A 
ATOM     26  C   UNL     1      10.605  15.792  21.956  0.00  0.00    +0.000 A 
ATOM     27  C   UNL     1       9.825  15.926  23.104  0.00  0.00    +0.000 A 
ATOM     28  C   UNL     1       8.977  14.893  23.492  0.00  0.00    +0.000 A 
ATOM     29  C   UNL     1       8.905  13.724  22.728  0.00  0.00    +0.000 A 
ATOM     30  C   UNL     1       9.678  13.574  21.563  0.00  0.00    +0.000 A 
ATOM     31  C   UNL     1       9.613  12.414  20.766  0.00  0.00    +0.000 A 
ENDBRANCH  21  22
ENDBRANCH  20  21
ENDBRANCH  19  20
ENDBRANCH   3  19
TORSDOF 7
ENDMDL
MODEL 7
REMARK VINA RESULT:      -8.3      1.903     11.096
REMARK  Name = 
REMARK  7 active torsions:
REMARK  status: ('A' for Active; 'I' for Inactive)
REMARK    1  A    between atoms: C_2  and  C_3
REMARK    2  A    between atoms: C_3  and  C_4
REMARK    3  A    between atoms: C_4  and  N_5
REMARK    4  A    between atoms: N_16  and  C_17
REMARK    5  A    between atoms: C_17  and  C_18
REMARK    6  A    between atoms: C_18  and  O_19
REMARK    7  A    between atoms: O_19  and  C_20
REMARK                            x       y       z     vdW  Elec       q    Type
REMARK                         _______ _______ _______ _____ _____    ______ ____
ROOT
ATOM      1  O   UNL     1       8.420   7.154  18.814  0.00  0.00    +0.000 OA
ATOM      2  C   UNL     1       7.999   7.986  18.018  0.00  0.00    +0.000 C 
ATOM      3  N   UNL     1       7.153   7.670  16.976  0.00  0.00    +0.000 N 
ATOM      4  H   UNL     1       6.865   8.401  16.339  0.00  0.00    +0.000 HD
ENDROOT
BRANCH   2   5
ATOM      5  C   UNL     1       8.323   9.464  18.114  0.00  0.00    +0.000 C 
BRANCH   5   6
ATOM      6  C   UNL     1       9.373   9.717  19.192  0.00  0.00    +0.000 C 
BRANCH   6   7
ATOM      7  N   UNL     1       9.642  11.133  19.375  0.00  0.00    +0.000 N 
ATOM      8  C   UNL     1       9.256  11.863  20.458  0.00  0.00    +0.000 C 
ATOM      9  O   UNL     1       8.665  11.463  21.448  0.00  0.00    +0.000 OA
ATOM     10  N   UNL     1       9.662  13.165  20.280  0.00  0.00    +0.000 N 
ATOM     11  C   UNL     1      10.431  13.340  19.075  0.00  0.00    +0.000 C 
ATOM     12  C   UNL     1      11.875  13.760  19.362  0.00  0.00    +0.000 C 
ATOM     13  C   UNL     1      12.212  14.744  18.249  0.00  0.00    +0.000 C 
ATOM     14  C   UNL     1      10.901  15.475  18.016  0.00  0.00    +0.000 C 
ATOM     15  C   UNL     1       9.841  14.382  18.119  0.00  0.00    +0.000 C 
ATOM     16  C   UNL     1      10.362  11.911  18.509  0.00  0.00    +0.000 C 
ATOM     17  O   UNL     1      10.893  11.538  17.472  0.00  0.00    +0.000 OA
ATOM     18  H   UNL     1       9.488  13.867  20.987  0.00  0.00    +0.000 HD
ENDBRANCH   6   7
ENDBRANCH   5   6
ENDBRANCH   2   5
BRANCH   3  19
ATOM     19  C   UNL     1       6.737   6.296  16.719  0.00  0.00    +0.000 C 
BRANCH  19  20
ATOM     20  C   UNL     1       5.316   6.216  16.159  0.00  0.00    +0.000 C 
BRANCH  20  21
ATOM     21  O   UNL     1       4.968   4.859  15.871  0.00  0.00    +0.000 OA
BRANCH  21  22
ATOM     22  C   UNL     1       4.235   4.205  16.831  0.00  0.00    +0.000 A 
ATOM     23  C   UNL     1       4.171   2.822  16.996  0.00  0.00    +0.000 A 
ATOM     24  C   UNL     1       3.402   2.267  18.024  0.00  0.00    +0.000 A 
ATOM     25  C   UNL     1       2.685   3.083  18.908  0.00  0.00    +0.000 A 
ATOM     26  C   UNL     1       1.927   2.531  19.953  0.00  0.00    +0.000 A 
ATOM     27  C   UNL     1       1.222   3.353  20.832  0.00  0.00    +0.000 A 
ATOM     28  C   UNL     1       1.261   4.734  20.673  0.00  0.00    +0.000 A 
ATOM     29  C   UNL     1       2.009   5.298  19.635  0.00  0.00    +0.000 A 
ATOM     30  C   UNL     1       2.733   4.485  18.743  0.00  0.00    +0.000 A 
ATOM     31  C   UNL     1       3.509   5.027  17.699  0.00  0.00    +0.000 A 
ENDBRANCH  21  22
ENDBRANCH  20  21
ENDBRANCH  19  20
ENDBRANCH   3  19
TORSDOF 7
ENDMDL
MODEL 8
REMARK VINA RESULT:      -8.3      6.857      8.810
REMARK  Name = 
REMARK  7 active torsions:
REMARK  status: ('A' for Active; 'I' for Inactive)
REMARK    1  A    between atoms: C_2  and  C_3
REMARK    2  A    between atoms: C_3  and  C_4
REMARK    3  A    between atoms: C_4  and  N_5
REMARK    4  A    between atoms: N_16  and  C_17
REMARK    5  A    between atoms: C_17  and  C_18
REMARK    6  A    between atoms: C_18  and  O_19
REMARK    7  A    between atoms: O_19  and  C_20
REMARK                            x       y       z     vdW  Elec       q    Type
REMARK                         _______ _______ _______ _____ _____    ______ ____
ROOT
ATOM      1  O   UNL     1       1.522   3.243  21.677  0.00  0.00    +0.000 OA
ATOM      2  C   UNL     1       1.318   3.616  20.527  0.00  0.00    +0.000 C 
ATOM      3  N   UNL     1       1.445   4.930  20.129  0.00  0.00    +0.000 N 
ATOM      4  H   UNL     1       1.235   5.174  19.170  0.00  0.00    +0.000 HD
ENDROOT
BRANCH   2   5
ATOM      5  C   UNL     1       0.948   2.671  19.401  0.00  0.00    +0.000 C 
BRANCH   5   6
ATOM      6  C   UNL     1       2.162   1.861  18.956  0.00  0.00    +0.000 C 
BRANCH   6   7
ATOM      7  N   UNL     1       3.267   2.709  18.544  0.00  0.00    +0.000 N 
ATOM      8  C   UNL     1       4.443   2.838  19.220  0.00  0.00    +0.000 C 
ATOM      9  O   UNL     1       4.777   2.257  20.239  0.00  0.00    +0.000 OA
ATOM     10  N   UNL     1       5.240   3.737  18.551  0.00  0.00    +0.000 N 
ATOM     11  C   UNL     1       4.643   4.192  17.322  0.00  0.00    +0.000 C 
ATOM     12  C   UNL     1       5.449   3.765  16.091  0.00  0.00    +0.000 C 
ATOM     13  C   UNL     1       5.341   4.949  15.140  0.00  0.00    +0.000 C 
ATOM     14  C   UNL     1       5.345   6.151  16.069  0.00  0.00    +0.000 C 
ATOM     15  C   UNL     1       4.480   5.713  17.248  0.00  0.00    +0.000 C 
ATOM     16  C   UNL     1       3.295   3.454  17.395  0.00  0.00    +0.000 C 
ATOM     17  O   UNL     1       2.415   3.508  16.547  0.00  0.00    +0.000 OA
ATOM     18  H   UNL     1       6.169   3.957  18.884  0.00  0.00    +0.000 HD
ENDBRANCH   6   7
ENDBRANCH   5   6
ENDBRANCH   2   5
BRANCH   3  19
ATOM     19  C   UNL     1       1.786   5.986  21.075  0.00  0.00    +0.000 C 
BRANCH  19  20
ATOM     20  C   UNL     1       1.841   7.363  20.410  0.00  0.00    +0.000 C 
BRANCH  20  21
ATOM     21  O   UNL     1       1.620   8.394  21.378  0.00  0.00    +0.000 OA
BRANCH  21  22
ATOM     22  C   UNL     1       0.677   9.337  21.053  0.00  0.00    +0.000 A 
ATOM     23  C   UNL     1       0.158  10.295  21.924  0.00  0.00    +0.000 A 
ATOM     24  C   UNL     1      -0.791  11.219  21.474  0.00  0.00    +0.000 A 
ATOM     25  C   UNL     1      -1.237  11.206  20.147  0.00  0.00    +0.000 A 
ATOM     26  C   UNL     1      -2.176  12.143  19.687  0.00  0.00    +0.000 A 
ATOM     27  C   UNL     1      -2.609  12.126  18.362  0.00  0.00    +0.000 A 
ATOM     28  C   UNL     1      -2.114  11.167  17.483  0.00  0.00    +0.000 A 
ATOM     29  C   UNL     1      -1.182  10.225  17.928  0.00  0.00    +0.000 A 
ATOM     30  C   UNL     1      -0.727  10.232  19.259  0.00  0.00    +0.000 A 
ATOM     31  C   UNL     1       0.225   9.306  19.729  0.00  0.00    +0.000 A 
ENDBRANCH  21  22
ENDBRANCH  20  21
ENDBRANCH  19  20
ENDBRANCH   3  19
TORSDOF 7
ENDMDL
MODEL 9
REMARK VINA RESULT:      -8.2      1.609      2.012
REMARK  Name = 
REMARK  7 active torsions:
REMARK  status: ('A' for Active; 'I' for Inactive)
REMARK    1  A    between atoms: C_2  and  C_3
REMARK    2  A    between atoms: C_3  and  C_4
REMARK    3  A    between atoms: C_4  and  N_5
REMARK    4  A    between atoms: N_16  and  C_17
REMARK    5  A    between atoms: C_17  and  C_18
REMARK    6  A    between atoms: C_18  and  O_19
REMARK    7  A    between atoms: O_19  and  C_20
REMARK                            x       y       z     vdW  Elec       q    Type
REMARK                         _______ _______ _______ _____ _____    ______ ____
ROOT
ATOM      1  O   UNL     1       7.673   5.476  17.975  0.00  0.00    +0.000 OA
ATOM      2  C   UNL     1       7.280   6.204  17.071  0.00  0.00    +0.000 C 
ATOM      3  N   UNL     1       7.512   7.563  17.042  0.00  0.00    +0.000 N 
ATOM      4  H   UNL     1       7.135   8.109  16.279  0.00  0.00    +0.000 HD
ENDROOT
BRANCH   2   5
ATOM      5  C   UNL     1       6.534   5.687  15.856  0.00  0.00    +0.000 C 
BRANCH   5   6
ATOM      6  C   UNL     1       5.045   6.004  15.962  0.00  0.00    +0.000 C 
BRANCH   6   7
ATOM      7  N   UNL     1       4.363   5.128  16.899  0.00  0.00    +0.000 N 
ATOM      8  C   UNL     1       4.561   3.783  16.991  0.00  0.00    +0.000 C 
ATOM      9  O   UNL     1       5.344   3.105  16.348  0.00  0.00    +0.000 OA
ATOM     10  N   UNL     1       3.732   3.281  17.967  0.00  0.00    +0.000 N 
ATOM     11  C   UNL     1       2.990   4.314  18.642  0.00  0.00    +0.000 C 
ATOM     12  C   UNL     1       3.361   4.425  20.123  0.00  0.00    +0.000 C 
ATOM     13  C   UNL     1       2.045   4.738  20.821  0.00  0.00    +0.000 C 
ATOM     14  C   UNL     1       1.024   3.948  20.022  0.00  0.00    +0.000 C 
ATOM     15  C   UNL     1       1.472   4.120  18.572  0.00  0.00    +0.000 C 
ATOM     16  C   UNL     1       3.467   5.542  17.848  0.00  0.00    +0.000 C 
ATOM     17  O   UNL     1       3.119   6.696  18.058  0.00  0.00    +0.000 OA
ATOM     18  H   UNL     1       3.743   2.298  18.204  0.00  0.00    +0.000 HD
ENDBRANCH   6   7
ENDBRANCH   5   6
ENDBRANCH   2   5
BRANCH   3  19
ATOM     19  C   UNL     1       8.206   8.243  18.130  0.00  0.00    +0.000 C 
BRANCH  19  20
ATOM     20  C   UNL     1       8.243   9.759  17.934  0.00  0.00    +0.000 C 
BRANCH  20  21
ATOM     21  O   UNL     1       9.193  10.355  18.823  0.00  0.00    +0.000 OA
BRANCH  21  22
ATOM     22  C   UNL     1       9.809  11.496  18.373  0.00  0.00    +0.000 A 
ATOM     23  C   UNL     1      11.101  11.566  17.851  0.00  0.00    +0.000 A 
ATOM     24  C   UNL     1      11.619  12.786  17.406  0.00  0.00    +0.000 A 
ATOM     25  C   UNL     1      10.857  13.959  17.473  0.00  0.00    +0.000 A 
ATOM     26  C   UNL     1      11.367  15.183  17.011  0.00  0.00    +0.000 A 
ATOM     27  C   UNL     1      10.598  16.344  17.074  0.00  0.00    +0.000 A 
ATOM     28  C   UNL     1       9.313  16.297  17.607  0.00  0.00    +0.000 A 
ATOM     29  C   UNL     1       8.794  15.086  18.074  0.00  0.00    +0.000 A 
ATOM     30  C   UNL     1       9.552  13.903  18.010  0.00  0.00    +0.000 A 
ATOM     31  C   UNL     1       9.047  12.666  18.458  0.00  0.00    +0.000 A 
ENDBRANCH  21  22
ENDBRANCH  20  21
ENDBRANCH  19  20
ENDBRANCH   3  19
TORSDOF 7
ENDMDL
