MODEL 1
REMARK VINA RESULT:      -9.9      0.000      0.000
REMARK  Name = 
REMARK  4 active torsions:
REMARK  status: ('A' for Active; 'I' for Inactive)
REMARK    1  A    between atoms: C_13  and  C_14
REMARK    2  A    between atoms: C_17  and  O_18
REMARK    3  A    between atoms: O_18  and  C_19
REMARK    4  A    between atoms: C_19  and  C_20
REMARK                            x       y       z     vdW  Elec       q    Type
REMARK                         _______ _______ _______ _____ _____    ______ ____
ROOT
ATOM      1  N   UNL     1       4.910   1.383  19.719  0.00  0.00    +0.000 N 
ATOM      2  C   UNL     1       4.287   2.570  19.529  0.00  0.00    +0.000 C 
ATOM      3  N   UNL     1       3.486   3.054  20.418  0.00  0.00    +0.000 NA
ATOM      4  C   UNL     1       2.958   4.281  20.174  0.00  0.00    +0.000 A 
ATOM      5  N   UNL     1       2.150   4.996  20.934  0.00  0.00    +0.000 NA
ATOM      6  C   UNL     1       2.007   6.212  20.308  0.00  0.00    +0.000 A 
ATOM      7  C   UNL     1       1.309   7.358  20.723  0.00  0.00    +0.000 A 
ATOM      8  C   UNL     1       1.351   8.506  19.920  0.00  0.00    +0.000 A 
ATOM      9  C   UNL     1       2.061   8.511  18.719  0.00  0.00    +0.000 A 
ATOM     10  C   UNL     1       2.746   7.375  18.281  0.00  0.00    +0.000 A 
ATOM     11  C   UNL     1       2.703   6.245  19.106  0.00  0.00    +0.000 A 
ATOM     12  N   UNL     1       3.288   5.006  19.051  0.00  0.00    +0.000 N 
ATOM     13  C   UNL     1       4.260   4.501  18.093  0.00  0.00    +0.000 C 
ATOM     14  N   UNL     1       4.643   3.119  18.341  0.00  0.00    +0.000 N 
ATOM     15  H   UNL     1       4.519   0.901  20.526  0.00  0.00    +0.000 HD
ATOM     16  H   UNL     1       4.900   0.783  18.904  0.00  0.00    +0.000 HD
ATOM     17  H   UNL     1       5.586   2.896  18.049  0.00  0.00    +0.000 HD
ENDROOT
BRANCH  13  18
ATOM     18  C   UNL     1       5.494   5.390  18.103  0.00  0.00    +0.000 A 
ATOM     19  C   UNL     1       6.484   5.216  19.084  0.00  0.00    +0.000 A 
ATOM     20  C   UNL     1       7.527   6.128  19.211  0.00  0.00    +0.000 A 
ATOM     21  C   UNL     1       7.619   7.209  18.336  0.00  0.00    +0.000 A 
ATOM     22  C   UNL     1       6.658   7.377  17.339  0.00  0.00    +0.000 A 
ATOM     23  C   UNL     1       5.608   6.466  17.210  0.00  0.00    +0.000 A 
BRANCH  21  24
ATOM     24  O   UNL     1       8.597   8.164  18.374  0.00  0.00    +0.000 OA
BRANCH  24  25
ATOM     25  C   UNL     1       8.299   9.366  17.666  0.00  0.00    +0.000 C 
BRANCH  25  26
ATOM     26  C   UNL     1       8.902  10.518  18.425  0.00  0.00    +0.000 A 
ATOM     27  C   UNL     1       8.907  11.807  17.875  0.00  0.00    +0.000 A 
ATOM     28  C   UNL     1       9.498  12.864  18.569  0.00  0.00    +0.000 A 
ATOM     29  C   UNL     1      10.084  12.633  19.812  0.00  0.00    +0.000 A 
ATOM     30 CL   UNL     1      10.836  13.931  20.656  0.00  0.00    +0.000 Cl
ATOM     31  C   UNL     1      10.077  11.359  20.373  0.00  0.00    +0.000 A 
ATOM     32  C   UNL     1       9.488  10.304  19.681  0.00  0.00    +0.000 A 
ENDBRANCH  25  26
ENDBRANCH  24  25
ENDBRANCH  21  24
ENDBRANCH  13  18
TORSDOF 4
ENDMDL
MODEL 2
REMARK VINA RESULT:      -9.4      4.810      7.783
REMARK  Name = 
REMARK  4 active torsions:
REMARK  status: ('A' for Active; 'I' for Inactive)
REMARK    1  A    between atoms: C_13  and  C_14
REMARK    2  A    between atoms: C_17  and  O_18
REMARK    3  A    between atoms: O_18  and  C_19
REMARK    4  A    between atoms: C_19  and  C_20
REMARK                            x       y       z     vdW  Elec       q    Type
REMARK                         _______ _______ _______ _____ _____    ______ ____
ROOT
ATOM      1  N   UNL     1       7.470   7.031  17.642  0.00  0.00    +0.000 N 
ATOM      2  C   UNL     1       6.373   6.258  17.823  0.00  0.00    +0.000 C 
ATOM      3  N   UNL     1       6.406   5.223  18.593  0.00  0.00    +0.000 NA
ATOM      4  C   UNL     1       5.242   4.545  18.769  0.00  0.00    +0.000 A 
ATOM      5  N   UNL     1       5.011   3.487  19.524  0.00  0.00    +0.000 NA
ATOM      6  C   UNL     1       3.656   3.259  19.465  0.00  0.00    +0.000 A 
ATOM      7  C   UNL     1       2.878   2.301  20.133  0.00  0.00    +0.000 A 
ATOM      8  C   UNL     1       1.490   2.298  19.939  0.00  0.00    +0.000 A 
ATOM      9  C   UNL     1       0.888   3.221  19.085  0.00  0.00    +0.000 A 
ATOM     10  C   UNL     1       1.647   4.172  18.397  0.00  0.00    +0.000 A 
ATOM     11  C   UNL     1       3.030   4.165  18.618  0.00  0.00    +0.000 A 
ATOM     12  N   UNL     1       4.063   4.960  18.192  0.00  0.00    +0.000 N 
ATOM     13  C   UNL     1       4.007   6.178  17.398  0.00  0.00    +0.000 C 
ATOM     14  N   UNL     1       5.318   6.742  17.121  0.00  0.00    +0.000 N 
ATOM     15  H   UNL     1       8.294   6.579  18.034  0.00  0.00    +0.000 HD
ATOM     16  H   UNL     1       7.629   7.291  16.677  0.00  0.00    +0.000 HD
ATOM     17  H   UNL     1       5.318   7.749  17.017  0.00  0.00    +0.000 HD
ENDROOT
BRANCH  13  18
ATOM     18  C   UNL     1       3.138   7.207  18.106  0.00  0.00    +0.000 A 
ATOM     19  C   UNL     1       2.750   7.006  19.441  0.00  0.00    +0.000 A 
ATOM     20  C   UNL     1       1.819   7.846  20.044  0.00  0.00    +0.000 A 
ATOM     21  C   UNL     1       1.288   8.922  19.336  0.00  0.00    +0.000 A 
ATOM     22  C   UNL     1       1.687   9.149  18.019  0.00  0.00    +0.000 A 
ATOM     23  C   UNL     1       2.619   8.308  17.409  0.00  0.00    +0.000 A 
BRANCH  21  24
ATOM     24  O   UNL     1       0.367   9.804  19.829  0.00  0.00    +0.000 OA
BRANCH  24  25
ATOM     25  C   UNL     1       0.116  10.943  19.007  0.00  0.00    +0.000 C 
BRANCH  25  26
ATOM     26  C   UNL     1      -1.357  10.982  18.699  0.00  0.00    +0.000 A 
ATOM     27  C   UNL     1      -1.918  10.076  17.788  0.00  0.00    +0.000 A 
ATOM     28  C   UNL     1      -3.278  10.140  17.481  0.00  0.00    +0.000 A 
ATOM     29  C   UNL     1      -4.078  11.110  18.083  0.00  0.00    +0.000 A 
ATOM     30 CL   UNL     1      -5.749  11.205  17.684  0.00  0.00    +0.000 Cl
ATOM     31  C   UNL     1      -3.534  12.010  18.996  0.00  0.00    +0.000 A 
ATOM     32  C   UNL     1      -2.177  11.946  19.303  0.00  0.00    +0.000 A 
ENDBRANCH  25  26
ENDBRANCH  24  25
ENDBRANCH  21  24
ENDBRANCH  13  18
TORSDOF 4
ENDMDL
MODEL 3
REMARK VINA RESULT:      -9.2      4.595      7.334
REMARK  Name = 
REMARK  4 active torsions:
REMARK  status: ('A' for Active; 'I' for Inactive)
REMARK    1  A    between atoms: C_13  and  C_14
REMARK    2  A    between atoms: C_17  and  O_18
REMARK    3  A    between atoms: O_18  and  C_19
REMARK    4  A    between atoms: C_19  and  C_20
REMARK                            x       y       z     vdW  Elec       q    Type
REMARK                         _______ _______ _______ _____ _____    ______ ____
ROOT
ATOM      1  N   UNL     1       7.667   6.605  18.225  0.00  0.00    +0.000 N 
ATOM      2  C   UNL     1       6.512   5.898  18.188  0.00  0.00    +0.000 C 
ATOM      3  N   UNL     1       6.384   4.795  18.845  0.00  0.00    +0.000 NA
ATOM      4  C   UNL     1       5.169   4.188  18.805  0.00  0.00    +0.000 A 
ATOM      5  N   UNL     1       4.780   3.083  19.413  0.00  0.00    +0.000 NA
ATOM      6  C   UNL     1       3.434   2.958  19.163  0.00  0.00    +0.000 A 
ATOM      7  C   UNL     1       2.520   1.999  19.627  0.00  0.00    +0.000 A 
ATOM      8  C   UNL     1       1.171   2.113  19.263  0.00  0.00    +0.000 A 
ATOM      9  C   UNL     1       0.741   3.154  18.440  0.00  0.00    +0.000 A 
ATOM     10  C   UNL     1       1.638   4.109  17.953  0.00  0.00    +0.000 A 
ATOM     11  C   UNL     1       2.978   3.982  18.342  0.00  0.00    +0.000 A 
ATOM     12  N   UNL     1       4.101   4.739  18.131  0.00  0.00    +0.000 N 
ATOM     13  C   UNL     1       4.221   6.027  17.466  0.00  0.00    +0.000 C 
ATOM     14  N   UNL     1       5.588   6.520  17.414  0.00  0.00    +0.000 N 
ATOM     15  H   UNL     1       8.404   6.060  18.667  0.00  0.00    +0.000 HD
ATOM     16  H   UNL     1       7.966   6.943  17.318  0.00  0.00    +0.000 HD
ATOM     17  H   UNL     1       5.661   7.529  17.415  0.00  0.00    +0.000 HD
ENDROOT
BRANCH  13  18
ATOM     18  C   UNL     1       3.329   7.044  18.163  0.00  0.00    +0.000 A 
ATOM     19  C   UNL     1       2.903   6.824  19.483  0.00  0.00    +0.000 A 
ATOM     20  C   UNL     1       1.952   7.652  20.070  0.00  0.00    +0.000 A 
ATOM     21  C   UNL     1       1.439   8.737  19.362  0.00  0.00    +0.000 A 
ATOM     22  C   UNL     1       1.876   8.984  18.061  0.00  0.00    +0.000 A 
ATOM     23  C   UNL     1       2.827   8.153  17.466  0.00  0.00    +0.000 A 
BRANCH  21  24
ATOM     24  O   UNL     1       0.502   9.610  19.841  0.00  0.00    +0.000 OA
BRANCH  24  25
ATOM     25  C   UNL     1       0.424   9.698  21.262  0.00  0.00    +0.000 C 
BRANCH  25  26
ATOM     26  C   UNL     1      -0.623  10.722  21.611  0.00  0.00    +0.000 A 
ATOM     27  C   UNL     1      -1.067  10.863  22.934  0.00  0.00    +0.000 A 
ATOM     28  C   UNL     1      -2.063  11.790  23.245  0.00  0.00    +0.000 A 
ATOM     29  C   UNL     1      -2.617  12.575  22.235  0.00  0.00    +0.000 A 
ATOM     30 CL   UNL     1      -3.863  13.699  22.614  0.00  0.00    +0.000 Cl
ATOM     31  C   UNL     1      -2.177  12.450  20.919  0.00  0.00    +0.000 A 
ATOM     32  C   UNL     1      -1.184  11.526  20.608  0.00  0.00    +0.000 A 
ENDBRANCH  25  26
ENDBRANCH  24  25
ENDBRANCH  21  24
ENDBRANCH  13  18
TORSDOF 4
ENDMDL
MODEL 4
REMARK VINA RESULT:      -9.2      0.882      1.278
REMARK  Name = 
REMARK  4 active torsions:
REMARK  status: ('A' for Active; 'I' for Inactive)
REMARK    1  A    between atoms: C_13  and  C_14
REMARK    2  A    between atoms: C_17  and  O_18
REMARK    3  A    between atoms: O_18  and  C_19
REMARK    4  A    between atoms: C_19  and  C_20
REMARK                            x       y       z     vdW  Elec       q    Type
REMARK                         _______ _______ _______ _____ _____    ______ ____
ROOT
ATOM      1  N   UNL     1       4.422   1.118  18.939  0.00  0.00    +0.000 N 
ATOM      2  C   UNL     1       3.830   2.335  18.968  0.00  0.00    +0.000 C 
ATOM      3  N   UNL     1       3.222   2.756  20.026  0.00  0.00    +0.000 NA
ATOM      4  C   UNL     1       2.715   4.016  19.989  0.00  0.00    +0.000 A 
ATOM      5  N   UNL     1       2.088   4.680  20.941  0.00  0.00    +0.000 NA
ATOM      6  C   UNL     1       1.892   5.953  20.460  0.00  0.00    +0.000 A 
ATOM      7  C   UNL     1       1.331   7.075  21.091  0.00  0.00    +0.000 A 
ATOM      8  C   UNL     1       1.283   8.291  20.397  0.00  0.00    +0.000 A 
ATOM      9  C   UNL     1       1.770   8.389  19.093  0.00  0.00    +0.000 A 
ATOM     10  C   UNL     1       2.315   7.279  18.441  0.00  0.00    +0.000 A 
ATOM     11  C   UNL     1       2.366   6.078  19.159  0.00  0.00    +0.000 A 
ATOM     12  N   UNL     1       2.876   4.834  18.892  0.00  0.00    +0.000 N 
ATOM     13  C   UNL     1       3.639   4.392  17.735  0.00  0.00    +0.000 C 
ATOM     14  N   UNL     1       3.996   2.983  17.788  0.00  0.00    +0.000 N 
ATOM     15  H   UNL     1       4.159   0.573  19.758  0.00  0.00    +0.000 HD
ATOM     16  H   UNL     1       4.241   0.598  18.090  0.00  0.00    +0.000 HD
ATOM     17  H   UNL     1       4.862   2.761  17.313  0.00  0.00    +0.000 HD
ENDROOT
BRANCH  13  18
ATOM     18  C   UNL     1       4.895   5.240  17.600  0.00  0.00    +0.000 A 
ATOM     19  C   UNL     1       5.862   5.239  18.619  0.00  0.00    +0.000 A 
ATOM     20  C   UNL     1       6.924   6.137  18.591  0.00  0.00    +0.000 A 
ATOM     21  C   UNL     1       7.060   7.024  17.525  0.00  0.00    +0.000 A 
ATOM     22  C   UNL     1       6.123   7.016  16.493  0.00  0.00    +0.000 A 
ATOM     23  C   UNL     1       5.053   6.119  16.519  0.00  0.00    +0.000 A 
BRANCH  21  24
ATOM     24  O   UNL     1       8.061   7.948  17.400  0.00  0.00    +0.000 OA
BRANCH  24  25
ATOM     25  C   UNL     1       8.657   8.367  18.627  0.00  0.00    +0.000 C 
BRANCH  25  26
ATOM     26  C   UNL     1       8.883   9.854  18.553  0.00  0.00    +0.000 A 
ATOM     27  C   UNL     1       9.779  10.481  19.430  0.00  0.00    +0.000 A 
ATOM     28  C   UNL     1       9.958  11.864  19.380  0.00  0.00    +0.000 A 
ATOM     29  C   UNL     1       9.241  12.621  18.454  0.00  0.00    +0.000 A 
ATOM     30 CL   UNL     1       9.442  14.330  18.410  0.00  0.00    +0.000 Cl
ATOM     31  C   UNL     1       8.356  12.008  17.572  0.00  0.00    +0.000 A 
ATOM     32  C   UNL     1       8.177  10.628  17.621  0.00  0.00    +0.000 A 
ENDBRANCH  25  26
ENDBRANCH  24  25
ENDBRANCH  21  24
ENDBRANCH  13  18
TORSDOF 4
ENDMDL
MODEL 5
REMARK VINA RESULT:      -9.1      4.461      7.515
REMARK  Name = 
REMARK  4 active torsions:
REMARK  status: ('A' for Active; 'I' for Inactive)
REMARK    1  A    between atoms: C_13  and  C_14
REMARK    2  A    between atoms: C_17  and  O_18
REMARK    3  A    between atoms: O_18  and  C_19
REMARK    4  A    between atoms: C_19  and  C_20
REMARK                            x       y       z     vdW  Elec       q    Type
REMARK                         _______ _______ _______ _____ _____    ______ ____
ROOT
ATOM      1  N   UNL     1       0.720   1.981  18.747  0.00  0.00    +0.000 N 
ATOM      2  C   UNL     1       1.887   2.655  18.615  0.00  0.00    +0.000 C 
ATOM      3  N   UNL     1       2.664   2.451  17.605  0.00  0.00    +0.000 NA
ATOM      4  C   UNL     1       3.781   3.219  17.518  0.00  0.00    +0.000 A 
ATOM      5  N   UNL     1       4.705   3.226  16.575  0.00  0.00    +0.000 NA
ATOM      6  C   UNL     1       5.555   4.265  16.875  0.00  0.00    +0.000 A 
ATOM      7  C   UNL     1       6.664   4.750  16.164  0.00  0.00    +0.000 A 
ATOM      8  C   UNL     1       7.352   5.866  16.659  0.00  0.00    +0.000 A 
ATOM      9  C   UNL     1       6.954   6.481  17.846  0.00  0.00    +0.000 A 
ATOM     10  C   UNL     1       5.864   6.002  18.577  0.00  0.00    +0.000 A 
ATOM     11  C   UNL     1       5.183   4.894  18.056  0.00  0.00    +0.000 A 
ATOM     12  N   UNL     1       4.061   4.205  18.438  0.00  0.00    +0.000 N 
ATOM     13  C   UNL     1       3.139   4.496  19.526  0.00  0.00    +0.000 C 
ATOM     14  N   UNL     1       2.065   3.522  19.642  0.00  0.00    +0.000 N 
ATOM     15  H   UNL     1       0.668   1.222  18.071  0.00  0.00    +0.000 HD
ATOM     16  H   UNL     1       0.553   1.638  19.685  0.00  0.00    +0.000 HD
ATOM     17  H   UNL     1       1.205   3.903  20.014  0.00  0.00    +0.000 HD
ENDROOT
BRANCH  13  18
ATOM     18  C   UNL     1       2.559   5.890  19.342  0.00  0.00    +0.000 A 
ATOM     19  C   UNL     1       2.583   6.505  18.079  0.00  0.00    +0.000 A 
ATOM     20  C   UNL     1       2.217   7.839  17.932  0.00  0.00    +0.000 A 
ATOM     21  C   UNL     1       1.784   8.570  19.036  0.00  0.00    +0.000 A 
ATOM     22  C   UNL     1       1.728   7.962  20.290  0.00  0.00    +0.000 A 
ATOM     23  C   UNL     1       2.097   6.625  20.443  0.00  0.00    +0.000 A 
BRANCH  21  24
ATOM     24  O   UNL     1       1.405   9.884  19.004  0.00  0.00    +0.000 OA
BRANCH  24  25
ATOM     25  C   UNL     1       0.327  10.226  19.874  0.00  0.00    +0.000 C 
BRANCH  25  26
ATOM     26  C   UNL     1      -0.866  10.575  19.025  0.00  0.00    +0.000 A 
ATOM     27  C   UNL     1      -1.822  11.492  19.485  0.00  0.00    +0.000 A 
ATOM     28  C   UNL     1      -2.944  11.785  18.708  0.00  0.00    +0.000 A 
ATOM     29  C   UNL     1      -3.111  11.161  17.473  0.00  0.00    +0.000 A 
ATOM     30 CL   UNL     1      -4.509  11.503  16.527  0.00  0.00    +0.000 Cl
ATOM     31  C   UNL     1      -2.164  10.256  17.002  0.00  0.00    +0.000 A 
ATOM     32  C   UNL     1      -1.045   9.963  17.776  0.00  0.00    +0.000 A 
ENDBRANCH  25  26
ENDBRANCH  24  25
ENDBRANCH  21  24
ENDBRANCH  13  18
TORSDOF 4
ENDMDL
MODEL 6
REMARK VINA RESULT:      -9.1      4.519      7.541
REMARK  Name = 
REMARK  4 active torsions:
REMARK  status: ('A' for Active; 'I' for Inactive)
REMARK    1  A    between atoms: C_13  and  C_14
REMARK    2  A    between atoms: C_17  and  O_18
REMARK    3  A    between atoms: O_18  and  C_19
REMARK    4  A    between atoms: C_19  and  C_20
REMARK                            x       y       z     vdW  Elec       q    Type
REMARK                         _______ _______ _______ _____ _____    ______ ____
ROOT
ATOM      1  N   UNL     1       7.375   7.287  17.822  0.00  0.00    +0.000 N 
ATOM      2  C   UNL     1       6.328   6.429  17.861  0.00  0.00    +0.000 C 
ATOM      3  N   UNL     1       6.402   5.315  18.508  0.00  0.00    +0.000 NA
ATOM      4  C   UNL     1       5.281   4.547  18.550  0.00  0.00    +0.000 A 
ATOM      5  N   UNL     1       5.094   3.396  19.167  0.00  0.00    +0.000 NA
ATOM      6  C   UNL     1       3.762   3.089  19.016  0.00  0.00    +0.000 A 
ATOM      7  C   UNL     1       3.026   2.011  19.532  0.00  0.00    +0.000 A 
ATOM      8  C   UNL     1       1.650   1.942  19.272  0.00  0.00    +0.000 A 
ATOM      9  C   UNL     1       1.020   2.918  18.500  0.00  0.00    +0.000 A 
ATOM     10  C   UNL     1       1.740   3.989  17.963  0.00  0.00    +0.000 A 
ATOM     11  C   UNL     1       3.109   4.046  18.248  0.00  0.00    +0.000 A 
ATOM     12  N   UNL     1       4.100   4.950  17.966  0.00  0.00    +0.000 N 
ATOM     13  C   UNL     1       3.992   6.246  17.315  0.00  0.00    +0.000 C 
ATOM     14  N   UNL     1       5.272   6.922  17.168  0.00  0.00    +0.000 N 
ATOM     15  H   UNL     1       8.211   6.846  18.200  0.00  0.00    +0.000 HD
ATOM     16  H   UNL     1       7.555   7.667  16.902  0.00  0.00    +0.000 HD
ATOM     17  H   UNL     1       5.206   7.932  17.179  0.00  0.00    +0.000 HD
ENDROOT
BRANCH  13  18
ATOM     18  C   UNL     1       3.026   7.127  18.092  0.00  0.00    +0.000 A 
ATOM     19  C   UNL     1       2.528   8.309  17.518  0.00  0.00    +0.000 A 
ATOM     20  C   UNL     1       1.786   9.209  18.276  0.00  0.00    +0.000 A 
ATOM     21  C   UNL     1       1.497   8.926  19.609  0.00  0.00    +0.000 A 
ATOM     22  C   UNL     1       1.961   7.743  20.183  0.00  0.00    +0.000 A 
ATOM     23  C   UNL     1       2.709   6.838  19.427  0.00  0.00    +0.000 A 
BRANCH  21  24
ATOM     24  O   UNL     1       0.781   9.740  20.443  0.00  0.00    +0.000 OA
BRANCH  24  25
ATOM     25  C   UNL     1      -0.030  10.715  19.791  0.00  0.00    +0.000 C 
BRANCH  25  26
ATOM     26  C   UNL     1      -0.957  11.314  20.815  0.00  0.00    +0.000 A 
ATOM     27  C   UNL     1      -0.821  10.991  22.172  0.00  0.00    +0.000 A 
ATOM     28  C   UNL     1      -1.705  11.522  23.113  0.00  0.00    +0.000 A 
ATOM     29  C   UNL     1      -2.726  12.375  22.697  0.00  0.00    +0.000 A 
ATOM     30 CL   UNL     1      -3.833  13.009  23.853  0.00  0.00    +0.000 Cl
ATOM     31  C   UNL     1      -2.866  12.710  21.352  0.00  0.00    +0.000 A 
ATOM     32  C   UNL     1      -1.984  12.181  20.414  0.00  0.00    +0.000 A 
ENDBRANCH  25  26
ENDBRANCH  24  25
ENDBRANCH  21  24
ENDBRANCH  13  18
TORSDOF 4
ENDMDL
MODEL 7
REMARK VINA RESULT:      -9.1      4.657      7.702
REMARK  Name = 
REMARK  4 active torsions:
REMARK  status: ('A' for Active; 'I' for Inactive)
REMARK    1  A    between atoms: C_13  and  C_14
REMARK    2  A    between atoms: C_17  and  O_18
REMARK    3  A    between atoms: O_18  and  C_19
REMARK    4  A    between atoms: C_19  and  C_20
REMARK                            x       y       z     vdW  Elec       q    Type
REMARK                         _______ _______ _______ _____ _____    ______ ____
ROOT
ATOM      1  N   UNL     1       0.334   2.816  19.786  0.00  0.00    +0.000 N 
ATOM      2  C   UNL     1       1.547   3.303  19.431  0.00  0.00    +0.000 C 
ATOM      3  N   UNL     1       2.178   2.836  18.407  0.00  0.00    +0.000 NA
ATOM      4  C   UNL     1       3.358   3.429  18.084  0.00  0.00    +0.000 A 
ATOM      5  N   UNL     1       4.165   3.161  17.075  0.00  0.00    +0.000 NA
ATOM      6  C   UNL     1       5.154   4.116  17.107  0.00  0.00    +0.000 A 
ATOM      7  C   UNL     1       6.223   4.330  16.224  0.00  0.00    +0.000 A 
ATOM      8  C   UNL     1       7.083   5.414  16.449  0.00  0.00    +0.000 A 
ATOM      9  C   UNL     1       6.891   6.263  17.539  0.00  0.00    +0.000 A 
ATOM     10  C   UNL     1       5.842   6.056  18.439  0.00  0.00    +0.000 A 
ATOM     11  C   UNL     1       4.988   4.975  18.187  0.00  0.00    +0.000 A 
ATOM     12  N   UNL     1       3.846   4.509  18.785  0.00  0.00    +0.000 N 
ATOM     13  C   UNL     1       3.090   5.092  19.883  0.00  0.00    +0.000 C 
ATOM     14  N   UNL     1       1.934   4.297  20.268  0.00  0.00    +0.000 N 
ATOM     15  H   UNL     1       0.122   1.969  19.263  0.00  0.00    +0.000 HD
ATOM     16  H   UNL     1       0.235   2.657  20.781  0.00  0.00    +0.000 HD
ATOM     17  H   UNL     1       1.168   4.842  20.643  0.00  0.00    +0.000 HD
ENDROOT
BRANCH  13  18
ATOM     18  C   UNL     1       2.652   6.499  19.508  0.00  0.00    +0.000 A 
ATOM     19  C   UNL     1       2.020   7.319  20.458  0.00  0.00    +0.000 A 
ATOM     20  C   UNL     1       1.459   8.537  20.084  0.00  0.00    +0.000 A 
ATOM     21  C   UNL     1       1.554   8.973  18.764  0.00  0.00    +0.000 A 
ATOM     22  C   UNL     1       2.204   8.180  17.818  0.00  0.00    +0.000 A 
ATOM     23  C   UNL     1       2.765   6.957  18.187  0.00  0.00    +0.000 A 
BRANCH  21  24
ATOM     24  O   UNL     1       1.038  10.147  18.290  0.00  0.00    +0.000 OA
BRANCH  24  25
ATOM     25  C   UNL     1       0.303  10.915  19.241  0.00  0.00    +0.000 C 
BRANCH  25  26
ATOM     26  C   UNL     1      -1.126  10.997  18.773  0.00  0.00    +0.000 A 
ATOM     27  C   UNL     1      -2.022  11.890  19.376  0.00  0.00    +0.000 A 
ATOM     28  C   UNL     1      -3.353  11.938  18.961  0.00  0.00    +0.000 A 
ATOM     29  C   UNL     1      -3.790  11.091  17.943  0.00  0.00    +0.000 A 
ATOM     30 CL   UNL     1      -5.439  11.130  17.450  0.00  0.00    +0.000 Cl
ATOM     31  C   UNL     1      -2.908  10.205  17.330  0.00  0.00    +0.000 A 
ATOM     32  C   UNL     1      -1.579  10.158  17.744  0.00  0.00    +0.000 A 
ENDBRANCH  25  26
ENDBRANCH  24  25
ENDBRANCH  21  24
ENDBRANCH  13  18
TORSDOF 4
ENDMDL
MODEL 8
REMARK VINA RESULT:      -9.1      4.612      7.659
REMARK  Name = 
REMARK  4 active torsions:
REMARK  status: ('A' for Active; 'I' for Inactive)
REMARK    1  A    between atoms: C_13  and  C_14
REMARK    2  A    between atoms: C_17  and  O_18
REMARK    3  A    between atoms: O_18  and  C_19
REMARK    4  A    between atoms: C_19  and  C_20
REMARK                            x       y       z     vdW  Elec       q    Type
REMARK                         _______ _______ _______ _____ _____    ______ ____
ROOT
ATOM      1  N   UNL     1       7.542   7.548  17.775  0.00  0.00    +0.000 N 
ATOM      2  C   UNL     1       6.544   6.636  17.832  0.00  0.00    +0.000 C 
ATOM      3  N   UNL     1       6.659   5.563  18.541  0.00  0.00    +0.000 NA
ATOM      4  C   UNL     1       5.582   4.737  18.593  0.00  0.00    +0.000 A 
ATOM      5  N   UNL     1       5.440   3.611  19.267  0.00  0.00    +0.000 NA
ATOM      6  C   UNL     1       4.132   3.221  19.097  0.00  0.00    +0.000 A 
ATOM      7  C   UNL     1       3.441   2.132  19.651  0.00  0.00    +0.000 A 
ATOM      8  C   UNL     1       2.080   1.971  19.356  0.00  0.00    +0.000 A 
ATOM      9  C   UNL     1       1.421   2.868  18.516  0.00  0.00    +0.000 A 
ATOM     10  C   UNL     1       2.096   3.948  17.941  0.00  0.00    +0.000 A 
ATOM     11  C   UNL     1       3.451   4.097  18.260  0.00  0.00    +0.000 A 
ATOM     12  N   UNL     1       4.399   5.040  17.957  0.00  0.00    +0.000 N 
ATOM     13  C   UNL     1       4.239   6.292  17.233  0.00  0.00    +0.000 C 
ATOM     14  N   UNL     1       5.483   7.031  17.085  0.00  0.00    +0.000 N 
ATOM     15  H   UNL     1       8.390   7.176  18.199  0.00  0.00    +0.000 HD
ATOM     16  H   UNL     1       7.729   7.890  16.841  0.00  0.00    +0.000 HD
ATOM     17  H   UNL     1       5.361   8.034  17.039  0.00  0.00    +0.000 HD
ENDROOT
BRANCH  13  18
ATOM     18  C   UNL     1       3.203   7.157  17.935  0.00  0.00    +0.000 A 
ATOM     19  C   UNL     1       2.743   8.339  17.331  0.00  0.00    +0.000 A 
ATOM     20  C   UNL     1       1.931   9.225  18.033  0.00  0.00    +0.000 A 
ATOM     21  C   UNL     1       1.534   8.927  19.335  0.00  0.00    +0.000 A 
ATOM     22  C   UNL     1       1.961   7.742  19.935  0.00  0.00    +0.000 A 
ATOM     23  C   UNL     1       2.778   6.852  19.236  0.00  0.00    +0.000 A 
BRANCH  21  24
ATOM     24  O   UNL     1       0.743   9.726  20.113  0.00  0.00    +0.000 OA
BRANCH  24  25
ATOM     25  C   UNL     1       0.532  11.044  19.611  0.00  0.00    +0.000 C 
BRANCH  25  26
ATOM     26  C   UNL     1      -0.896  11.143  19.144  0.00  0.00    +0.000 A 
ATOM     27  C   UNL     1      -1.354  10.349  18.083  0.00  0.00    +0.000 A 
ATOM     28  C   UNL     1      -2.669  10.470  17.632  0.00  0.00    +0.000 A 
ATOM     29  C   UNL     1      -3.527  11.386  18.240  0.00  0.00    +0.000 A 
ATOM     30 CL   UNL     1      -5.141  11.554  17.666  0.00  0.00    +0.000 Cl
ATOM     31  C   UNL     1      -3.086  12.174  19.300  0.00  0.00    +0.000 A 
ATOM     32  C   UNL     1      -1.774  12.053  19.751  0.00  0.00    +0.000 A 
ENDBRANCH  25  26
ENDBRANCH  24  25
ENDBRANCH  21  24
ENDBRANCH  13  18
TORSDOF 4
ENDMDL
MODEL 9
REMARK VINA RESULT:      -9.0      4.916      7.763
REMARK  Name = 
REMARK  4 active torsions:
REMARK  status: ('A' for Active; 'I' for Inactive)
REMARK    1  A    between atoms: C_13  and  C_14
REMARK    2  A    between atoms: C_17  and  O_18
REMARK    3  A    between atoms: O_18  and  C_19
REMARK    4  A    between atoms: C_19  and  C_20
REMARK                            x       y       z     vdW  Elec       q    Type
REMARK                         _______ _______ _______ _____ _____    ______ ____
ROOT
ATOM      1  N   UNL     1       0.874   2.943  21.102  0.00  0.00    +0.000 N 
ATOM      2  C   UNL     1       1.856   3.449  20.319  0.00  0.00    +0.000 C 
ATOM      3  N   UNL     1       2.231   2.843  19.244  0.00  0.00    +0.000 NA
ATOM      4  C   UNL     1       3.176   3.456  18.484  0.00  0.00    +0.000 A 
ATOM      5  N   UNL     1       3.694   3.061  17.337  0.00  0.00    +0.000 NA
ATOM      6  C   UNL     1       4.508   4.083  16.908  0.00  0.00    +0.000 A 
ATOM      7  C   UNL     1       5.244   4.206  15.719  0.00  0.00    +0.000 A 
ATOM      8  C   UNL     1       5.972   5.381  15.489  0.00  0.00    +0.000 A 
ATOM      9  C   UNL     1       5.980   6.410  16.429  0.00  0.00    +0.000 A 
ATOM     10  C   UNL     1       5.268   6.300  17.627  0.00  0.00    +0.000 A 
ATOM     11  C   UNL     1       4.537   5.123  17.829  0.00  0.00    +0.000 A 
ATOM     12  N   UNL     1       3.688   4.691  18.815  0.00  0.00    +0.000 N 
ATOM     13  C   UNL     1       3.200   5.416  19.978  0.00  0.00    +0.000 C 
ATOM     14  N   UNL     1       2.322   4.620  20.822  0.00  0.00    +0.000 N 
ATOM     15  H   UNL     1       0.643   1.994  20.816  0.00  0.00    +0.000 HD
ATOM     16  H   UNL     1       1.084   2.978  22.092  0.00  0.00    +0.000 HD
ATOM     17  H   UNL     1       1.626   5.162  21.316  0.00  0.00    +0.000 HD
ENDROOT
BRANCH  13  18
ATOM     18  C   UNL     1       2.481   6.678  19.527  0.00  0.00    +0.000 A 
ATOM     19  C   UNL     1       2.490   7.051  18.172  0.00  0.00    +0.000 A 
ATOM     20  C   UNL     1       1.990   8.286  17.773  0.00  0.00    +0.000 A 
ATOM     21  C   UNL     1       1.437   9.153  18.713  0.00  0.00    +0.000 A 
ATOM     22  C   UNL     1       1.395   8.782  20.057  0.00  0.00    +0.000 A 
ATOM     23  C   UNL     1       1.899   7.545  20.463  0.00  0.00    +0.000 A 
BRANCH  21  24
ATOM     24  O   UNL     1       0.921  10.387  18.430  0.00  0.00    +0.000 OA
BRANCH  24  25
ATOM     25  C   UNL     1       0.112  10.957  19.458  0.00  0.00    +0.000 C 
BRANCH  25  26
ATOM     26  C   UNL     1      -1.300  11.054  18.942  0.00  0.00    +0.000 A 
ATOM     27  C   UNL     1      -2.198  11.976  19.497  0.00  0.00    +0.000 A 
ATOM     28  C   UNL     1      -3.514  12.036  19.038  0.00  0.00    +0.000 A 
ATOM     29  C   UNL     1      -3.934  11.175  18.026  0.00  0.00    +0.000 A 
ATOM     30 CL   UNL     1      -5.565  11.232  17.479  0.00  0.00    +0.000 Cl
ATOM     31  C   UNL     1      -3.048  10.262  17.460  0.00  0.00    +0.000 A 
ATOM     32  C   UNL     1      -1.735  10.201  17.918  0.00  0.00    +0.000 A 
ENDBRANCH  25  26
ENDBRANCH  24  25
ENDBRANCH  21  24
ENDBRANCH  13  18
TORSDOF 4
ENDMDL
