MODEL 1
REMARK VINA RESULT:      -8.1      0.000      0.000
REMARK  Name = 
REMARK  5 active torsions:
REMARK  status: ('A' for Active; 'I' for Inactive)
REMARK    1  A    between atoms: C_1  and  N_2
REMARK    2  A    between atoms: N_7  and  C_8
REMARK    3  A    between atoms: C_8  and  C_9
REMARK    4  A    between atoms: C_13  and  N_14
REMARK    5  A    between atoms: C_17  and  C_18
REMARK                            x       y       z     vdW  Elec       q    Type
REMARK                         _______ _______ _______ _____ _____    ______ ____
ROOT
ATOM      1  C   UNL     1      -3.898  11.411  17.963  0.00  0.00    +0.000 A 
ATOM      2  C   UNL     1      -3.811  10.668  16.766  0.00  0.00    +0.000 A 
ATOM      3  C   UNL     1      -2.689   9.912  16.441  0.00  0.00    +0.000 A 
ATOM      4  C   UNL     1      -1.573   9.944  17.265  0.00  0.00    +0.000 A 
ATOM      5  C   UNL     1      -1.530  10.858  18.324  0.00  0.00    +0.000 A 
ATOM      6  C   UNL     1      -2.724  11.466  18.743  0.00  0.00    +0.000 A 
ENDROOT
BRANCH   5   7
ATOM      7  N   UNL     1      -0.273  11.530  18.650  0.00  0.00    +0.000 N 
ATOM      8  C   UNL     1       0.572  10.624  19.469  0.00  0.00    +0.000 C 
ATOM      9  C   UNL     1       0.094  10.944  20.858  0.00  0.00    +0.000 A 
ATOM     10  C   UNL     1      -0.255  10.095  21.901  0.00  0.00    +0.000 A 
ATOM     11  C   UNL     1      -0.986  10.662  22.962  0.00  0.00    +0.000 A 
ATOM     12  C   UNL     1      -1.338  12.022  22.956  0.00  0.00    +0.000 A 
ATOM     13  F   UNL     1      -2.117  12.491  23.941  0.00  0.00    +0.000 F 
ATOM     14  C   UNL     1      -1.006  12.861  21.899  0.00  0.00    +0.000 A 
ATOM     15  C   UNL     1      -0.310  12.285  20.854  0.00  0.00    +0.000 A 
ATOM     16  C   UNL     1      -0.397  12.710  19.433  0.00  0.00    +0.000 C 
ATOM     17  O   UNL     1      -0.734  13.828  19.073  0.00  0.00    +0.000 OA
BRANCH  10  18
ATOM     18  C   UNL     1      -0.076   8.605  21.815  0.00  0.00    +0.000 C 
ATOM     19  F   UNL     1       1.233   8.229  21.809  0.00  0.00    +0.000 F 
ENDBRANCH  10  18
ENDBRANCH   5   7
BRANCH   1  20
ATOM     20  C   UNL     1      -5.233  12.194  18.352  0.00  0.00    +0.000 C 
ATOM     21  C   UNL     1      -6.128  12.751  17.208  0.00  0.00    +0.000 C 
ATOM     22  O   UNL     1      -7.292  12.043  17.679  0.00  0.00    +0.000 OA
ATOM     23  C   UNL     1      -6.511  11.381  18.702  0.00  0.00    +0.000 C 
BRANCH  20  30
ATOM     24  C   UNL     1      -3.798  15.234  21.243  0.00  0.00    +0.000 C 
ATOM     25  N   UNL     1      -4.536  14.035  21.536  0.00  0.00    +0.000 N 
ATOM     26  C   UNL     1      -4.889  13.607  22.776  0.00  0.00    +0.000 A 
ATOM     27  N   UNL     1      -5.517  12.457  22.685  0.00  0.00    +0.000 NA
ATOM     28  N   UNL     1      -5.596  12.147  21.337  0.00  0.00    +0.000 NA
ATOM     29  C   UNL     1      -5.024  13.106  20.650  0.00  0.00    +0.000 A 
ATOM     30  N   UNL     1      -4.907  13.250  19.306  0.00  0.00    +0.000 N 
ATOM     31  H   UNL     1      -4.271  13.934  18.930  0.00  0.00    +0.000 HD
ENDBRANCH  20  30
ENDBRANCH   1  20
TORSDOF 4
ENDMDL
MODEL 2
REMARK VINA RESULT:      -7.9      5.856      9.227
REMARK  Name = 
REMARK  5 active torsions:
REMARK  status: ('A' for Active; 'I' for Inactive)
REMARK    1  A    between atoms: C_1  and  N_2
REMARK    2  A    between atoms: N_7  and  C_8
REMARK    3  A    between atoms: C_8  and  C_9
REMARK    4  A    between atoms: C_13  and  N_14
REMARK    5  A    between atoms: C_17  and  C_18
REMARK                            x       y       z     vdW  Elec       q    Type
REMARK                         _______ _______ _______ _____ _____    ______ ____
ROOT
ATOM      1  C   UNL     1       2.524   6.183  18.661  0.00  0.00    +0.000 A 
ATOM      2  C   UNL     1       2.439   7.109  17.599  0.00  0.00    +0.000 A 
ATOM      3  C   UNL     1       2.218   8.467  17.812  0.00  0.00    +0.000 A 
ATOM      4  C   UNL     1       1.984   8.934  19.097  0.00  0.00    +0.000 A 
ATOM      5  C   UNL     1       1.815   8.015  20.140  0.00  0.00    +0.000 A 
ATOM      6  C   UNL     1       2.223   6.686  19.945  0.00  0.00    +0.000 A 
ENDROOT
BRANCH   5   7
ATOM      7  N   UNL     1       0.823   8.276  21.181  0.00  0.00    +0.000 N 
ATOM      8  C   UNL     1      -0.502   8.509  20.553  0.00  0.00    +0.000 C 
ATOM      9  C   UNL     1      -0.453   9.989  20.291  0.00  0.00    +0.000 A 
ATOM     10  C   UNL     1      -0.788  10.707  19.151  0.00  0.00    +0.000 A 
ATOM     11  C   UNL     1      -0.322  12.033  19.077  0.00  0.00    +0.000 A 
ATOM     12  C   UNL     1       0.441  12.592  20.115  0.00  0.00    +0.000 A 
ATOM     13  F   UNL     1       0.943  13.825  19.954  0.00  0.00    +0.000 F 
ATOM     14  C   UNL     1       0.793  11.862  21.244  0.00  0.00    +0.000 A 
ATOM     15  C   UNL     1       0.349  10.554  21.291  0.00  0.00    +0.000 A 
ATOM     16  C   UNL     1       1.055   9.437  21.968  0.00  0.00    +0.000 C 
ATOM     17  O   UNL     1       1.846   9.585  22.888  0.00  0.00    +0.000 OA
BRANCH  10  18
ATOM     18  C   UNL     1      -1.411  10.055  17.948  0.00  0.00    +0.000 C 
ATOM     19  F   UNL     1      -2.696   9.659  18.167  0.00  0.00    +0.000 F 
ENDBRANCH  10  18
ENDBRANCH   5   7
BRANCH   1  20
ATOM     20  C   UNL     1       2.871   4.650  18.393  0.00  0.00    +0.000 C 
ATOM     21  C   UNL     1       3.109   3.717  19.616  0.00  0.00    +0.000 C 
ATOM     22  O   UNL     1       2.089   2.788  19.194  0.00  0.00    +0.000 OA
ATOM     23  C   UNL     1       1.716   3.654  18.095  0.00  0.00    +0.000 C 
BRANCH  20  30
ATOM     24  C   UNL     1       6.273   3.931  15.641  0.00  0.00    +0.000 C 
ATOM     25  N   UNL     1       6.336   4.401  16.998  0.00  0.00    +0.000 N 
ATOM     26  C   UNL     1       7.474   4.671  17.690  0.00  0.00    +0.000 A 
ATOM     27  N   UNL     1       7.172   5.040  18.913  0.00  0.00    +0.000 NA
ATOM     28  N   UNL     1       5.790   5.033  19.006  0.00  0.00    +0.000 NA
ATOM     29  C   UNL     1       5.292   4.670  17.849  0.00  0.00    +0.000 A 
ATOM     30  N   UNL     1       3.994   4.569  17.464  0.00  0.00    +0.000 N 
ATOM     31  H   UNL     1       3.763   4.087  16.611  0.00  0.00    +0.000 HD
ENDBRANCH  20  30
ENDBRANCH   1  20
TORSDOF 4
ENDMDL
MODEL 3
REMARK VINA RESULT:      -7.8      5.818      8.375
REMARK  Name = 
REMARK  5 active torsions:
REMARK  status: ('A' for Active; 'I' for Inactive)
REMARK    1  A    between atoms: C_1  and  N_2
REMARK    2  A    between atoms: N_7  and  C_8
REMARK    3  A    between atoms: C_8  and  C_9
REMARK    4  A    between atoms: C_13  and  N_14
REMARK    5  A    between atoms: C_17  and  C_18
REMARK                            x       y       z     vdW  Elec       q    Type
REMARK                         _______ _______ _______ _____ _____    ______ ____
ROOT
ATOM      1  C   UNL     1       1.720   8.312  19.730  0.00  0.00    +0.000 A 
ATOM      2  C   UNL     1       2.181   8.859  18.514  0.00  0.00    +0.000 A 
ATOM      3  C   UNL     1       2.734   8.073  17.507  0.00  0.00    +0.000 A 
ATOM      4  C   UNL     1       2.928   6.716  17.720  0.00  0.00    +0.000 A 
ATOM      5  C   UNL     1       2.713   6.186  18.998  0.00  0.00    +0.000 A 
ATOM      6  C   UNL     1       1.988   6.942  19.932  0.00  0.00    +0.000 A 
ENDROOT
BRANCH   5   7
ATOM      7  N   UNL     1       3.605   5.146  19.509  0.00  0.00    +0.000 N 
ATOM      8  C   UNL     1       5.005   5.641  19.484  0.00  0.00    +0.000 C 
ATOM      9  C   UNL     1       5.432   5.260  18.094  0.00  0.00    +0.000 A 
ATOM     10  C   UNL     1       6.100   6.002  17.129  0.00  0.00    +0.000 A 
ATOM     11  C   UNL     1       6.064   5.508  15.811  0.00  0.00    +0.000 A 
ATOM     12  C   UNL     1       5.383   4.320  15.501  0.00  0.00    +0.000 A 
ATOM     13  F   UNL     1       5.295   3.944  14.217  0.00  0.00    +0.000 F 
ATOM     14  C   UNL     1       4.696   3.593  16.466  0.00  0.00    +0.000 A 
ATOM     15  C   UNL     1       4.720   4.103  17.750  0.00  0.00    +0.000 A 
ATOM     16  C   UNL     1       3.636   3.943  18.753  0.00  0.00    +0.000 C 
ATOM     17  O   UNL     1       2.820   3.033  18.738  0.00  0.00    +0.000 OA
BRANCH  10  18
ATOM     18  C   UNL     1       6.641   7.377  17.408  0.00  0.00    +0.000 C 
ATOM     19  F   UNL     1       7.888   7.353  17.957  0.00  0.00    +0.000 F 
ENDBRANCH  10  18
ENDBRANCH   5   7
BRANCH   1  20
ATOM     20  C   UNL     1       1.006   9.224  20.827  0.00  0.00    +0.000 C 
ATOM     21  C   UNL     1      -0.314   8.713  21.473  0.00  0.00    +0.000 C 
ATOM     22  O   UNL     1       0.218   8.820  22.810  0.00  0.00    +0.000 OA
ATOM     23  C   UNL     1       1.520   9.186  22.294  0.00  0.00    +0.000 C 
BRANCH  20  30
ATOM     24  C   UNL     1       0.220  13.409  19.591  0.00  0.00    +0.000 C 
ATOM     25  N   UNL     1      -0.497  12.232  19.182  0.00  0.00    +0.000 N 
ATOM     26  C   UNL     1      -1.580  12.211  18.362  0.00  0.00    +0.000 A 
ATOM     27  N   UNL     1      -2.011  10.977  18.231  0.00  0.00    +0.000 NA
ATOM     28  N   UNL     1      -1.160  10.172  18.968  0.00  0.00    +0.000 NA
ATOM     29  C   UNL     1      -0.240  10.926  19.521  0.00  0.00    +0.000 A 
ATOM     30  N   UNL     1       0.822  10.567  20.286  0.00  0.00    +0.000 N 
ATOM     31  H   UNL     1       1.325  11.270  20.802  0.00  0.00    +0.000 HD
ENDBRANCH  20  30
ENDBRANCH   1  20
TORSDOF 4
ENDMDL
MODEL 4
REMARK VINA RESULT:      -7.7      3.052      6.834
REMARK  Name = 
REMARK  5 active torsions:
REMARK  status: ('A' for Active; 'I' for Inactive)
REMARK    1  A    between atoms: C_1  and  N_2
REMARK    2  A    between atoms: N_7  and  C_8
REMARK    3  A    between atoms: C_8  and  C_9
REMARK    4  A    between atoms: C_13  and  N_14
REMARK    5  A    between atoms: C_17  and  C_18
REMARK                            x       y       z     vdW  Elec       q    Type
REMARK                         _______ _______ _______ _____ _____    ______ ____
ROOT
ATOM      1  C   UNL     1      -3.093  13.345  22.627  0.00  0.00    +0.000 A 
ATOM      2  C   UNL     1      -3.262  13.214  24.021  0.00  0.00    +0.000 A 
ATOM      3  C   UNL     1      -4.470  12.818  24.589  0.00  0.00    +0.000 A 
ATOM      4  C   UNL     1      -5.581  12.624  23.782  0.00  0.00    +0.000 A 
ATOM      5  C   UNL     1      -5.517  12.984  22.430  0.00  0.00    +0.000 A 
ATOM      6  C   UNL     1      -4.259  13.198  21.845  0.00  0.00    +0.000 A 
ENDROOT
BRANCH   5   7
ATOM      7  N   UNL     1      -6.679  13.595  21.787  0.00  0.00    +0.000 N 
ATOM      8  C   UNL     1      -7.743  12.574  21.618  0.00  0.00    +0.000 C 
ATOM      9  C   UNL     1      -7.376  11.979  20.286  0.00  0.00    +0.000 A 
ATOM     10  C   UNL     1      -7.284  10.650  19.895  0.00  0.00    +0.000 A 
ATOM     11  C   UNL     1      -6.594  10.387  18.697  0.00  0.00    +0.000 A 
ATOM     12  C   UNL     1      -6.032  11.429  17.941  0.00  0.00    +0.000 A 
ATOM     13  F   UNL     1      -5.302  11.119  16.860  0.00  0.00    +0.000 F 
ATOM     14  C   UNL     1      -6.107  12.755  18.348  0.00  0.00    +0.000 A 
ATOM     15  C   UNL     1      -6.766  12.994  19.538  0.00  0.00    +0.000 A 
ATOM     16  C   UNL     1      -6.456  14.102  20.478  0.00  0.00    +0.000 C 
ATOM     17  O   UNL     1      -5.908  15.144  20.150  0.00  0.00    +0.000 OA
BRANCH  10  18
ATOM     18  C   UNL     1      -7.687   9.519  20.801  0.00  0.00    +0.000 C 
ATOM     19  F   UNL     1      -7.315   8.299  20.321  0.00  0.00    +0.000 F 
ENDBRANCH  10  18
ENDBRANCH   5   7
BRANCH   1  20
ATOM     20  C   UNL     1      -1.672  13.710  21.999  0.00  0.00    +0.000 C 
ATOM     21  C   UNL     1      -1.561  14.973  21.097  0.00  0.00    +0.000 C 
ATOM     22  O   UNL     1      -0.516  15.547  21.909  0.00  0.00    +0.000 OA
ATOM     23  C   UNL     1      -0.633  14.471  22.870  0.00  0.00    +0.000 C 
BRANCH  20  30
ATOM     24  C   UNL     1      -0.507  10.003  19.866  0.00  0.00    +0.000 C 
ATOM     25  N   UNL     1      -0.403  10.264  21.275  0.00  0.00    +0.000 N 
ATOM     26  C   UNL     1       0.043   9.387  22.212  0.00  0.00    +0.000 A 
ATOM     27  N   UNL     1      -0.032   9.934  23.403  0.00  0.00    +0.000 NA
ATOM     28  N   UNL     1      -0.516  11.219  23.225  0.00  0.00    +0.000 NA
ATOM     29  C   UNL     1      -0.718  11.421  21.946  0.00  0.00    +0.000 A 
ATOM     30  N   UNL     1      -1.140  12.541  21.307  0.00  0.00    +0.000 N 
ATOM     31  H   UNL     1      -1.438  12.486  20.346  0.00  0.00    +0.000 HD
ENDBRANCH  20  30
ENDBRANCH   1  20
TORSDOF 4
ENDMDL
MODEL 5
REMARK VINA RESULT:      -7.7      1.142      1.483
REMARK  Name = 
REMARK  5 active torsions:
REMARK  status: ('A' for Active; 'I' for Inactive)
REMARK    1  A    between atoms: C_1  and  N_2
REMARK    2  A    between atoms: N_7  and  C_8
REMARK    3  A    between atoms: C_8  and  C_9
REMARK    4  A    between atoms: C_13  and  N_14
REMARK    5  A    between atoms: C_17  and  C_18
REMARK                            x       y       z     vdW  Elec       q    Type
REMARK                         _______ _______ _______ _____ _____    ______ ____
ROOT
ATOM      1  C   UNL     1      -3.783  11.340  18.007  0.00  0.00    +0.000 A 
ATOM      2  C   UNL     1      -3.603  10.621  16.806  0.00  0.00    +0.000 A 
ATOM      3  C   UNL     1      -2.414   9.964  16.504  0.00  0.00    +0.000 A 
ATOM      4  C   UNL     1      -1.326  10.079  17.357  0.00  0.00    +0.000 A 
ATOM      5  C   UNL     1      -1.387  10.981  18.427  0.00  0.00    +0.000 A 
ATOM      6  C   UNL     1      -2.638  11.483  18.819  0.00  0.00    +0.000 A 
ENDROOT
BRANCH   5   7
ATOM      7  N   UNL     1      -0.199  11.751  18.793  0.00  0.00    +0.000 N 
ATOM      8  C   UNL     1       0.997  10.874  18.725  0.00  0.00    +0.000 C 
ATOM      9  C   UNL     1       1.011  10.281  20.107  0.00  0.00    +0.000 A 
ATOM     10  C   UNL     1       1.177   8.963  20.513  0.00  0.00    +0.000 A 
ATOM     11  C   UNL     1       0.807   8.656  21.835  0.00  0.00    +0.000 A 
ATOM     12  C   UNL     1       0.297   9.643  22.694  0.00  0.00    +0.000 A 
ATOM     13  F   UNL     1      -0.131   9.280  23.911  0.00  0.00    +0.000 F 
ATOM     14  C   UNL     1       0.112  10.955  22.276  0.00  0.00    +0.000 A 
ATOM     15  C   UNL     1       0.456  11.236  20.968  0.00  0.00    +0.000 A 
ATOM     16  C   UNL     1      -0.191  12.267  20.117  0.00  0.00    +0.000 C 
ATOM     17  O   UNL     1      -0.782  13.244  20.555  0.00  0.00    +0.000 OA
BRANCH  10  18
ATOM     18  C   UNL     1       1.511   7.863  19.544  0.00  0.00    +0.000 C 
ATOM     19  F   UNL     1       2.183   6.831  20.128  0.00  0.00    +0.000 F 
ENDBRANCH  10  18
ENDBRANCH   5   7
BRANCH   1  20
ATOM     20  C   UNL     1      -5.187  12.005  18.368  0.00  0.00    +0.000 C 
ATOM     21  C   UNL     1      -6.064  12.564  17.210  0.00  0.00    +0.000 C 
ATOM     22  O   UNL     1      -7.196  11.751  17.581  0.00  0.00    +0.000 OA
ATOM     23  C   UNL     1      -6.419  11.087  18.606  0.00  0.00    +0.000 C 
BRANCH  20  30
ATOM     24  C   UNL     1      -4.144  14.907  21.553  0.00  0.00    +0.000 C 
ATOM     25  N   UNL     1      -4.989  13.751  21.673  0.00  0.00    +0.000 N 
ATOM     26  C   UNL     1      -5.589  13.324  22.815  0.00  0.00    +0.000 A 
ATOM     27  N   UNL     1      -6.252  12.216  22.580  0.00  0.00    +0.000 NA
ATOM     28  N   UNL     1      -6.098  11.933  21.233  0.00  0.00    +0.000 NA
ATOM     29  C   UNL     1      -5.356  12.866  20.688  0.00  0.00    +0.000 A 
ATOM     30  N   UNL     1      -4.985  13.024  19.393  0.00  0.00    +0.000 N 
ATOM     31  H   UNL     1      -4.253  13.675  19.159  0.00  0.00    +0.000 HD
ENDBRANCH  20  30
ENDBRANCH   1  20
TORSDOF 4
ENDMDL
MODEL 6
REMARK VINA RESULT:      -7.6      5.898      8.494
REMARK  Name = 
REMARK  5 active torsions:
REMARK  status: ('A' for Active; 'I' for Inactive)
REMARK    1  A    between atoms: C_1  and  N_2
REMARK    2  A    between atoms: N_7  and  C_8
REMARK    3  A    between atoms: C_8  and  C_9
REMARK    4  A    between atoms: C_13  and  N_14
REMARK    5  A    between atoms: C_17  and  C_18
REMARK                            x       y       z     vdW  Elec       q    Type
REMARK                         _______ _______ _______ _____ _____    ______ ____
ROOT
ATOM      1  C   UNL     1       1.635   8.291  19.673  0.00  0.00    +0.000 A 
ATOM      2  C   UNL     1       2.160   8.895  18.511  0.00  0.00    +0.000 A 
ATOM      3  C   UNL     1       2.816   8.163  17.525  0.00  0.00    +0.000 A 
ATOM      4  C   UNL     1       3.049   6.808  17.711  0.00  0.00    +0.000 A 
ATOM      5  C   UNL     1       2.764   6.229  18.954  0.00  0.00    +0.000 A 
ATOM      6  C   UNL     1       1.943   6.926  19.854  0.00  0.00    +0.000 A 
ENDROOT
BRANCH   5   7
ATOM      7  N   UNL     1       3.658   5.208  19.499  0.00  0.00    +0.000 N 
ATOM      8  C   UNL     1       5.055   5.711  19.471  0.00  0.00    +0.000 C 
ATOM      9  C   UNL     1       5.494   5.296  18.094  0.00  0.00    +0.000 A 
ATOM     10  C   UNL     1       6.165   6.016  17.114  0.00  0.00    +0.000 A 
ATOM     11  C   UNL     1       6.142   5.487  15.810  0.00  0.00    +0.000 A 
ATOM     12  C   UNL     1       5.469   4.287  15.526  0.00  0.00    +0.000 A 
ATOM     13  F   UNL     1       5.393   3.877  14.252  0.00  0.00    +0.000 F 
ATOM     14  C   UNL     1       4.779   3.583  16.505  0.00  0.00    +0.000 A 
ATOM     15  C   UNL     1       4.792   4.126  17.775  0.00  0.00    +0.000 A 
ATOM     16  C   UNL     1       3.702   3.986  18.774  0.00  0.00    +0.000 C 
ATOM     17  O   UNL     1       2.891   3.072  18.779  0.00  0.00    +0.000 OA
BRANCH  10  18
ATOM     18  C   UNL     1       6.696   7.401  17.361  0.00  0.00    +0.000 C 
ATOM     19  F   UNL     1       8.001   7.405  17.752  0.00  0.00    +0.000 F 
ENDBRANCH  10  18
ENDBRANCH   5   7
BRANCH   1  20
ATOM     20  C   UNL     1       0.807   9.139  20.741  0.00  0.00    +0.000 C 
ATOM     21  C   UNL     1      -0.296   8.417  21.568  0.00  0.00    +0.000 C 
ATOM     22  O   UNL     1       0.294   8.808  22.825  0.00  0.00    +0.000 OA
ATOM     23  C   UNL     1       1.425   9.400  22.143  0.00  0.00    +0.000 C 
BRANCH  20  30
ATOM     24  C   UNL     1      -0.516  12.683  18.428  0.00  0.00    +0.000 C 
ATOM     25  N   UNL     1       0.285  12.673  19.622  0.00  0.00    +0.000 N 
ATOM     26  C   UNL     1       0.814  13.767  20.230  0.00  0.00    +0.000 A 
ATOM     27  N   UNL     1       1.525  13.396  21.269  0.00  0.00    +0.000 NA
ATOM     28  N   UNL     1       1.429  12.018  21.351  0.00  0.00    +0.000 NA
ATOM     29  C   UNL     1       0.668  11.589  20.373  0.00  0.00    +0.000 A 
ATOM     30  N   UNL     1       0.261  10.326  20.090  0.00  0.00    +0.000 N 
ATOM     31  H   UNL     1      -0.156  10.125  19.195  0.00  0.00    +0.000 HD
ENDBRANCH  20  30
ENDBRANCH   1  20
TORSDOF 4
ENDMDL
MODEL 7
REMARK VINA RESULT:      -7.5      5.431      8.882
REMARK  Name = 
REMARK  5 active torsions:
REMARK  status: ('A' for Active; 'I' for Inactive)
REMARK    1  A    between atoms: C_1  and  N_2
REMARK    2  A    between atoms: N_7  and  C_8
REMARK    3  A    between atoms: C_8  and  C_9
REMARK    4  A    between atoms: C_13  and  N_14
REMARK    5  A    between atoms: C_17  and  C_18
REMARK                            x       y       z     vdW  Elec       q    Type
REMARK                         _______ _______ _______ _____ _____    ______ ____
ROOT
ATOM      1  C   UNL     1       2.370   7.070  18.797  0.00  0.00    +0.000 A 
ATOM      2  C   UNL     1       2.418   7.893  17.652  0.00  0.00    +0.000 A 
ATOM      3  C   UNL     1       2.104   9.248  17.696  0.00  0.00    +0.000 A 
ATOM      4  C   UNL     1       1.642   9.811  18.877  0.00  0.00    +0.000 A 
ATOM      5  C   UNL     1       1.347   8.977  19.963  0.00  0.00    +0.000 A 
ATOM      6  C   UNL     1       1.840   7.663  19.963  0.00  0.00    +0.000 A 
ENDROOT
BRANCH   5   7
ATOM      7  N   UNL     1       0.186   9.268  20.804  0.00  0.00    +0.000 N 
ATOM      8  C   UNL     1      -1.054   9.112  20.003  0.00  0.00    +0.000 C 
ATOM      9  C   UNL     1      -1.199  10.485  19.407  0.00  0.00    +0.000 A 
ATOM     10  C   UNL     1      -1.474  10.868  18.101  0.00  0.00    +0.000 A 
ATOM     11  C   UNL     1      -1.215  12.210  17.765  0.00  0.00    +0.000 A 
ATOM     12  C   UNL     1      -0.704  13.110  18.716  0.00  0.00    +0.000 A 
ATOM     13  F   UNL     1      -0.383  14.350  18.322  0.00  0.00    +0.000 F 
ATOM     14  C   UNL     1      -0.410  12.715  20.016  0.00  0.00    +0.000 A 
ATOM     15  C   UNL     1      -0.647  11.390  20.323  0.00  0.00    +0.000 A 
ATOM     16  C   UNL     1       0.120  10.593  21.315  0.00  0.00    +0.000 C 
ATOM     17  O   UNL     1       0.738  11.078  22.251  0.00  0.00    +0.000 OA
BRANCH  10  18
ATOM     18  C   UNL     1      -1.809   9.870  17.027  0.00  0.00    +0.000 C 
ATOM     19  F   UNL     1      -3.023   9.282  17.212  0.00  0.00    +0.000 F 
ENDBRANCH  10  18
ENDBRANCH   5   7
BRANCH   1  20
ATOM     20  C   UNL     1       2.824   5.542  18.734  0.00  0.00    +0.000 C 
ATOM     21  C   UNL     1       3.034   4.775  20.072  0.00  0.00    +0.000 C 
ATOM     22  O   UNL     1       2.102   3.737  19.703  0.00  0.00    +0.000 OA
ATOM     23  C   UNL     1       1.753   4.443  18.489  0.00  0.00    +0.000 C 
BRANCH  20  30
ATOM     24  C   UNL     1       6.361   4.728  16.187  0.00  0.00    +0.000 C 
ATOM     25  N   UNL     1       6.353   5.045  17.589  0.00  0.00    +0.000 N 
ATOM     26  C   UNL     1       7.448   5.110  18.392  0.00  0.00    +0.000 A 
ATOM     27  N   UNL     1       7.079   5.381  19.622  0.00  0.00    +0.000 NA
ATOM     28  N   UNL     1       5.702   5.524  19.608  0.00  0.00    +0.000 NA
ATOM     29  C   UNL     1       5.272   5.341  18.383  0.00  0.00    +0.000 A 
ATOM     30  N   UNL     1       4.010   5.430  17.891  0.00  0.00    +0.000 N 
ATOM     31  H   UNL     1       3.806   5.070  16.974  0.00  0.00    +0.000 HD
ENDBRANCH  20  30
ENDBRANCH   1  20
TORSDOF 4
ENDMDL
MODEL 8
REMARK VINA RESULT:      -7.5      2.072      2.907
REMARK  Name = 
REMARK  5 active torsions:
REMARK  status: ('A' for Active; 'I' for Inactive)
REMARK    1  A    between atoms: C_1  and  N_2
REMARK    2  A    between atoms: N_7  and  C_8
REMARK    3  A    between atoms: C_8  and  C_9
REMARK    4  A    between atoms: C_13  and  N_14
REMARK    5  A    between atoms: C_17  and  C_18
REMARK                            x       y       z     vdW  Elec       q    Type
REMARK                         _______ _______ _______ _____ _____    ______ ____
ROOT
ATOM      1  C   UNL     1      -4.845  12.114  18.298  0.00  0.00    +0.000 A 
ATOM      2  C   UNL     1      -4.437  11.335  17.195  0.00  0.00    +0.000 A 
ATOM      3  C   UNL     1      -3.181  10.737  17.132  0.00  0.00    +0.000 A 
ATOM      4  C   UNL     1      -2.253  10.974  18.135  0.00  0.00    +0.000 A 
ATOM      5  C   UNL     1      -2.533  11.935  19.115  0.00  0.00    +0.000 A 
ATOM      6  C   UNL     1      -3.855  12.380  19.269  0.00  0.00    +0.000 A 
ENDROOT
BRANCH   5   7
ATOM      7  N   UNL     1      -1.462  12.800  19.607  0.00  0.00    +0.000 N 
ATOM      8  C   UNL     1      -0.150  12.251  19.181  0.00  0.00    +0.000 C 
ATOM      9  C   UNL     1       0.158  11.305  20.309  0.00  0.00    +0.000 A 
ATOM     10  C   UNL     1       0.610   9.992  20.276  0.00  0.00    +0.000 A 
ATOM     11  C   UNL     1       0.484   9.249  21.465  0.00  0.00    +0.000 A 
ATOM     12  C   UNL     1      -0.071   9.820  22.622  0.00  0.00    +0.000 A 
ATOM     13  F   UNL     1      -0.258   9.042  23.698  0.00  0.00    +0.000 F 
ATOM     14  C   UNL     1      -0.542  11.127  22.642  0.00  0.00    +0.000 A 
ATOM     15  C   UNL     1      -0.435  11.836  21.462  0.00  0.00    +0.000 A 
ATOM     16  C   UNL     1      -1.365  12.906  21.021  0.00  0.00    +0.000 C 
ATOM     17  O   UNL     1      -2.054  13.570  21.782  0.00  0.00    +0.000 OA
BRANCH  10  18
ATOM     18  C   UNL     1       0.998   9.310  18.994  0.00  0.00    +0.000 C 
ATOM     19  F   UNL     1       2.047   9.917  18.370  0.00  0.00    +0.000 F 
ENDBRANCH  10  18
ENDBRANCH   5   7
BRANCH   1  20
ATOM     20  C   UNL     1      -6.323  12.709  18.386  0.00  0.00    +0.000 C 
ATOM     21  C   UNL     1      -6.507  14.253  18.319  0.00  0.00    +0.000 C 
ATOM     22  O   UNL     1      -7.410  14.166  17.197  0.00  0.00    +0.000 OA
ATOM     23  C   UNL     1      -7.205  12.736  17.106  0.00  0.00    +0.000 C 
BRANCH  20  30
ATOM     24  C   UNL     1      -7.916  11.082  22.190  0.00  0.00    +0.000 C 
ATOM     25  N   UNL     1      -7.585  10.346  21.001  0.00  0.00    +0.000 N 
ATOM     26  C   UNL     1      -7.670   8.997  20.855  0.00  0.00    +0.000 A 
ATOM     27  N   UNL     1      -7.252   8.654  19.658  0.00  0.00    +0.000 NA
ATOM     28  N   UNL     1      -6.911   9.824  19.000  0.00  0.00    +0.000 NA
ATOM     29  C   UNL     1      -7.132  10.838  19.801  0.00  0.00    +0.000 A 
ATOM     30  N   UNL     1      -6.988  12.167  19.567  0.00  0.00    +0.000 N 
ATOM     31  H   UNL     1      -7.004  12.814  20.338  0.00  0.00    +0.000 HD
ENDBRANCH  20  30
ENDBRANCH   1  20
TORSDOF 4
ENDMDL
MODEL 9
REMARK VINA RESULT:      -7.5      5.936      9.376
REMARK  Name = 
REMARK  5 active torsions:
REMARK  status: ('A' for Active; 'I' for Inactive)
REMARK    1  A    between atoms: C_1  and  N_2
REMARK    2  A    between atoms: N_7  and  C_8
REMARK    3  A    between atoms: C_8  and  C_9
REMARK    4  A    between atoms: C_13  and  N_14
REMARK    5  A    between atoms: C_17  and  C_18
REMARK                            x       y       z     vdW  Elec       q    Type
REMARK                         _______ _______ _______ _____ _____    ______ ____
ROOT
ATOM      1  C   UNL     1       2.715   6.007  18.967  0.00  0.00    +0.000 A 
ATOM      2  C   UNL     1       2.511   6.739  17.778  0.00  0.00    +0.000 A 
ATOM      3  C   UNL     1       2.141   8.081  17.786  0.00  0.00    +0.000 A 
ATOM      4  C   UNL     1       1.874   8.716  18.990  0.00  0.00    +0.000 A 
ATOM      5  C   UNL     1       1.825   7.960  20.167  0.00  0.00    +0.000 A 
ATOM      6  C   UNL     1       2.377   6.669  20.167  0.00  0.00    +0.000 A 
ENDROOT
BRANCH   5   7
ATOM      7  N   UNL     1       0.825   8.271  21.187  0.00  0.00    +0.000 N 
ATOM      8  C   UNL     1      -0.483   8.527  20.532  0.00  0.00    +0.000 C 
ATOM      9  C   UNL     1      -0.388   9.999  20.241  0.00  0.00    +0.000 A 
ATOM     10  C   UNL     1      -0.684  10.702  19.080  0.00  0.00    +0.000 A 
ATOM     11  C   UNL     1      -0.180  12.013  18.986  0.00  0.00    +0.000 A 
ATOM     12  C   UNL     1       0.584  12.572  20.024  0.00  0.00    +0.000 A 
ATOM     13  F   UNL     1       1.123  13.786  19.846  0.00  0.00    +0.000 F 
ATOM     14  C   UNL     1       0.896  11.856  21.174  0.00  0.00    +0.000 A 
ATOM     15  C   UNL     1       0.415  10.563  21.241  0.00  0.00    +0.000 A 
ATOM     16  C   UNL     1       1.078   9.441  21.953  0.00  0.00    +0.000 C 
ATOM     17  O   UNL     1       1.859   9.587  22.881  0.00  0.00    +0.000 OA
BRANCH  10  18
ATOM     18  C   UNL     1      -1.307  10.042  17.881  0.00  0.00    +0.000 C 
ATOM     19  F   UNL     1      -2.598   9.665  18.097  0.00  0.00    +0.000 F 
ENDBRANCH  10  18
ENDBRANCH   5   7
BRANCH   1  20
ATOM     20  C   UNL     1       3.229   4.498  18.928  0.00  0.00    +0.000 C 
ATOM     21  C   UNL     1       2.873   3.561  20.118  0.00  0.00    +0.000 C 
ATOM     22  O   UNL     1       2.250   2.587  19.255  0.00  0.00    +0.000 OA
ATOM     23  C   UNL     1       2.431   3.448  18.106  0.00  0.00    +0.000 C 
BRANCH  20  30
ATOM     24  C   UNL     1       7.576   4.946  18.180  0.00  0.00    +0.000 C 
ATOM     25  N   UNL     1       6.561   4.598  17.224  0.00  0.00    +0.000 N 
ATOM     26  C   UNL     1       6.763   4.383  15.897  0.00  0.00    +0.000 A 
ATOM     27  N   UNL     1       5.616   4.127  15.311  0.00  0.00    +0.000 NA
ATOM     28  N   UNL     1       4.645   4.151  16.297  0.00  0.00    +0.000 NA
ATOM     29  C   UNL     1       5.218   4.413  17.447  0.00  0.00    +0.000 A 
ATOM     30  N   UNL     1       4.669   4.489  18.685  0.00  0.00    +0.000 N 
ATOM     31  H   UNL     1       5.196   4.894  19.442  0.00  0.00    +0.000 HD
ENDBRANCH  20  30
ENDBRANCH   1  20
TORSDOF 4
ENDMDL
