MODEL 1
REMARK VINA RESULT:      -8.4      0.000      0.000
REMARK  Name = 
REMARK  7 active torsions:
REMARK  status: ('A' for Active; 'I' for Inactive)
REMARK    1  A    between atoms: C_1  and  N_2
REMARK    2  A    between atoms: C_7  and  C_9
REMARK    3  A    between atoms: C_13  and  S_14
REMARK    4  A    between atoms: S_14  and  N_17
REMARK    5  A    between atoms: N_17  and  C_18
REMARK    6  A    between atoms: N_17  and  C_25
REMARK    7  A    between atoms: C_18  and  C_19
REMARK                            x       y       z     vdW  Elec       q    Type
REMARK                         _______ _______ _______ _____ _____    ______ ____
ROOT
ATOM      1  S   UNL     1       4.715   5.595  16.926  0.00  0.00    +0.000 S 
ATOM      2  O   UNL     1       4.443   6.576  15.892  0.00  0.00    +0.000 OA
ATOM      3  O   UNL     1       4.926   4.206  16.571  0.00  0.00    +0.000 OA
ENDROOT
BRANCH   1   8
ATOM      4  C   UNL     1       7.890   7.813  18.277  0.00  0.00    +0.000 A 
ATOM      5  C   UNL     1       8.530   6.883  19.108  0.00  0.00    +0.000 A 
ATOM      6  C   UNL     1       8.077   5.564  19.155  0.00  0.00    +0.000 A 
ATOM      7  C   UNL     1       6.945   5.192  18.432  0.00  0.00    +0.000 A 
ATOM      8  C   UNL     1       6.251   6.138  17.661  0.00  0.00    +0.000 A 
ATOM      9  C   UNL     1       6.751   7.432  17.543  0.00  0.00    +0.000 A 
BRANCH   4  16
ATOM     10  C   UNL     1      10.012  14.240  18.171  0.00  0.00    +0.000 C 
ATOM     11  N   UNL     1      10.114  12.988  18.878  0.00  0.00    +0.000 N 
ATOM     12  C   UNL     1      10.854  12.712  19.987  0.00  0.00    +0.000 A 
ATOM     13  C   UNL     1      10.615  11.382  20.264  0.00  0.00    +0.000 A 
ATOM     14  C   UNL     1       9.715  10.943  19.259  0.00  0.00    +0.000 A 
ATOM     15  N   UNL     1       9.218   9.656  19.164  0.00  0.00    +0.000 N 
ATOM     16  C   UNL     1       8.326   9.240  18.193  0.00  0.00    +0.000 C 
ATOM     17  O   UNL     1       7.857   9.901  17.274  0.00  0.00    +0.000 OA
ATOM     18  N   UNL     1       9.417  11.939  18.431  0.00  0.00    +0.000 NA
ATOM     19  H   UNL     1       9.587   9.001  19.834  0.00  0.00    +0.000 HD
ENDBRANCH   4  16
ENDBRANCH   1   8
BRANCH   1  20
ATOM     20  N   UNL     1       3.502   5.681  18.099  0.00  0.00    +0.000 N 
BRANCH  20  21
ATOM     21  C   UNL     1       2.776   4.456  18.333  0.00  0.00    +0.000 A 
ATOM     22  C   UNL     1       1.519   4.263  17.747  0.00  0.00    +0.000 A 
ATOM     23  C   UNL     1       0.829   3.063  17.937  0.00  0.00    +0.000 A 
ATOM     24  C   UNL     1       1.382   2.052  18.722  0.00  0.00    +0.000 A 
ATOM     25  C   UNL     1       2.619   2.248  19.338  0.00  0.00    +0.000 A 
ATOM     26  C   UNL     1       3.312   3.447  19.150  0.00  0.00    +0.000 A 
ATOM     27 CL   UNL     1       4.832   3.641  19.946  0.00  0.00    +0.000 Cl
ENDBRANCH  20  21
BRANCH  20  28
ATOM     28  C   UNL     1       3.467   6.711  19.164  0.00  0.00    +0.000 C 
BRANCH  28  29
ATOM     29  C   UNL     1       2.400   7.782  19.110  0.00  0.00    +0.000 A 
ATOM     30  C   UNL     1       1.720   8.153  20.281  0.00  0.00    +0.000 A 
ATOM     31  C   UNL     1       0.750   9.157  20.259  0.00  0.00    +0.000 A 
ATOM     32  C   UNL     1       0.448   9.811  19.066  0.00  0.00    +0.000 A 
ATOM     33  C   UNL     1       1.131   9.472  17.902  0.00  0.00    +0.000 A 
ATOM     34  C   UNL     1       2.106   8.470  17.922  0.00  0.00    +0.000 A 
ENDBRANCH  28  29
ENDBRANCH  20  28
ENDBRANCH   1  20
TORSDOF 6
ENDMDL
MODEL 2
REMARK VINA RESULT:      -8.3      1.120      3.434
REMARK  Name = 
REMARK  7 active torsions:
REMARK  status: ('A' for Active; 'I' for Inactive)
REMARK    1  A    between atoms: C_1  and  N_2
REMARK    2  A    between atoms: C_7  and  C_9
REMARK    3  A    between atoms: C_13  and  S_14
REMARK    4  A    between atoms: S_14  and  N_17
REMARK    5  A    between atoms: N_17  and  C_18
REMARK    6  A    between atoms: N_17  and  C_25
REMARK    7  A    between atoms: C_18  and  C_19
REMARK                            x       y       z     vdW  Elec       q    Type
REMARK                         _______ _______ _______ _____ _____    ______ ____
ROOT
ATOM      1  S   UNL     1       5.683   5.813  15.966  0.00  0.00    +0.000 S 
ATOM      2  O   UNL     1       5.234   6.990  15.248  0.00  0.00    +0.000 OA
ATOM      3  O   UNL     1       6.363   4.746  15.258  0.00  0.00    +0.000 OA
ENDROOT
BRANCH   1   8
ATOM      4  C   UNL     1       8.128   8.199  18.236  0.00  0.00    +0.000 A 
ATOM      5  C   UNL     1       8.533   7.297  19.229  0.00  0.00    +0.000 A 
ATOM      6  C   UNL     1       8.173   5.952  19.137  0.00  0.00    +0.000 A 
ATOM      7  C   UNL     1       7.350   5.522  18.097  0.00  0.00    +0.000 A 
ATOM      8  C   UNL     1       6.874   6.436  17.144  0.00  0.00    +0.000 A 
ATOM      9  C   UNL     1       7.302   7.760  17.183  0.00  0.00    +0.000 A 
BRANCH   4  16
ATOM     10  C   UNL     1       9.864  14.723  18.736  0.00  0.00    +0.000 C 
ATOM     11  N   UNL     1      10.059  13.414  19.310  0.00  0.00    +0.000 N 
ATOM     12  C   UNL     1      10.845  13.075  20.369  0.00  0.00    +0.000 A 
ATOM     13  C   UNL     1      10.693  11.712  20.515  0.00  0.00    +0.000 A 
ATOM     14  C   UNL     1       9.793  11.321  19.490  0.00  0.00    +0.000 A 
ATOM     15  N   UNL     1       9.369  10.022  19.276  0.00  0.00    +0.000 N 
ATOM     16  C   UNL     1       8.476   9.651  18.287  0.00  0.00    +0.000 C 
ATOM     17  O   UNL     1       7.944  10.370  17.451  0.00  0.00    +0.000 OA
ATOM     18  N   UNL     1       9.413  12.375  18.774  0.00  0.00    +0.000 NA
ATOM     19  H   UNL     1       9.794   9.328  19.868  0.00  0.00    +0.000 HD
ENDBRANCH   4  16
ENDBRANCH   1   8
BRANCH   1  20
ATOM     20  N   UNL     1       4.380   5.158  16.820  0.00  0.00    +0.000 N 
BRANCH  20  21
ATOM     21  C   UNL     1       3.688   6.073  17.695  0.00  0.00    +0.000 A 
ATOM     22  C   UNL     1       2.989   7.162  17.161  0.00  0.00    +0.000 A 
ATOM     23  C   UNL     1       2.283   8.028  18.001  0.00  0.00    +0.000 A 
ATOM     24  C   UNL     1       2.281   7.821  19.380  0.00  0.00    +0.000 A 
ATOM     25  C   UNL     1       3.003   6.758  19.925  0.00  0.00    +0.000 A 
ATOM     26  C   UNL     1       3.709   5.890  19.088  0.00  0.00    +0.000 A 
ATOM     27 CL   UNL     1       4.596   4.600  19.817  0.00  0.00    +0.000 Cl
ENDBRANCH  20  21
BRANCH  20  28
ATOM     28  C   UNL     1       3.654   3.939  16.393  0.00  0.00    +0.000 C 
BRANCH  28  29
ATOM     29  C   UNL     1       2.724   3.261  17.375  0.00  0.00    +0.000 A 
ATOM     30  C   UNL     1       3.115   2.067  18.002  0.00  0.00    +0.000 A 
ATOM     31  C   UNL     1       2.282   1.439  18.931  0.00  0.00    +0.000 A 
ATOM     32  C   UNL     1       1.048   1.998  19.252  0.00  0.00    +0.000 A 
ATOM     33  C   UNL     1       0.656   3.194  18.658  0.00  0.00    +0.000 A 
ATOM     34  C   UNL     1       1.490   3.828  17.731  0.00  0.00    +0.000 A 
ENDBRANCH  28  29
ENDBRANCH  20  28
ENDBRANCH   1  20
TORSDOF 6
ENDMDL
MODEL 3
REMARK VINA RESULT:      -8.2      0.970      1.536
REMARK  Name = 
REMARK  7 active torsions:
REMARK  status: ('A' for Active; 'I' for Inactive)
REMARK    1  A    between atoms: C_1  and  N_2
REMARK    2  A    between atoms: C_7  and  C_9
REMARK    3  A    between atoms: C_13  and  S_14
REMARK    4  A    between atoms: S_14  and  N_17
REMARK    5  A    between atoms: N_17  and  C_18
REMARK    6  A    between atoms: N_17  and  C_25
REMARK    7  A    between atoms: C_18  and  C_19
REMARK                            x       y       z     vdW  Elec       q    Type
REMARK                         _______ _______ _______ _____ _____    ______ ____
ROOT
ATOM      1  S   UNL     1       4.836   5.734  16.948  0.00  0.00    +0.000 S 
ATOM      2  O   UNL     1       4.396   6.842  16.121  0.00  0.00    +0.000 OA
ATOM      3  O   UNL     1       5.159   4.458  16.343  0.00  0.00    +0.000 OA
ENDROOT
BRANCH   1   8
ATOM      4  C   UNL     1       7.976   8.013  18.280  0.00  0.00    +0.000 A 
ATOM      5  C   UNL     1       8.614   7.110  19.142  0.00  0.00    +0.000 A 
ATOM      6  C   UNL     1       8.172   5.788  19.217  0.00  0.00    +0.000 A 
ATOM      7  C   UNL     1       7.052   5.388  18.490  0.00  0.00    +0.000 A 
ATOM      8  C   UNL     1       6.358   6.308  17.688  0.00  0.00    +0.000 A 
ATOM      9  C   UNL     1       6.848   7.603  17.543  0.00  0.00    +0.000 A 
BRANCH   4  16
ATOM     10  C   UNL     1      10.064  14.447  18.026  0.00  0.00    +0.000 C 
ATOM     11  N   UNL     1      10.217  13.196  18.726  0.00  0.00    +0.000 N 
ATOM     12  C   UNL     1      11.031  12.923  19.784  0.00  0.00    +0.000 A 
ATOM     13  C   UNL     1      10.816  11.594  20.077  0.00  0.00    +0.000 A 
ATOM     14  C   UNL     1       9.852  11.150  19.135  0.00  0.00    +0.000 A 
ATOM     15  N   UNL     1       9.354   9.862  19.075  0.00  0.00    +0.000 N 
ATOM     16  C   UNL     1       8.400   9.441  18.166  0.00  0.00    +0.000 C 
ATOM     17  O   UNL     1       7.868  10.100  17.280  0.00  0.00    +0.000 OA
ATOM     18  N   UNL     1       9.495  12.144  18.327  0.00  0.00    +0.000 NA
ATOM     19  H   UNL     1       9.769   9.209  19.719  0.00  0.00    +0.000 HD
ENDBRANCH   4  16
ENDBRANCH   1   8
BRANCH   1  20
ATOM     20  N   UNL     1       3.706   5.484  18.179  0.00  0.00    +0.000 N 
BRANCH  20  21
ATOM     21  C   UNL     1       3.274   4.119  18.359  0.00  0.00    +0.000 A 
ATOM     22  C   UNL     1       4.139   3.180  18.935  0.00  0.00    +0.000 A 
ATOM     23  C   UNL     1       3.712   1.866  19.149  0.00  0.00    +0.000 A 
ATOM     24  C   UNL     1       2.425   1.478  18.778  0.00  0.00    +0.000 A 
ATOM     25  C   UNL     1       1.568   2.397  18.172  0.00  0.00    +0.000 A 
ATOM     26  C   UNL     1       1.992   3.712  17.957  0.00  0.00    +0.000 A 
ATOM     27 CL   UNL     1       0.894   4.804  17.192  0.00  0.00    +0.000 Cl
ENDBRANCH  20  21
BRANCH  20  28
ATOM     28  C   UNL     1       3.516   6.417  19.315  0.00  0.00    +0.000 C 
BRANCH  28  29
ATOM     29  C   UNL     1       2.525   7.551  19.172  0.00  0.00    +0.000 A 
ATOM     30  C   UNL     1       2.332   8.160  17.922  0.00  0.00    +0.000 A 
ATOM     31  C   UNL     1       1.404   9.190  17.762  0.00  0.00    +0.000 A 
ATOM     32  C   UNL     1       0.648   9.625  18.848  0.00  0.00    +0.000 A 
ATOM     33  C   UNL     1       0.808   9.014  20.088  0.00  0.00    +0.000 A 
ATOM     34  C   UNL     1       1.735   7.979  20.250  0.00  0.00    +0.000 A 
ENDBRANCH  28  29
ENDBRANCH  20  28
ENDBRANCH   1  20
TORSDOF 6
ENDMDL
MODEL 4
REMARK VINA RESULT:      -8.1      5.621      9.663
REMARK  Name = 
REMARK  7 active torsions:
REMARK  status: ('A' for Active; 'I' for Inactive)
REMARK    1  A    between atoms: C_1  and  N_2
REMARK    2  A    between atoms: C_7  and  C_9
REMARK    3  A    between atoms: C_13  and  S_14
REMARK    4  A    between atoms: S_14  and  N_17
REMARK    5  A    between atoms: N_17  and  C_18
REMARK    6  A    between atoms: N_17  and  C_25
REMARK    7  A    between atoms: C_18  and  C_19
REMARK                            x       y       z     vdW  Elec       q    Type
REMARK                         _______ _______ _______ _____ _____    ______ ____
ROOT
ATOM      1  S   UNL     1       0.165  13.188  21.263  0.00  0.00    +0.000 S 
ATOM      2  O   UNL     1      -0.952  13.750  21.998  0.00  0.00    +0.000 OA
ATOM      3  O   UNL     1       1.523  13.557  21.610  0.00  0.00    +0.000 OA
ENDROOT
BRANCH   1   8
ATOM      4  C   UNL     1       0.671   9.119  21.168  0.00  0.00    +0.000 A 
ATOM      5  C   UNL     1       0.005   8.741  22.342  0.00  0.00    +0.000 A 
ATOM      6  C   UNL     1      -0.699   9.692  23.081  0.00  0.00    +0.000 A 
ATOM      7  C   UNL     1      -0.676  11.030  22.691  0.00  0.00    +0.000 A 
ATOM      8  C   UNL     1       0.057  11.430  21.563  0.00  0.00    +0.000 A 
ATOM      9  C   UNL     1       0.687  10.471  20.774  0.00  0.00    +0.000 A 
BRANCH   4  16
ATOM     10  C   UNL     1       4.168   4.502  17.664  0.00  0.00    +0.000 C 
ATOM     11  N   UNL     1       3.426   4.731  18.879  0.00  0.00    +0.000 N 
ATOM     12  C   UNL     1       3.179   3.849  19.887  0.00  0.00    +0.000 A 
ATOM     13  C   UNL     1       2.429   4.548  20.808  0.00  0.00    +0.000 A 
ATOM     14  C   UNL     1       2.274   5.848  20.262  0.00  0.00    +0.000 A 
ATOM     15  N   UNL     1       1.576   6.874  20.871  0.00  0.00    +0.000 N 
ATOM     16  C   UNL     1       1.447   8.145  20.342  0.00  0.00    +0.000 C 
ATOM     17  O   UNL     1       1.889   8.562  19.278  0.00  0.00    +0.000 OA
ATOM     18  N   UNL     1       2.898   5.940  19.091  0.00  0.00    +0.000 NA
ATOM     19  H   UNL     1       1.111   6.628  21.729  0.00  0.00    +0.000 HD
ENDBRANCH   4  16
ENDBRANCH   1   8
BRANCH   1  20
ATOM     20  N   UNL     1      -0.069  13.463  19.612  0.00  0.00    +0.000 N 
BRANCH  20  21
ATOM     21  C   UNL     1       0.490  14.691  19.100  0.00  0.00    +0.000 A 
ATOM     22  C   UNL     1      -0.289  15.855  19.064  0.00  0.00    +0.000 A 
ATOM     23  C   UNL     1       0.259  17.057  18.608  0.00  0.00    +0.000 A 
ATOM     24  C   UNL     1       1.583  17.103  18.173  0.00  0.00    +0.000 A 
ATOM     25  C   UNL     1       2.357  15.943  18.173  0.00  0.00    +0.000 A 
ATOM     26  C   UNL     1       1.812  14.739  18.629  0.00  0.00    +0.000 A 
ATOM     27 CL   UNL     1       2.811  13.330  18.596  0.00  0.00    +0.000 Cl
ENDBRANCH  20  21
BRANCH  20  28
ATOM     28  C   UNL     1      -0.356  12.384  18.637  0.00  0.00    +0.000 C 
BRANCH  28  29
ATOM     29  C   UNL     1      -1.795  11.981  18.396  0.00  0.00    +0.000 A 
ATOM     30  C   UNL     1      -2.121  11.172  17.295  0.00  0.00    +0.000 A 
ATOM     31  C   UNL     1      -3.438  10.767  17.069  0.00  0.00    +0.000 A 
ATOM     32  C   UNL     1      -4.449  11.158  17.943  0.00  0.00    +0.000 A 
ATOM     33  C   UNL     1      -4.138  11.937  19.054  0.00  0.00    +0.000 A 
ATOM     34  C   UNL     1      -2.819  12.341  19.285  0.00  0.00    +0.000 A 
ENDBRANCH  28  29
ENDBRANCH  20  28
ENDBRANCH   1  20
TORSDOF 6
ENDMDL
MODEL 5
REMARK VINA RESULT:      -8.0      5.339      9.232
REMARK  Name = 
REMARK  7 active torsions:
REMARK  status: ('A' for Active; 'I' for Inactive)
REMARK    1  A    between atoms: C_1  and  N_2
REMARK    2  A    between atoms: C_7  and  C_9
REMARK    3  A    between atoms: C_13  and  S_14
REMARK    4  A    between atoms: S_14  and  N_17
REMARK    5  A    between atoms: N_17  and  C_18
REMARK    6  A    between atoms: N_17  and  C_25
REMARK    7  A    between atoms: C_18  and  C_19
REMARK                            x       y       z     vdW  Elec       q    Type
REMARK                         _______ _______ _______ _____ _____    ______ ____
ROOT
ATOM      1  S   UNL     1       0.069  12.787  21.147  0.00  0.00    +0.000 S 
ATOM      2  O   UNL     1      -1.126  13.106  21.905  0.00  0.00    +0.000 OA
ATOM      3  O   UNL     1       1.362  13.262  21.596  0.00  0.00    +0.000 OA
ENDROOT
BRANCH   1   8
ATOM      4  C   UNL     1       1.043   8.856  20.500  0.00  0.00    +0.000 A 
ATOM      5  C   UNL     1       0.443   8.246  21.610  0.00  0.00    +0.000 A 
ATOM      6  C   UNL     1      -0.355   9.000  22.472  0.00  0.00    +0.000 A 
ATOM      7  C   UNL     1      -0.494  10.372  22.268  0.00  0.00    +0.000 A 
ATOM      8  C   UNL     1       0.170  11.004  21.205  0.00  0.00    +0.000 A 
ATOM      9  C   UNL     1       0.895  10.241  20.294  0.00  0.00    +0.000 A 
BRANCH   4  16
ATOM     10  C   UNL     1       5.048   5.228  16.423  0.00  0.00    +0.000 C 
ATOM     11  N   UNL     1       4.432   5.263  17.727  0.00  0.00    +0.000 N 
ATOM     12  C   UNL     1       4.523   4.337  18.720  0.00  0.00    +0.000 A 
ATOM     13  C   UNL     1       3.752   4.829  19.752  0.00  0.00    +0.000 A 
ATOM     14  C   UNL     1       3.234   6.063  19.280  0.00  0.00    +0.000 A 
ATOM     15  N   UNL     1       2.399   6.890  20.008  0.00  0.00    +0.000 N 
ATOM     16  C   UNL     1       1.914   8.101  19.549  0.00  0.00    +0.000 C 
ATOM     17  O   UNL     1       2.111   8.621  18.458  0.00  0.00    +0.000 OA
ATOM     18  N   UNL     1       3.668   6.312  18.047  0.00  0.00    +0.000 NA
ATOM     19  H   UNL     1       2.114   6.531  20.905  0.00  0.00    +0.000 HD
ENDBRANCH   4  16
ENDBRANCH   1   8
BRANCH   1  20
ATOM     20  N   UNL     1      -0.157  13.257  19.540  0.00  0.00    +0.000 N 
BRANCH  20  21
ATOM     21  C   UNL     1       0.334  14.571  19.201  0.00  0.00    +0.000 A 
ATOM     22  C   UNL     1      -0.493  15.690  19.357  0.00  0.00    +0.000 A 
ATOM     23  C   UNL     1      -0.009  16.970  19.069  0.00  0.00    +0.000 A 
ATOM     24  C   UNL     1       1.297  17.139  18.612  0.00  0.00    +0.000 A 
ATOM     25  C   UNL     1       2.118  16.027  18.421  0.00  0.00    +0.000 A 
ATOM     26  C   UNL     1       1.637  14.746  18.708  0.00  0.00    +0.000 A 
ATOM     27 CL   UNL     1       2.691  13.404  18.441  0.00  0.00    +0.000 Cl
ENDBRANCH  20  21
BRANCH  20  28
ATOM     28  C   UNL     1      -0.365  12.297  18.430  0.00  0.00    +0.000 C 
BRANCH  28  29
ATOM     29  C   UNL     1      -1.726  11.660  18.259  0.00  0.00    +0.000 A 
ATOM     30  C   UNL     1      -2.854  12.246  18.856  0.00  0.00    +0.000 A 
ATOM     31  C   UNL     1      -4.124  11.689  18.690  0.00  0.00    +0.000 A 
ATOM     32  C   UNL     1      -4.288  10.541  17.919  0.00  0.00    +0.000 A 
ATOM     33  C   UNL     1      -3.184   9.963  17.299  0.00  0.00    +0.000 A 
ATOM     34  C   UNL     1      -1.912  10.521  17.461  0.00  0.00    +0.000 A 
ENDBRANCH  28  29
ENDBRANCH  20  28
ENDBRANCH   1  20
TORSDOF 6
ENDMDL
MODEL 6
REMARK VINA RESULT:      -8.0      5.657      9.429
REMARK  Name = 
REMARK  7 active torsions:
REMARK  status: ('A' for Active; 'I' for Inactive)
REMARK    1  A    between atoms: C_1  and  N_2
REMARK    2  A    between atoms: C_7  and  C_9
REMARK    3  A    between atoms: C_13  and  S_14
REMARK    4  A    between atoms: S_14  and  N_17
REMARK    5  A    between atoms: N_17  and  C_18
REMARK    6  A    between atoms: N_17  and  C_25
REMARK    7  A    between atoms: C_18  and  C_19
REMARK                            x       y       z     vdW  Elec       q    Type
REMARK                         _______ _______ _______ _____ _____    ______ ____
ROOT
ATOM      1  S   UNL     1       0.862  12.797  20.543  0.00  0.00    +0.000 S 
ATOM      2  O   UNL     1       0.783  13.333  21.889  0.00  0.00    +0.000 OA
ATOM      3  O   UNL     1       2.055  13.006  19.747  0.00  0.00    +0.000 OA
ENDROOT
BRANCH   1   8
ATOM      4  C   UNL     1       1.325   8.732  20.250  0.00  0.00    +0.000 A 
ATOM      5  C   UNL     1       0.663   8.304  21.409  0.00  0.00    +0.000 A 
ATOM      6  C   UNL     1      -0.025   9.227  22.198  0.00  0.00    +0.000 A 
ATOM      7  C   UNL     1       0.009  10.582  21.873  0.00  0.00    +0.000 A 
ATOM      8  C   UNL     1       0.738  11.028  20.759  0.00  0.00    +0.000 A 
ATOM      9  C   UNL     1       1.351  10.101  19.921  0.00  0.00    +0.000 A 
BRANCH   4  16
ATOM     10  C   UNL     1       4.785   4.271  16.514  0.00  0.00    +0.000 C 
ATOM     11  N   UNL     1       4.151   4.483  17.793  0.00  0.00    +0.000 N 
ATOM     12  C   UNL     1       4.068   3.615  18.838  0.00  0.00    +0.000 A 
ATOM     13  C   UNL     1       3.363   4.286  19.815  0.00  0.00    +0.000 A 
ATOM     14  C   UNL     1       3.063   5.556  19.259  0.00  0.00    +0.000 A 
ATOM     15  N   UNL     1       2.356   6.548  19.912  0.00  0.00    +0.000 N 
ATOM     16  C   UNL     1       2.084   7.791  19.371  0.00  0.00    +0.000 C 
ATOM     17  O   UNL     1       2.389   8.207  18.260  0.00  0.00    +0.000 OA
ATOM     18  N   UNL     1       3.560   5.658  18.030  0.00  0.00    +0.000 NA
ATOM     19  H   UNL     1       1.995   6.295  20.818  0.00  0.00    +0.000 HD
ENDBRANCH   4  16
ENDBRANCH   1   8
BRANCH   1  20
ATOM     20  N   UNL     1      -0.481  13.322  19.662  0.00  0.00    +0.000 N 
BRANCH  20  21
ATOM     21  C   UNL     1      -1.116  14.522  20.153  0.00  0.00    +0.000 A 
ATOM     22  C   UNL     1      -0.636  15.779  19.764  0.00  0.00    +0.000 A 
ATOM     23  C   UNL     1      -1.272  16.943  20.203  0.00  0.00    +0.000 A 
ATOM     24  C   UNL     1      -2.383  16.862  21.042  0.00  0.00    +0.000 A 
ATOM     25  C   UNL     1      -2.848  15.615  21.462  0.00  0.00    +0.000 A 
ATOM     26  C   UNL     1      -2.214  14.449  21.025  0.00  0.00    +0.000 A 
ATOM     27 CL   UNL     1      -2.824  12.933  21.586  0.00  0.00    +0.000 Cl
ENDBRANCH  20  21
BRANCH  20  28
ATOM     28  C   UNL     1      -0.730  12.945  18.251  0.00  0.00    +0.000 C 
BRANCH  28  29
ATOM     29  C   UNL     1      -1.697  11.819  17.956  0.00  0.00    +0.000 A 
ATOM     30  C   UNL     1      -1.215  10.583  17.494  0.00  0.00    +0.000 A 
ATOM     31  C   UNL     1      -2.087   9.523  17.241  0.00  0.00    +0.000 A 
ATOM     32  C   UNL     1      -3.455   9.678  17.450  0.00  0.00    +0.000 A 
ATOM     33  C   UNL     1      -3.947  10.888  17.932  0.00  0.00    +0.000 A 
ATOM     34  C   UNL     1      -3.075  11.950  18.191  0.00  0.00    +0.000 A 
ENDBRANCH  28  29
ENDBRANCH  20  28
ENDBRANCH   1  20
TORSDOF 6
ENDMDL
MODEL 7
REMARK VINA RESULT:      -7.9      5.551      9.513
REMARK  Name = 
REMARK  7 active torsions:
REMARK  status: ('A' for Active; 'I' for Inactive)
REMARK    1  A    between atoms: C_1  and  N_2
REMARK    2  A    between atoms: C_7  and  C_9
REMARK    3  A    between atoms: C_13  and  S_14
REMARK    4  A    between atoms: S_14  and  N_17
REMARK    5  A    between atoms: N_17  and  C_18
REMARK    6  A    between atoms: N_17  and  C_25
REMARK    7  A    between atoms: C_18  and  C_19
REMARK                            x       y       z     vdW  Elec       q    Type
REMARK                         _______ _______ _______ _____ _____    ______ ____
ROOT
ATOM      1  S   UNL     1       0.521  13.242  21.177  0.00  0.00    +0.000 S 
ATOM      2  O   UNL     1      -0.444  14.019  21.932  0.00  0.00    +0.000 OA
ATOM      3  O   UNL     1       1.939  13.400  21.429  0.00  0.00    +0.000 OA
ENDROOT
BRANCH   1   8
ATOM      4  C   UNL     1       0.504   9.150  21.465  0.00  0.00    +0.000 A 
ATOM      5  C   UNL     1      -0.346   8.964  22.564  0.00  0.00    +0.000 A 
ATOM      6  C   UNL     1      -1.006  10.057  23.126  0.00  0.00    +0.000 A 
ATOM      7  C   UNL     1      -0.762  11.341  22.641  0.00  0.00    +0.000 A 
ATOM      8  C   UNL     1       0.150  11.544  21.594  0.00  0.00    +0.000 A 
ATOM      9  C   UNL     1       0.743  10.448  20.974  0.00  0.00    +0.000 A 
BRANCH   4  16
ATOM     10  C   UNL     1       3.911   4.211  18.330  0.00  0.00    +0.000 C 
ATOM     11  N   UNL     1       3.544   5.604  18.261  0.00  0.00    +0.000 N 
ATOM     12  C   UNL     1       3.878   6.510  17.300  0.00  0.00    +0.000 A 
ATOM     13  C   UNL     1       3.293   7.694  17.694  0.00  0.00    +0.000 A 
ATOM     14  C   UNL     1       2.626   7.399  18.911  0.00  0.00    +0.000 A 
ATOM     15  N   UNL     1       1.907   8.319  19.652  0.00  0.00    +0.000 N 
ATOM     16  C   UNL     1       1.244   8.019  20.828  0.00  0.00    +0.000 C 
ATOM     17  O   UNL     1       1.195   6.940  21.406  0.00  0.00    +0.000 OA
ATOM     18  N   UNL     1       2.785   6.118  19.233  0.00  0.00    +0.000 NA
ATOM     19  H   UNL     1       1.931   9.263  19.305  0.00  0.00    +0.000 HD
ENDBRANCH   4  16
ENDBRANCH   1   8
BRANCH   1  20
ATOM     20  N   UNL     1       0.232  13.461  19.526  0.00  0.00    +0.000 N 
BRANCH  20  21
ATOM     21  C   UNL     1       0.559  14.766  19.005  0.00  0.00    +0.000 A 
ATOM     22  C   UNL     1      -0.423  15.764  18.947  0.00  0.00    +0.000 A 
ATOM     23  C   UNL     1      -0.102  17.042  18.482  0.00  0.00    +0.000 A 
ATOM     24  C   UNL     1       1.195  17.330  18.060  0.00  0.00    +0.000 A 
ATOM     25  C   UNL     1       2.172  16.333  18.082  0.00  0.00    +0.000 A 
ATOM     26  C   UNL     1       1.855  15.054  18.547  0.00  0.00    +0.000 A 
ATOM     27 CL   UNL     1       3.098  13.855  18.541  0.00  0.00    +0.000 Cl
ENDBRANCH  20  21
BRANCH  20  28
ATOM     28  C   UNL     1       0.137  12.342  18.558  0.00  0.00    +0.000 C 
BRANCH  28  29
ATOM     29  C   UNL     1      -1.213  11.707  18.305  0.00  0.00    +0.000 A 
ATOM     30  C   UNL     1      -1.298  10.509  17.577  0.00  0.00    +0.000 A 
ATOM     31  C   UNL     1      -2.531   9.893  17.354  0.00  0.00    +0.000 A 
ATOM     32  C   UNL     1      -3.698  10.461  17.859  0.00  0.00    +0.000 A 
ATOM     33  C   UNL     1      -3.628  11.635  18.604  0.00  0.00    +0.000 A 
ATOM     34  C   UNL     1      -2.394  12.252  18.833  0.00  0.00    +0.000 A 
ENDBRANCH  28  29
ENDBRANCH  20  28
ENDBRANCH   1  20
TORSDOF 6
ENDMDL
MODEL 8
REMARK VINA RESULT:      -7.9      5.607      9.227
REMARK  Name = 
REMARK  7 active torsions:
REMARK  status: ('A' for Active; 'I' for Inactive)
REMARK    1  A    between atoms: C_1  and  N_2
REMARK    2  A    between atoms: C_7  and  C_9
REMARK    3  A    between atoms: C_13  and  S_14
REMARK    4  A    between atoms: S_14  and  N_17
REMARK    5  A    between atoms: N_17  and  C_18
REMARK    6  A    between atoms: N_17  and  C_25
REMARK    7  A    between atoms: C_18  and  C_19
REMARK                            x       y       z     vdW  Elec       q    Type
REMARK                         _______ _______ _______ _____ _____    ______ ____
ROOT
ATOM      1  S   UNL     1      -0.035  10.018  21.389  0.00  0.00    +0.000 S 
ATOM      2  O   UNL     1      -0.905   8.883  21.633  0.00  0.00    +0.000 OA
ATOM      3  O   UNL     1       0.858  10.485  22.430  0.00  0.00    +0.000 OA
ENDROOT
BRANCH   1   8
ATOM      4  C   UNL     1       2.203   7.820  18.747  0.00  0.00    +0.000 A 
ATOM      5  C   UNL     1       2.453   8.775  17.751  0.00  0.00    +0.000 A 
ATOM      6  C   UNL     1       2.059  10.099  17.942  0.00  0.00    +0.000 A 
ATOM      7  C   UNL     1       1.352  10.455  19.089  0.00  0.00    +0.000 A 
ATOM      8  C   UNL     1       1.027   9.488  20.053  0.00  0.00    +0.000 A 
ATOM      9  C   UNL     1       1.495   8.185  19.908  0.00  0.00    +0.000 A 
BRANCH   4  16
ATOM     10  C   UNL     1       3.770   1.251  18.279  0.00  0.00    +0.000 C 
ATOM     11  N   UNL     1       2.871   2.197  18.892  0.00  0.00    +0.000 N 
ATOM     12  C   UNL     1       1.847   1.941  19.753  0.00  0.00    +0.000 A 
ATOM     13  C   UNL     1       1.296   3.171  20.041  0.00  0.00    +0.000 A 
ATOM     14  C   UNL     1       2.059   4.110  19.302  0.00  0.00    +0.000 A 
ATOM     15  N   UNL     1       1.834   5.475  19.303  0.00  0.00    +0.000 N 
ATOM     16  C   UNL     1       2.595   6.386  18.594  0.00  0.00    +0.000 C 
ATOM     17  O   UNL     1       3.546   6.156  17.857  0.00  0.00    +0.000 OA
ATOM     18  N   UNL     1       3.019   3.496  18.616  0.00  0.00    +0.000 NA
ATOM     19  H   UNL     1       1.031   5.778  19.828  0.00  0.00    +0.000 HD
ENDBRANCH   4  16
ENDBRANCH   1   8
BRANCH   1  20
ATOM     20  N   UNL     1      -0.968  11.319  20.846  0.00  0.00    +0.000 N 
BRANCH  20  21
ATOM     21  C   UNL     1      -1.336  12.284  21.854  0.00  0.00    +0.000 A 
ATOM     22  C   UNL     1      -2.535  12.134  22.563  0.00  0.00    +0.000 A 
ATOM     23  C   UNL     1      -2.877  13.042  23.568  0.00  0.00    +0.000 A 
ATOM     24  C   UNL     1      -2.034  14.112  23.864  0.00  0.00    +0.000 A 
ATOM     25  C   UNL     1      -0.854  14.289  23.141  0.00  0.00    +0.000 A 
ATOM     26  C   UNL     1      -0.508  13.383  22.134  0.00  0.00    +0.000 A 
ATOM     27 CL   UNL     1       0.957  13.657  21.262  0.00  0.00    +0.000 Cl
ENDBRANCH  20  21
BRANCH  20  28
ATOM     28  C   UNL     1      -1.012  11.757  19.431  0.00  0.00    +0.000 C 
BRANCH  28  29
ATOM     29  C   UNL     1      -2.170  11.314  18.564  0.00  0.00    +0.000 A 
ATOM     30  C   UNL     1      -1.991  10.279  17.631  0.00  0.00    +0.000 A 
ATOM     31  C   UNL     1      -3.053   9.837  16.840  0.00  0.00    +0.000 A 
ATOM     32  C   UNL     1      -4.312  10.417  16.972  0.00  0.00    +0.000 A 
ATOM     33  C   UNL     1      -4.512  11.425  17.910  0.00  0.00    +0.000 A 
ATOM     34  C   UNL     1      -3.451  11.868  18.707  0.00  0.00    +0.000 A 
ENDBRANCH  28  29
ENDBRANCH  20  28
ENDBRANCH   1  20
TORSDOF 6
ENDMDL
MODEL 9
REMARK VINA RESULT:      -7.8      5.604      9.599
REMARK  Name = 
REMARK  7 active torsions:
REMARK  status: ('A' for Active; 'I' for Inactive)
REMARK    1  A    between atoms: C_1  and  N_2
REMARK    2  A    between atoms: C_7  and  C_9
REMARK    3  A    between atoms: C_13  and  S_14
REMARK    4  A    between atoms: S_14  and  N_17
REMARK    5  A    between atoms: N_17  and  C_18
REMARK    6  A    between atoms: N_17  and  C_25
REMARK    7  A    between atoms: C_18  and  C_19
REMARK                            x       y       z     vdW  Elec       q    Type
REMARK                         _______ _______ _______ _____ _____    ______ ____
ROOT
ATOM      1  S   UNL     1       0.827  12.862  20.527  0.00  0.00    +0.000 S 
ATOM      2  O   UNL     1       0.879  13.604  21.772  0.00  0.00    +0.000 OA
ATOM      3  O   UNL     1       2.013  12.746  19.701  0.00  0.00    +0.000 OA
ENDROOT
BRANCH   1   8
ATOM      4  C   UNL     1       0.743   8.790  21.009  0.00  0.00    +0.000 A 
ATOM      5  C   UNL     1      -0.125   8.669  22.103  0.00  0.00    +0.000 A 
ATOM      6  C   UNL     1      -0.776   9.798  22.603  0.00  0.00    +0.000 A 
ATOM      7  C   UNL     1      -0.505  11.053  22.061  0.00  0.00    +0.000 A 
ATOM      8  C   UNL     1       0.424  11.192  21.019  0.00  0.00    +0.000 A 
ATOM      9  C   UNL     1       1.009  10.059  20.460  0.00  0.00    +0.000 A 
BRANCH   4  16
ATOM     10  C   UNL     1       4.138   3.664  18.176  0.00  0.00    +0.000 C 
ATOM     11  N   UNL     1       3.849   5.073  18.073  0.00  0.00    +0.000 N 
ATOM     12  C   UNL     1       4.305   5.954  17.140  0.00  0.00    +0.000 A 
ATOM     13  C   UNL     1       3.750   7.169  17.482  0.00  0.00    +0.000 A 
ATOM     14  C   UNL     1       2.973   6.916  18.642  0.00  0.00    +0.000 A 
ATOM     15  N   UNL     1       2.244   7.876  19.319  0.00  0.00    +0.000 N 
ATOM     16  C   UNL     1       1.473   7.618  20.437  0.00  0.00    +0.000 C 
ATOM     17  O   UNL     1       1.323   6.547  21.013  0.00  0.00    +0.000 OA
ATOM     18  N   UNL     1       3.041   5.631  18.979  0.00  0.00    +0.000 NA
ATOM     19  H   UNL     1       2.343   8.816  18.972  0.00  0.00    +0.000 HD
ENDBRANCH   4  16
ENDBRANCH   1   8
BRANCH   1  20
ATOM     20  N   UNL     1      -0.439  13.460  19.582  0.00  0.00    +0.000 N 
BRANCH  20  21
ATOM     21  C   UNL     1      -0.900  14.784  19.925  0.00  0.00    +0.000 A 
ATOM     22  C   UNL     1      -0.223  15.910  19.440  0.00  0.00    +0.000 A 
ATOM     23  C   UNL     1      -0.688  17.194  19.735  0.00  0.00    +0.000 A 
ATOM     24  C   UNL     1      -1.823  17.364  20.527  0.00  0.00    +0.000 A 
ATOM     25  C   UNL     1      -2.485  16.250  21.043  0.00  0.00    +0.000 A 
ATOM     26  C   UNL     1      -2.022  14.964  20.750  0.00  0.00    +0.000 A 
ATOM     27 CL   UNL     1      -2.872  13.620  21.426  0.00  0.00    +0.000 Cl
ENDBRANCH  20  21
BRANCH  20  28
ATOM     28  C   UNL     1      -0.752  12.958  18.223  0.00  0.00    +0.000 C 
BRANCH  28  29
ATOM     29  C   UNL     1      -1.762  11.843  18.070  0.00  0.00    +0.000 A 
ATOM     30  C   UNL     1      -3.107  12.063  18.411  0.00  0.00    +0.000 A 
ATOM     31  C   UNL     1      -4.060  11.055  18.254  0.00  0.00    +0.000 A 
ATOM     32  C   UNL     1      -3.687   9.813  17.747  0.00  0.00    +0.000 A 
ATOM     33  C   UNL     1      -2.364   9.587  17.380  0.00  0.00    +0.000 A 
ATOM     34  C   UNL     1      -1.407  10.595  17.533  0.00  0.00    +0.000 A 
ENDBRANCH  28  29
ENDBRANCH  20  28
ENDBRANCH   1  20
TORSDOF 6
ENDMDL
