MODEL 1
REMARK VINA RESULT:      -8.7      0.000      0.000
REMARK  Name = 
REMARK  3 active torsions:
REMARK  status: ('A' for Active; 'I' for Inactive)
REMARK    1  A    between atoms: C_4  and  C_5
REMARK    2  A    between atoms: C_5  and  N_6
REMARK    3  A    between atoms: C_10  and  C_11
REMARK                            x       y       z     vdW  Elec       q    Type
REMARK                         _______ _______ _______ _____ _____    ______ ____
ROOT
ATOM      1  N   UNL     1       3.801   4.008  19.394  0.00  0.00    +0.000 NA
ATOM      2  C   UNL     1       3.268   3.078  20.400  0.00  0.00    +0.000 C 
ATOM      3  C   UNL     1       1.745   3.110  20.481  0.00  0.00    +0.000 C 
ATOM      4  C   UNL     1       1.249   4.520  20.766  0.00  0.00    +0.000 C 
ATOM      5  C   UNL     1       1.775   5.503  19.714  0.00  0.00    +0.000 C 
ATOM      6  C   UNL     1       3.308   5.383  19.573  0.00  0.00    +0.000 C 
ENDROOT
BRANCH   5   7
ATOM      7  C   UNL     1       1.440   6.902  20.121  0.00  0.00    +0.000 A 
ATOM      8  N   UNL     1       1.718   8.013  19.466  0.00  0.00    +0.000 NA
ATOM      9  C   UNL     1       1.197   8.997  20.256  0.00  0.00    +0.000 A 
ATOM     10  C   UNL     1       1.186  10.388  20.091  0.00  0.00    +0.000 A 
ATOM     11  C   UNL     1       0.564  11.157  21.082  0.00  0.00    +0.000 A 
ATOM     12  C   UNL     1      -0.024  10.546  22.193  0.00  0.00    +0.000 A 
ATOM     13  F   UNL     1      -0.610  11.322  23.115  0.00  0.00    +0.000 F 
ATOM     14  C   UNL     1      -0.026   9.163  22.378  0.00  0.00    +0.000 A 
ATOM     15  C   UNL     1       0.602   8.437  21.376  0.00  0.00    +0.000 A 
ATOM     16  O   UNL     1       0.755   7.080  21.295  0.00  0.00    +0.000 OA
ENDBRANCH   5   7
BRANCH   1  17
ATOM     17  C   UNL     1       5.276   3.946  19.317  0.00  0.00    +0.000 C 
BRANCH  17  21
ATOM     18  O   UNL     1       7.896   7.098  16.655  0.00  0.00    +0.000 OA
ATOM     19  C   UNL     1       7.248   6.062  16.730  0.00  0.00    +0.000 A 
ATOM     20  C   UNL     1       6.677   5.547  18.003  0.00  0.00    +0.000 A 
ATOM     21  C   UNL     1       5.918   4.431  18.014  0.00  0.00    +0.000 A 
ATOM     22  N   UNL     1       5.713   3.694  16.851  0.00  0.00    +0.000 N 
ATOM     23  C   UNL     1       6.218   4.099  15.661  0.00  0.00    +0.000 A 
ATOM     24  C   UNL     1       6.167   3.605  14.383  0.00  0.00    +0.000 A 
ATOM     25  C   UNL     1       6.910   4.532  13.621  0.00  0.00    +0.000 A 
ATOM     26  N   UNL     1       7.395   5.540  14.354  0.00  0.00    +0.000 NA
ATOM     27  N   UNL     1       6.964   5.261  15.614  0.00  0.00    +0.000 N 
ATOM     28  H   UNL     1       5.126   2.866  16.931  0.00  0.00    +0.000 HD
ENDBRANCH  17  21
ENDBRANCH   1  17
TORSDOF 3
ENDMDL
MODEL 2
REMARK VINA RESULT:      -8.7      1.253      1.625
REMARK  Name = 
REMARK  3 active torsions:
REMARK  status: ('A' for Active; 'I' for Inactive)
REMARK    1  A    between atoms: C_4  and  C_5
REMARK    2  A    between atoms: C_5  and  N_6
REMARK    3  A    between atoms: C_10  and  C_11
REMARK                            x       y       z     vdW  Elec       q    Type
REMARK                         _______ _______ _______ _____ _____    ______ ____
ROOT
ATOM      1  N   UNL     1       3.759   3.964  19.395  0.00  0.00    +0.000 NA
ATOM      2  C   UNL     1       3.215   3.217  20.538  0.00  0.00    +0.000 C 
ATOM      3  C   UNL     1       1.701   3.359  20.666  0.00  0.00    +0.000 C 
ATOM      4  C   UNL     1       1.304   4.824  20.770  0.00  0.00    +0.000 C 
ATOM      5  C   UNL     1       1.843   5.619  19.575  0.00  0.00    +0.000 C 
ATOM      6  C   UNL     1       3.358   5.380  19.399  0.00  0.00    +0.000 C 
ENDROOT
BRANCH   5   7
ATOM      7  C   UNL     1       1.610   7.078  19.795  0.00  0.00    +0.000 A 
ATOM      8  N   UNL     1       1.284   7.673  20.927  0.00  0.00    +0.000 NA
ATOM      9  C   UNL     1       1.196   8.993  20.589  0.00  0.00    +0.000 A 
ATOM     10  C   UNL     1       0.877  10.114  21.366  0.00  0.00    +0.000 A 
ATOM     11  C   UNL     1       0.869  11.364  20.735  0.00  0.00    +0.000 A 
ATOM     12  C   UNL     1       1.172  11.478  19.375  0.00  0.00    +0.000 A 
ATOM     13  F   UNL     1       1.154  12.694  18.814  0.00  0.00    +0.000 F 
ATOM     14  C   UNL     1       1.494  10.375  18.581  0.00  0.00    +0.000 A 
ATOM     15  C   UNL     1       1.488   9.155  19.243  0.00  0.00    +0.000 A 
ATOM     16  O   UNL     1       1.758   7.919  18.723  0.00  0.00    +0.000 OA
ENDBRANCH   5   7
BRANCH   1  17
ATOM     17  C   UNL     1       5.223   3.795  19.276  0.00  0.00    +0.000 C 
BRANCH  17  21
ATOM     18  O   UNL     1       7.858   7.035  16.737  0.00  0.00    +0.000 OA
ATOM     19  C   UNL     1       7.212   5.995  16.774  0.00  0.00    +0.000 A 
ATOM     20  C   UNL     1       6.631   5.439  18.025  0.00  0.00    +0.000 A 
ATOM     21  C   UNL     1       5.875   4.322  17.995  0.00  0.00    +0.000 A 
ATOM     22  N   UNL     1       5.683   3.620  16.808  0.00  0.00    +0.000 N 
ATOM     23  C   UNL     1       6.197   4.063  15.636  0.00  0.00    +0.000 A 
ATOM     24  C   UNL     1       6.158   3.609  14.343  0.00  0.00    +0.000 A 
ATOM     25  C   UNL     1       6.906   4.561  13.616  0.00  0.00    +0.000 A 
ATOM     26  N   UNL     1       7.381   5.547  14.385  0.00  0.00    +0.000 NA
ATOM     27  N   UNL     1       6.940   5.228  15.631  0.00  0.00    +0.000 N 
ATOM     28  H   UNL     1       5.097   2.789  16.857  0.00  0.00    +0.000 HD
ENDBRANCH  17  21
ENDBRANCH   1  17
TORSDOF 3
ENDMDL
MODEL 3
REMARK VINA RESULT:      -8.6      3.699      8.893
REMARK  Name = 
REMARK  3 active torsions:
REMARK  status: ('A' for Active; 'I' for Inactive)
REMARK    1  A    between atoms: C_4  and  C_5
REMARK    2  A    between atoms: C_5  and  N_6
REMARK    3  A    between atoms: C_10  and  C_11
REMARK                            x       y       z     vdW  Elec       q    Type
REMARK                         _______ _______ _______ _____ _____    ______ ____
ROOT
ATOM      1  N   UNL     1       4.988   5.954  18.895  0.00  0.00    +0.000 NA
ATOM      2  C   UNL     1       6.001   5.273  19.713  0.00  0.00    +0.000 C 
ATOM      3  C   UNL     1       7.420   5.499  19.200  0.00  0.00    +0.000 C 
ATOM      4  C   UNL     1       7.546   5.058  17.749  0.00  0.00    +0.000 C 
ATOM      5  C   UNL     1       6.511   5.774  16.873  0.00  0.00    +0.000 C 
ATOM      6  C   UNL     1       5.094   5.621  17.466  0.00  0.00    +0.000 C 
ENDROOT
BRANCH   5   7
ATOM      7  C   UNL     1       6.523   5.186  15.499  0.00  0.00    +0.000 A 
ATOM      8  N   UNL     1       7.466   5.311  14.585  0.00  0.00    +0.000 NA
ATOM      9  C   UNL     1       6.994   4.589  13.527  0.00  0.00    +0.000 A 
ATOM     10  C   UNL     1       7.549   4.354  12.263  0.00  0.00    +0.000 A 
ATOM     11  C   UNL     1       6.823   3.556  11.370  0.00  0.00    +0.000 A 
ATOM     12  C   UNL     1       5.588   3.016  11.739  0.00  0.00    +0.000 A 
ATOM     13  F   UNL     1       4.929   2.257  10.853  0.00  0.00    +0.000 F 
ATOM     14  C   UNL     1       5.015   3.235  12.994  0.00  0.00    +0.000 A 
ATOM     15  C   UNL     1       5.764   4.033  13.848  0.00  0.00    +0.000 A 
ATOM     16  O   UNL     1       5.454   4.415  15.124  0.00  0.00    +0.000 OA
ENDBRANCH   5   7
BRANCH   1  17
ATOM     17  C   UNL     1       3.623   5.739  19.421  0.00  0.00    +0.000 C 
BRANCH  17  21
ATOM     18  O   UNL     1       1.571   9.737  17.501  0.00  0.00    +0.000 OA
ATOM     19  C   UNL     1       1.707   8.969  18.444  0.00  0.00    +0.000 A 
ATOM     20  C   UNL     1       2.543   7.740  18.382  0.00  0.00    +0.000 A 
ATOM     21  C   UNL     1       2.705   6.963  19.474  0.00  0.00    +0.000 A 
ATOM     22  N   UNL     1       2.036   7.249  20.661  0.00  0.00    +0.000 N 
ATOM     23  C   UNL     1       1.248   8.344  20.780  0.00  0.00    +0.000 A 
ATOM     24  C   UNL     1       0.501   8.878  21.799  0.00  0.00    +0.000 A 
ATOM     25  C   UNL     1      -0.071  10.041  21.239  0.00  0.00    +0.000 A 
ATOM     26  N   UNL     1       0.285  10.236  19.965  0.00  0.00    +0.000 NA
ATOM     27  N   UNL     1       1.097   9.179  19.690  0.00  0.00    +0.000 N 
ATOM     28  H   UNL     1       2.209   6.624  21.446  0.00  0.00    +0.000 HD
ENDBRANCH  17  21
ENDBRANCH   1  17
TORSDOF 3
ENDMDL
MODEL 4
REMARK VINA RESULT:      -8.2      4.181      8.836
REMARK  Name = 
REMARK  3 active torsions:
REMARK  status: ('A' for Active; 'I' for Inactive)
REMARK    1  A    between atoms: C_4  and  C_5
REMARK    2  A    between atoms: C_5  and  N_6
REMARK    3  A    between atoms: C_10  and  C_11
REMARK                            x       y       z     vdW  Elec       q    Type
REMARK                         _______ _______ _______ _____ _____    ______ ____
ROOT
ATOM      1  N   UNL     1       0.566  11.008  20.651  0.00  0.00    +0.000 NA
ATOM      2  C   UNL     1      -0.560  10.759  21.564  0.00  0.00    +0.000 C 
ATOM      3  C   UNL     1      -0.224   9.738  22.646  0.00  0.00    +0.000 C 
ATOM      4  C   UNL     1       0.239   8.427  22.027  0.00  0.00    +0.000 C 
ATOM      5  C   UNL     1       1.428   8.661  21.087  0.00  0.00    +0.000 C 
ATOM      6  C   UNL     1       1.105   9.771  20.064  0.00  0.00    +0.000 C 
ENDROOT
BRANCH   5   7
ATOM      7  C   UNL     1       1.738   7.401  20.346  0.00  0.00    +0.000 A 
ATOM      8  N   UNL     1       2.321   7.291  19.167  0.00  0.00    +0.000 NA
ATOM      9  C   UNL     1       2.369   5.943  18.951  0.00  0.00    +0.000 A 
ATOM     10  C   UNL     1       2.869   5.211  17.867  0.00  0.00    +0.000 A 
ATOM     11  C   UNL     1       2.783   3.815  17.928  0.00  0.00    +0.000 A 
ATOM     12  C   UNL     1       2.215   3.184  19.039  0.00  0.00    +0.000 A 
ATOM     13  F   UNL     1       2.156   1.845  19.055  0.00  0.00    +0.000 F 
ATOM     14  C   UNL     1       1.711   3.893  20.131  0.00  0.00    +0.000 A 
ATOM     15  C   UNL     1       1.813   5.273  20.031  0.00  0.00    +0.000 A 
ATOM     16  O   UNL     1       1.403   6.211  20.938  0.00  0.00    +0.000 OA
ENDBRANCH   5   7
BRANCH   1  17
ATOM     17  C   UNL     1       0.226  12.015  19.624  0.00  0.00    +0.000 C 
BRANCH  17  21
ATOM     18  O   UNL     1      -4.648  12.261  19.355  0.00  0.00    +0.000 OA
ATOM     19  C   UNL     1      -3.574  11.988  18.836  0.00  0.00    +0.000 A 
ATOM     20  C   UNL     1      -2.263  12.218  19.500  0.00  0.00    +0.000 A 
ATOM     21  C   UNL     1      -1.114  11.839  18.903  0.00  0.00    +0.000 A 
ATOM     22  N   UNL     1      -1.119  11.294  17.622  0.00  0.00    +0.000 N 
ATOM     23  C   UNL     1      -2.277  11.072  16.955  0.00  0.00    +0.000 A 
ATOM     24  C   UNL     1      -2.587  10.547  15.727  0.00  0.00    +0.000 A 
ATOM     25  C   UNL     1      -3.996  10.605  15.668  0.00  0.00    +0.000 A 
ATOM     26  N   UNL     1      -4.542  11.124  16.773  0.00  0.00    +0.000 NA
ATOM     27  N   UNL     1      -3.471  11.412  17.560  0.00  0.00    +0.000 N 
ATOM     28  H   UNL     1      -0.216  11.026  17.235  0.00  0.00    +0.000 HD
ENDBRANCH  17  21
ENDBRANCH   1  17
TORSDOF 3
ENDMDL
MODEL 5
REMARK VINA RESULT:      -8.1      1.853      2.591
REMARK  Name = 
REMARK  3 active torsions:
REMARK  status: ('A' for Active; 'I' for Inactive)
REMARK    1  A    between atoms: C_4  and  C_5
REMARK    2  A    between atoms: C_5  and  N_6
REMARK    3  A    between atoms: C_10  and  C_11
REMARK                            x       y       z     vdW  Elec       q    Type
REMARK                         _______ _______ _______ _____ _____    ______ ____
ROOT
ATOM      1  N   UNL     1       3.127   3.022  19.063  0.00  0.00    +0.000 NA
ATOM      2  C   UNL     1       3.566   2.531  20.377  0.00  0.00    +0.000 C 
ATOM      3  C   UNL     1       2.522   2.757  21.467  0.00  0.00    +0.000 C 
ATOM      4  C   UNL     1       2.152   4.230  21.562  0.00  0.00    +0.000 C 
ATOM      5  C   UNL     1       1.671   4.758  20.206  0.00  0.00    +0.000 C 
ATOM      6  C   UNL     1       2.693   4.428  19.097  0.00  0.00    +0.000 C 
ENDROOT
BRANCH   5   7
ATOM      7  C   UNL     1       1.501   6.241  20.275  0.00  0.00    +0.000 A 
ATOM      8  N   UNL     1       1.116   6.953  21.318  0.00  0.00    +0.000 NA
ATOM      9  C   UNL     1       1.128   8.239  20.858  0.00  0.00    +0.000 A 
ATOM     10  C   UNL     1       0.808   9.440  21.501  0.00  0.00    +0.000 A 
ATOM     11  C   UNL     1       0.920  10.625  20.764  0.00  0.00    +0.000 A 
ATOM     12  C   UNL     1       1.339  10.598  19.431  0.00  0.00    +0.000 A 
ATOM     13  F   UNL     1       1.433  11.756  18.764  0.00  0.00    +0.000 F 
ATOM     14  C   UNL     1       1.664   9.413  18.768  0.00  0.00    +0.000 A 
ATOM     15  C   UNL     1       1.538   8.261  19.532  0.00  0.00    +0.000 A 
ATOM     16  O   UNL     1       1.782   6.971  19.149  0.00  0.00    +0.000 OA
ENDBRANCH   5   7
BRANCH   1  17
ATOM     17  C   UNL     1       4.144   2.774  18.018  0.00  0.00    +0.000 C 
BRANCH  17  21
ATOM     18  O   UNL     1       5.877   6.045  14.827  0.00  0.00    +0.000 OA
ATOM     19  C   UNL     1       5.859   5.581  15.960  0.00  0.00    +0.000 A 
ATOM     20  C   UNL     1       4.957   4.474  16.374  0.00  0.00    +0.000 A 
ATOM     21  C   UNL     1       5.026   3.961  17.621  0.00  0.00    +0.000 A 
ATOM     22  N   UNL     1       5.887   4.504  18.571  0.00  0.00    +0.000 N 
ATOM     23  C   UNL     1       6.724   5.524  18.264  0.00  0.00    +0.000 A 
ATOM     24  C   UNL     1       7.668   6.229  18.963  0.00  0.00    +0.000 A 
ATOM     25  C   UNL     1       8.175   7.157  18.028  0.00  0.00    +0.000 A 
ATOM     26  N   UNL     1       7.601   7.050  16.825  0.00  0.00    +0.000 NA
ATOM     27  N   UNL     1       6.703   6.040  16.982  0.00  0.00    +0.000 N 
ATOM     28  H   UNL     1       5.891   4.064  19.489  0.00  0.00    +0.000 HD
ENDBRANCH  17  21
ENDBRANCH   1  17
TORSDOF 3
ENDMDL
MODEL 6
REMARK VINA RESULT:      -8.0      4.268      8.932
REMARK  Name = 
REMARK  3 active torsions:
REMARK  status: ('A' for Active; 'I' for Inactive)
REMARK    1  A    between atoms: C_4  and  C_5
REMARK    2  A    between atoms: C_5  and  N_6
REMARK    3  A    between atoms: C_10  and  C_11
REMARK                            x       y       z     vdW  Elec       q    Type
REMARK                         _______ _______ _______ _____ _____    ______ ____
ROOT
ATOM      1  N   UNL     1       0.438  11.079  20.772  0.00  0.00    +0.000 NA
ATOM      2  C   UNL     1      -0.723  10.805  21.630  0.00  0.00    +0.000 C 
ATOM      3  C   UNL     1      -0.417   9.791  22.729  0.00  0.00    +0.000 C 
ATOM      4  C   UNL     1       0.103   8.491  22.132  0.00  0.00    +0.000 C 
ATOM      5  C   UNL     1       1.330   8.751  21.249  0.00  0.00    +0.000 C 
ATOM      6  C   UNL     1       1.031   9.855  20.211  0.00  0.00    +0.000 C 
ENDROOT
BRANCH   5   7
ATOM      7  C   UNL     1       1.702   7.499  20.524  0.00  0.00    +0.000 A 
ATOM      8  N   UNL     1       1.439   6.257  20.887  0.00  0.00    +0.000 NA
ATOM      9  C   UNL     1       1.986   5.502  19.890  0.00  0.00    +0.000 A 
ATOM     10  C   UNL     1       2.035   4.113  19.720  0.00  0.00    +0.000 A 
ATOM     11  C   UNL     1       2.672   3.618  18.576  0.00  0.00    +0.000 A 
ATOM     12  C   UNL     1       3.235   4.490  17.640  0.00  0.00    +0.000 A 
ATOM     13  F   UNL     1       3.833   3.971  16.559  0.00  0.00    +0.000 F 
ATOM     14  C   UNL     1       3.199   5.878  17.788  0.00  0.00    +0.000 A 
ATOM     15  C   UNL     1       2.562   6.328  18.935  0.00  0.00    +0.000 A 
ATOM     16  O   UNL     1       2.380   7.622  19.339  0.00  0.00    +0.000 OA
ENDBRANCH   5   7
BRANCH   1  17
ATOM     17  C   UNL     1       0.125  12.079  19.729  0.00  0.00    +0.000 C 
BRANCH  17  21
ATOM     18  O   UNL     1      -4.734  12.358  19.281  0.00  0.00    +0.000 OA
ATOM     19  C   UNL     1      -3.645  12.059  18.808  0.00  0.00    +0.000 A 
ATOM     20  C   UNL     1      -2.356  12.299  19.511  0.00  0.00    +0.000 A 
ATOM     21  C   UNL     1      -1.190  11.891  18.968  0.00  0.00    +0.000 A 
ATOM     22  N   UNL     1      -1.156  11.305  17.705  0.00  0.00    +0.000 N 
ATOM     23  C   UNL     1      -2.291  11.072  17.005  0.00  0.00    +0.000 A 
ATOM     24  C   UNL     1      -2.563  10.510  15.784  0.00  0.00    +0.000 A 
ATOM     25  C   UNL     1      -3.969  10.579  15.673  0.00  0.00    +0.000 A 
ATOM     26  N   UNL     1      -4.549  11.138  16.741  0.00  0.00    +0.000 NA
ATOM     27  N   UNL     1      -3.503  11.442  17.556  0.00  0.00    +0.000 N 
ATOM     28  H   UNL     1      -0.242  11.018  17.359  0.00  0.00    +0.000 HD
ENDBRANCH  17  21
ENDBRANCH   1  17
TORSDOF 3
ENDMDL
MODEL 7
REMARK VINA RESULT:      -8.0      4.330      9.156
REMARK  Name = 
REMARK  3 active torsions:
REMARK  status: ('A' for Active; 'I' for Inactive)
REMARK    1  A    between atoms: C_4  and  C_5
REMARK    2  A    between atoms: C_5  and  N_6
REMARK    3  A    between atoms: C_10  and  C_11
REMARK                            x       y       z     vdW  Elec       q    Type
REMARK                         _______ _______ _______ _____ _____    ______ ____
ROOT
ATOM      1  N   UNL     1       0.566  10.578  20.171  0.00  0.00    +0.000 NA
ATOM      2  C   UNL     1      -0.472  10.307  21.175  0.00  0.00    +0.000 C 
ATOM      3  C   UNL     1       0.011   9.375  22.284  0.00  0.00    +0.000 C 
ATOM      4  C   UNL     1       0.524   8.066  21.702  0.00  0.00    +0.000 C 
ATOM      5  C   UNL     1       1.624   8.326  20.667  0.00  0.00    +0.000 C 
ATOM      6  C   UNL     1       1.152   9.350  19.613  0.00  0.00    +0.000 C 
ENDROOT
BRANCH   5   7
ATOM      7  C   UNL     1       1.973   7.049  19.973  0.00  0.00    +0.000 A 
ATOM      8  N   UNL     1       2.583   6.912  18.810  0.00  0.00    +0.000 NA
ATOM      9  C   UNL     1       2.659   5.560  18.638  0.00  0.00    +0.000 A 
ATOM     10  C   UNL     1       3.196   4.803  17.589  0.00  0.00    +0.000 A 
ATOM     11  C   UNL     1       3.133   3.408  17.693  0.00  0.00    +0.000 A 
ATOM     12  C   UNL     1       2.553   2.802  18.811  0.00  0.00    +0.000 A 
ATOM     13  F   UNL     1       2.517   1.464  18.868  0.00  0.00    +0.000 F 
ATOM     14  C   UNL     1       2.013   3.535  19.869  0.00  0.00    +0.000 A 
ATOM     15  C   UNL     1       2.092   4.914  19.727  0.00  0.00    +0.000 A 
ATOM     16  O   UNL     1       1.646   5.872  20.595  0.00  0.00    +0.000 OA
ENDBRANCH   5   7
BRANCH   1  17
ATOM     17  C   UNL     1       0.084  11.499  19.119  0.00  0.00    +0.000 C 
BRANCH  17  21
ATOM     18  O   UNL     1      -3.216   9.594  16.059  0.00  0.00    +0.000 OA
ATOM     19  C   UNL     1      -2.956  10.286  17.034  0.00  0.00    +0.000 A 
ATOM     20  C   UNL     1      -1.580  10.453  17.574  0.00  0.00    +0.000 A 
ATOM     21  C   UNL     1      -1.345  11.279  18.615  0.00  0.00    +0.000 A 
ATOM     22  N   UNL     1      -2.392  11.936  19.257  0.00  0.00    +0.000 N 
ATOM     23  C   UNL     1      -3.670  11.815  18.826  0.00  0.00    +0.000 A 
ATOM     24  C   UNL     1      -4.869  12.340  19.232  0.00  0.00    +0.000 A 
ATOM     25  C   UNL     1      -5.811  11.799  18.331  0.00  0.00    +0.000 A 
ATOM     26  N   UNL     1      -5.256  10.994  17.419  0.00  0.00    +0.000 NA
ATOM     27  N   UNL     1      -3.933  11.008  17.736  0.00  0.00    +0.000 N 
ATOM     28  H   UNL     1      -2.141  12.547  20.032  0.00  0.00    +0.000 HD
ENDBRANCH  17  21
ENDBRANCH   1  17
TORSDOF 3
ENDMDL
MODEL 8
REMARK VINA RESULT:      -7.9      1.465      2.113
REMARK  Name = 
REMARK  3 active torsions:
REMARK  status: ('A' for Active; 'I' for Inactive)
REMARK    1  A    between atoms: C_4  and  C_5
REMARK    2  A    between atoms: C_5  and  N_6
REMARK    3  A    between atoms: C_10  and  C_11
REMARK                            x       y       z     vdW  Elec       q    Type
REMARK                         _______ _______ _______ _____ _____    ______ ____
ROOT
ATOM      1  N   UNL     1       3.170   3.022  19.053  0.00  0.00    +0.000 NA
ATOM      2  C   UNL     1       3.592   2.527  20.371  0.00  0.00    +0.000 C 
ATOM      3  C   UNL     1       2.530   2.739  21.446  0.00  0.00    +0.000 C 
ATOM      4  C   UNL     1       2.146   4.208  21.543  0.00  0.00    +0.000 C 
ATOM      5  C   UNL     1       1.682   4.739  20.182  0.00  0.00    +0.000 C 
ATOM      6  C   UNL     1       2.724   4.423  19.087  0.00  0.00    +0.000 C 
ENDROOT
BRANCH   5   7
ATOM      7  C   UNL     1       1.498   6.220  20.256  0.00  0.00    +0.000 A 
ATOM      8  N   UNL     1       1.819   7.112  19.337  0.00  0.00    +0.000 NA
ATOM      9  C   UNL     1       1.446   8.302  19.893  0.00  0.00    +0.000 A 
ATOM     10  C   UNL     1       1.541   9.609  19.398  0.00  0.00    +0.000 A 
ATOM     11  C   UNL     1       1.063  10.649  20.205  0.00  0.00    +0.000 A 
ATOM     12  C   UNL     1       0.512  10.379  21.461  0.00  0.00    +0.000 A 
ATOM     13  F   UNL     1       0.066  11.405  22.199  0.00  0.00    +0.000 F 
ATOM     14  C   UNL     1       0.406   9.085  21.975  0.00  0.00    +0.000 A 
ATOM     15  C   UNL     1       0.892   8.084  21.146  0.00  0.00    +0.000 A 
ATOM     16  O   UNL     1       0.922   6.738  21.387  0.00  0.00    +0.000 OA
ENDBRANCH   5   7
BRANCH   1  17
ATOM     17  C   UNL     1       4.205   2.787  18.023  0.00  0.00    +0.000 C 
BRANCH  17  21
ATOM     18  O   UNL     1       5.843   6.127  14.853  0.00  0.00    +0.000 OA
ATOM     19  C   UNL     1       5.852   5.645  15.978  0.00  0.00    +0.000 A 
ATOM     20  C   UNL     1       4.970   4.521  16.392  0.00  0.00    +0.000 A 
ATOM     21  C   UNL     1       5.068   3.989  17.628  0.00  0.00    +0.000 A 
ATOM     22  N   UNL     1       5.941   4.525  18.571  0.00  0.00    +0.000 N 
ATOM     23  C   UNL     1       6.762   5.559  18.264  0.00  0.00    +0.000 A 
ATOM     24  C   UNL     1       7.712   6.263  18.957  0.00  0.00    +0.000 A 
ATOM     25  C   UNL     1       8.191   7.211  18.027  0.00  0.00    +0.000 A 
ATOM     26  N   UNL     1       7.595   7.117  16.833  0.00  0.00    +0.000 NA
ATOM     27  N   UNL     1       6.711   6.095  16.992  0.00  0.00    +0.000 N 
ATOM     28  H   UNL     1       5.967   4.071  19.481  0.00  0.00    +0.000 HD
ENDBRANCH  17  21
ENDBRANCH   1  17
TORSDOF 3
ENDMDL
MODEL 9
REMARK VINA RESULT:      -7.9      3.712      5.662
REMARK  Name = 
REMARK  3 active torsions:
REMARK  status: ('A' for Active; 'I' for Inactive)
REMARK    1  A    between atoms: C_4  and  C_5
REMARK    2  A    between atoms: C_5  and  N_6
REMARK    3  A    between atoms: C_10  and  C_11
REMARK                            x       y       z     vdW  Elec       q    Type
REMARK                         _______ _______ _______ _____ _____    ______ ____
ROOT
ATOM      1  N   UNL     1       1.863   8.348  18.579  0.00  0.00    +0.000 NA
ATOM      2  C   UNL     1       1.894   8.035  20.015  0.00  0.00    +0.000 C 
ATOM      3  C   UNL     1       0.779   8.728  20.792  0.00  0.00    +0.000 C 
ATOM      4  C   UNL     1       0.837  10.235  20.590  0.00  0.00    +0.000 C 
ATOM      5  C   UNL     1       0.784  10.585  19.098  0.00  0.00    +0.000 C 
ATOM      6  C   UNL     1       1.852   9.795  18.313  0.00  0.00    +0.000 C 
ENDROOT
BRANCH   5   7
ATOM      7  C   UNL     1       1.038  12.047  18.916  0.00  0.00    +0.000 A 
ATOM      8  N   UNL     1       0.204  13.039  19.164  0.00  0.00    +0.000 NA
ATOM      9  C   UNL     1       0.919  14.156  18.835  0.00  0.00    +0.000 A 
ATOM     10  C   UNL     1       0.565  15.510  18.878  0.00  0.00    +0.000 A 
ATOM     11  C   UNL     1       1.524  16.448  18.476  0.00  0.00    +0.000 A 
ATOM     12  C   UNL     1       2.789  16.035  18.048  0.00  0.00    +0.000 A 
ATOM     13  F   UNL     1       3.675  16.967  17.674  0.00  0.00    +0.000 F 
ATOM     14  C   UNL     1       3.164  14.691  17.998  0.00  0.00    +0.000 A 
ATOM     15  C   UNL     1       2.186  13.793  18.402  0.00  0.00    +0.000 A 
ATOM     16  O   UNL     1       2.270  12.429  18.452  0.00  0.00    +0.000 OA
ENDBRANCH   5   7
BRANCH   1  17
ATOM     17  C   UNL     1       2.938   7.649  17.842  0.00  0.00    +0.000 C 
BRANCH  17  21
ATOM     18  O   UNL     1       5.778   3.950  19.303  0.00  0.00    +0.000 OA
ATOM     19  C   UNL     1       4.680   4.366  18.956  0.00  0.00    +0.000 A 
ATOM     20  C   UNL     1       4.406   5.796  18.655  0.00  0.00    +0.000 A 
ATOM     21  C   UNL     1       3.191   6.186  18.217  0.00  0.00    +0.000 A 
ATOM     22  N   UNL     1       2.143   5.276  18.109  0.00  0.00    +0.000 N 
ATOM     23  C   UNL     1       2.320   3.961  18.383  0.00  0.00    +0.000 A 
ATOM     24  C   UNL     1       1.505   2.859  18.348  0.00  0.00    +0.000 A 
ATOM     25  C   UNL     1       2.340   1.795  18.753  0.00  0.00    +0.000 A 
ATOM     26  N   UNL     1       3.590   2.187  19.022  0.00  0.00    +0.000 NA
ATOM     27  N   UNL     1       3.566   3.527  18.793  0.00  0.00    +0.000 N 
ATOM     28  H   UNL     1       1.255   5.638  17.768  0.00  0.00    +0.000 HD
ENDBRANCH  17  21
ENDBRANCH   1  17
TORSDOF 3
ENDMDL
