MODEL 1
REMARK VINA RESULT:      -8.8      0.000      0.000
REMARK  Name = 
REMARK  4 active torsions:
REMARK  status: ('A' for Active; 'I' for Inactive)
REMARK    1  A    between atoms: C_2  and  C_15
REMARK    2  A    between atoms: N_3  and  C_4
REMARK    3  A    between atoms: C_19  and  S_20
REMARK    4  A    between atoms: S_20  and  N_23
REMARK                            x       y       z     vdW  Elec       q    Type
REMARK                         _______ _______ _______ _____ _____    ______ ____
ROOT
ATOM      1  O   UNL     1       2.560   8.435  17.140  0.00  0.00    +0.000 OA
ATOM      2  C   UNL     1       2.285   7.867  18.197  0.00  0.00    +0.000 C 
ATOM      3  N   UNL     1       2.557   6.544  18.459  0.00  0.00    +0.000 N 
ATOM      4  H   UNL     1       2.269   6.134  19.336  0.00  0.00    +0.000 HD
ENDROOT
BRANCH   3   5
ATOM      5  C   UNL     1       3.377   5.741  17.549  0.00  0.00    +0.000 C 
ATOM      6  C   UNL     1       2.954   4.268  17.472  0.00  0.00    +0.000 C 
ATOM      7  C   UNL     1       3.053   3.604  18.830  0.00  0.00    +0.000 C 
ATOM      8  S   UNL     1       4.780   3.431  19.354  0.00  0.00    +0.000 S 
ATOM      9  C   UNL     1       5.514   4.933  18.717  0.00  0.00    +0.000 A 
ATOM     10  C   UNL     1       6.871   5.125  19.029  0.00  0.00    +0.000 A 
ATOM     11  C   UNL     1       7.570   6.226  18.537  0.00  0.00    +0.000 A 
ATOM     12  C   UNL     1       6.915   7.135  17.723  0.00  0.00    +0.000 A 
ATOM     13  F   UNL     1       7.588   8.179  17.225  0.00  0.00    +0.000 F 
ATOM     14  C   UNL     1       5.567   6.976  17.414  0.00  0.00    +0.000 A 
ATOM     15  C   UNL     1       4.845   5.871  17.908  0.00  0.00    +0.000 A 
ENDBRANCH   3   5
BRANCH   2  16
ATOM     16  C   UNL     1       1.700   8.691  19.274  0.00  0.00    +0.000 A 
ATOM     17  C   UNL     1       1.552   8.126  20.548  0.00  0.00    +0.000 A 
ATOM     18  C   UNL     1       0.714   8.730  21.489  0.00  0.00    +0.000 A 
ATOM     19  C   UNL     1      -0.024   9.858  21.133  0.00  0.00    +0.000 A 
ATOM     20  C   UNL     1       0.098  10.387  19.840  0.00  0.00    +0.000 A 
ATOM     21  C   UNL     1       1.028   9.863  18.934  0.00  0.00    +0.000 A 
BRANCH  20  22
ATOM     22  S   UNL     1      -1.027  11.646  19.272  0.00  0.00    +0.000 S 
ATOM     23  O   UNL     1      -1.624  12.235  20.454  0.00  0.00    +0.000 OA
ATOM     24  O   UNL     1      -0.309  12.453  18.302  0.00  0.00    +0.000 OA
BRANCH  22  25
ATOM     25  N   UNL     1      -2.213  10.784  18.436  0.00  0.00    +0.000 NA
ATOM     26  C   UNL     1      -1.867  10.019  17.225  0.00  0.00    +0.000 C 
ATOM     27  C   UNL     1      -2.611  10.727  16.110  0.00  0.00    +0.000 C 
ATOM     28  C   UNL     1      -3.886  11.221  16.769  0.00  0.00    +0.000 C 
ATOM     29  C   UNL     1      -3.555  11.369  18.255  0.00  0.00    +0.000 C 
ENDBRANCH  22  25
ENDBRANCH  20  22
ENDBRANCH   2  16
TORSDOF 4
ENDMDL
MODEL 2
REMARK VINA RESULT:      -8.6      3.184      8.541
REMARK  Name = 
REMARK  4 active torsions:
REMARK  status: ('A' for Active; 'I' for Inactive)
REMARK    1  A    between atoms: C_2  and  C_15
REMARK    2  A    between atoms: N_3  and  C_4
REMARK    3  A    between atoms: C_19  and  S_20
REMARK    4  A    between atoms: S_20  and  N_23
REMARK                            x       y       z     vdW  Elec       q    Type
REMARK                         _______ _______ _______ _____ _____    ______ ____
ROOT
ATOM      1  O   UNL     1       2.642   8.896  17.441  0.00  0.00    +0.000 OA
ATOM      2  C   UNL     1       2.015   8.594  18.455  0.00  0.00    +0.000 C 
ATOM      3  N   UNL     1       1.109   9.418  19.080  0.00  0.00    +0.000 N 
ATOM      4  H   UNL     1       0.657   9.117  19.933  0.00  0.00    +0.000 HD
ENDROOT
BRANCH   3   5
ATOM      5  C   UNL     1       0.677  10.677  18.469  0.00  0.00    +0.000 C 
ATOM      6  C   UNL     1       1.147  11.926  19.225  0.00  0.00    +0.000 C 
ATOM      7  C   UNL     1       0.609  11.937  20.641  0.00  0.00    +0.000 C 
ATOM      8  S   UNL     1      -1.187  12.186  20.662  0.00  0.00    +0.000 S 
ATOM      9  C   UNL     1      -1.705  11.282  19.208  0.00  0.00    +0.000 A 
ATOM     10  C   UNL     1      -3.091  11.233  18.986  0.00  0.00    +0.000 A 
ATOM     11  C   UNL     1      -3.613  10.612  17.852  0.00  0.00    +0.000 A 
ATOM     12  C   UNL     1      -2.748  10.043  16.933  0.00  0.00    +0.000 A 
ATOM     13  F   UNL     1      -3.242   9.469  15.829  0.00  0.00    +0.000 F 
ATOM     14  C   UNL     1      -1.372  10.063  17.139  0.00  0.00    +0.000 A 
ATOM     15  C   UNL     1      -0.828  10.683  18.283  0.00  0.00    +0.000 A 
ENDBRANCH   3   5
BRANCH   2  16
ATOM     16  C   UNL     1       2.196   7.224  18.977  0.00  0.00    +0.000 A 
ATOM     17  C   UNL     1       1.521   6.857  20.149  0.00  0.00    +0.000 A 
ATOM     18  C   UNL     1       1.913   5.716  20.856  0.00  0.00    +0.000 A 
ATOM     19  C   UNL     1       3.018   4.984  20.425  0.00  0.00    +0.000 A 
ATOM     20  C   UNL     1       3.714   5.388  19.277  0.00  0.00    +0.000 A 
ATOM     21  C   UNL     1       3.253   6.454  18.496  0.00  0.00    +0.000 A 
BRANCH  20  22
ATOM     22  S   UNL     1       5.280   4.646  18.864  0.00  0.00    +0.000 S 
ATOM     23  O   UNL     1       6.283   5.316  19.667  0.00  0.00    +0.000 OA
ATOM     24  O   UNL     1       5.098   3.207  18.923  0.00  0.00    +0.000 OA
BRANCH  22  25
ATOM     25  N   UNL     1       5.513   5.062  17.245  0.00  0.00    +0.000 NA
ATOM     26  C   UNL     1       4.930   4.239  16.170  0.00  0.00    +0.000 C 
ATOM     27  C   UNL     1       6.131   3.658  15.451  0.00  0.00    +0.000 C 
ATOM     28  C   UNL     1       7.186   4.746  15.551  0.00  0.00    +0.000 C 
ATOM     29  C   UNL     1       6.828   5.558  16.797  0.00  0.00    +0.000 C 
ENDBRANCH  22  25
ENDBRANCH  20  22
ENDBRANCH   2  16
TORSDOF 4
ENDMDL
MODEL 3
REMARK VINA RESULT:      -8.4      1.895      2.571
REMARK  Name = 
REMARK  4 active torsions:
REMARK  status: ('A' for Active; 'I' for Inactive)
REMARK    1  A    between atoms: C_2  and  C_15
REMARK    2  A    between atoms: N_3  and  C_4
REMARK    3  A    between atoms: C_19  and  S_20
REMARK    4  A    between atoms: S_20  and  N_23
REMARK                            x       y       z     vdW  Elec       q    Type
REMARK                         _______ _______ _______ _____ _____    ______ ____
ROOT
ATOM      1  O   UNL     1       2.386   8.447  17.253  0.00  0.00    +0.000 OA
ATOM      2  C   UNL     1       2.226   7.884  18.335  0.00  0.00    +0.000 C 
ATOM      3  N   UNL     1       2.563   6.573  18.583  0.00  0.00    +0.000 N 
ATOM      4  H   UNL     1       2.368   6.165  19.487  0.00  0.00    +0.000 HD
ENDROOT
BRANCH   3   5
ATOM      5  C   UNL     1       3.323   5.785  17.610  0.00  0.00    +0.000 C 
ATOM      6  C   UNL     1       2.862   4.325  17.502  0.00  0.00    +0.000 C 
ATOM      7  C   UNL     1       3.006   3.611  18.830  0.00  0.00    +0.000 C 
ATOM      8  S   UNL     1       4.750   3.383  19.269  0.00  0.00    +0.000 S 
ATOM      9  C   UNL     1       5.490   4.890  18.652  0.00  0.00    +0.000 A 
ATOM     10  C   UNL     1       6.863   5.041  18.909  0.00  0.00    +0.000 A 
ATOM     11  C   UNL     1       7.565   6.144  18.424  0.00  0.00    +0.000 A 
ATOM     12  C   UNL     1       6.896   7.095  17.673  0.00  0.00    +0.000 A 
ATOM     13  F   UNL     1       7.570   8.142  17.181  0.00  0.00    +0.000 F 
ATOM     14  C   UNL     1       5.533   6.977  17.419  0.00  0.00    +0.000 A 
ATOM     15  C   UNL     1       4.807   5.871  17.907  0.00  0.00    +0.000 A 
ENDBRANCH   3   5
BRANCH   2  16
ATOM     16  C   UNL     1       1.714   8.701  19.453  0.00  0.00    +0.000 A 
ATOM     17  C   UNL     1       1.517   8.090  20.699  0.00  0.00    +0.000 A 
ATOM     18  C   UNL     1       0.734   8.717  21.672  0.00  0.00    +0.000 A 
ATOM     19  C   UNL     1       0.098   9.922  21.374  0.00  0.00    +0.000 A 
ATOM     20  C   UNL     1       0.265  10.501  20.108  0.00  0.00    +0.000 A 
ATOM     21  C   UNL     1       1.145   9.942  19.174  0.00  0.00    +0.000 A 
BRANCH  20  22
ATOM     22  S   UNL     1      -0.747  11.878  19.607  0.00  0.00    +0.000 S 
ATOM     23  O   UNL     1      -1.091  11.658  18.216  0.00  0.00    +0.000 OA
ATOM     24  O   UNL     1      -1.769  12.048  20.624  0.00  0.00    +0.000 OA
BRANCH  22  25
ATOM     25  N   UNL     1       0.293  13.204  19.705  0.00  0.00    +0.000 NA
ATOM     26  C   UNL     1       1.016  13.678  18.511  0.00  0.00    +0.000 C 
ATOM     27  C   UNL     1       2.475  13.417  18.828  0.00  0.00    +0.000 C 
ATOM     28  C   UNL     1       2.573  13.632  20.328  0.00  0.00    +0.000 C 
ATOM     29  C   UNL     1       1.172  13.361  20.879  0.00  0.00    +0.000 C 
ENDBRANCH  22  25
ENDBRANCH  20  22
ENDBRANCH   2  16
TORSDOF 4
ENDMDL
MODEL 4
REMARK VINA RESULT:      -8.4      3.090      8.328
REMARK  Name = 
REMARK  4 active torsions:
REMARK  status: ('A' for Active; 'I' for Inactive)
REMARK    1  A    between atoms: C_2  and  C_15
REMARK    2  A    between atoms: N_3  and  C_4
REMARK    3  A    between atoms: C_19  and  S_20
REMARK    4  A    between atoms: S_20  and  N_23
REMARK                            x       y       z     vdW  Elec       q    Type
REMARK                         _______ _______ _______ _____ _____    ______ ____
ROOT
ATOM      1  O   UNL     1       2.705   8.264  17.588  0.00  0.00    +0.000 OA
ATOM      2  C   UNL     1       1.962   8.059  18.546  0.00  0.00    +0.000 C 
ATOM      3  N   UNL     1       1.095   8.991  19.068  0.00  0.00    +0.000 N 
ATOM      4  H   UNL     1       0.540   8.764  19.882  0.00  0.00    +0.000 HD
ENDROOT
BRANCH   3   5
ATOM      5  C   UNL     1       0.853  10.268  18.392  0.00  0.00    +0.000 C 
ATOM      6  C   UNL     1       1.543  11.463  19.062  0.00  0.00    +0.000 C 
ATOM      7  C   UNL     1       1.060  11.640  20.486  0.00  0.00    +0.000 C 
ATOM      8  S   UNL     1      -0.669  12.181  20.533  0.00  0.00    +0.000 S 
ATOM      9  C   UNL     1      -1.374  11.294  19.148  0.00  0.00    +0.000 A 
ATOM     10  C   UNL     1      -2.757  11.461  18.961  0.00  0.00    +0.000 A 
ATOM     11  C   UNL     1      -3.409  10.871  17.879  0.00  0.00    +0.000 A 
ATOM     12  C   UNL     1      -2.677  10.118  16.976  0.00  0.00    +0.000 A 
ATOM     13  F   UNL     1      -3.293   9.573  15.920  0.00  0.00    +0.000 F 
ATOM     14  C   UNL     1      -1.310   9.925  17.148  0.00  0.00    +0.000 A 
ATOM     15  C   UNL     1      -0.637  10.509  18.241  0.00  0.00    +0.000 A 
ENDBRANCH   3   5
BRANCH   2  16
ATOM     16  C   UNL     1       1.951   6.695  19.112  0.00  0.00    +0.000 A 
ATOM     17  C   UNL     1       1.979   6.545  20.506  0.00  0.00    +0.000 A 
ATOM     18  C   UNL     1       2.307   5.309  21.071  0.00  0.00    +0.000 A 
ATOM     19  C   UNL     1       2.668   4.246  20.244  0.00  0.00    +0.000 A 
ATOM     20  C   UNL     1       2.681   4.422  18.853  0.00  0.00    +0.000 A 
ATOM     21  C   UNL     1       2.235   5.617  18.276  0.00  0.00    +0.000 A 
BRANCH  20  22
ATOM     22  S   UNL     1       3.399   3.182  17.795  0.00  0.00    +0.000 S 
ATOM     23  O   UNL     1       3.688   2.036  18.633  0.00  0.00    +0.000 OA
ATOM     24  O   UNL     1       2.544   3.072  16.626  0.00  0.00    +0.000 OA
BRANCH  22  25
ATOM     25  N   UNL     1       4.857   3.870  17.294  0.00  0.00    +0.000 NA
ATOM     26  C   UNL     1       5.728   4.562  18.261  0.00  0.00    +0.000 C 
ATOM     27  C   UNL     1       5.715   6.009  17.808  0.00  0.00    +0.000 C 
ATOM     28  C   UNL     1       5.603   5.924  16.297  0.00  0.00    +0.000 C 
ATOM     29  C   UNL     1       4.927   4.583  16.005  0.00  0.00    +0.000 C 
ENDBRANCH  22  25
ENDBRANCH  20  22
ENDBRANCH   2  16
TORSDOF 4
ENDMDL
MODEL 5
REMARK VINA RESULT:      -8.3      2.884      3.789
REMARK  Name = 
REMARK  4 active torsions:
REMARK  status: ('A' for Active; 'I' for Inactive)
REMARK    1  A    between atoms: C_2  and  C_15
REMARK    2  A    between atoms: N_3  and  C_4
REMARK    3  A    between atoms: C_19  and  S_20
REMARK    4  A    between atoms: S_20  and  N_23
REMARK                            x       y       z     vdW  Elec       q    Type
REMARK                         _______ _______ _______ _____ _____    ______ ____
ROOT
ATOM      1  O   UNL     1       2.614   5.575  20.014  0.00  0.00    +0.000 OA
ATOM      2  C   UNL     1       2.875   6.341  19.087  0.00  0.00    +0.000 C 
ATOM      3  N   UNL     1       3.821   6.092  18.120  0.00  0.00    +0.000 N 
ATOM      4  H   UNL     1       4.010   6.785  17.408  0.00  0.00    +0.000 HD
ENDROOT
BRANCH   3   5
ATOM      5  C   UNL     1       4.475   4.785  18.013  0.00  0.00    +0.000 C 
ATOM      6  C   UNL     1       5.299   4.403  19.249  0.00  0.00    +0.000 C 
ATOM      7  C   UNL     1       6.404   5.409  19.497  0.00  0.00    +0.000 C 
ATOM      8  S   UNL     1       7.673   5.326  18.206  0.00  0.00    +0.000 S 
ATOM      9  C   UNL     1       6.699   4.977  16.747  0.00  0.00    +0.000 A 
ATOM     10  C   UNL     1       7.414   4.919  15.539  0.00  0.00    +0.000 A 
ATOM     11  C   UNL     1       6.775   4.592  14.344  0.00  0.00    +0.000 A 
ATOM     12  C   UNL     1       5.418   4.317  14.355  0.00  0.00    +0.000 A 
ATOM     13  F   UNL     1       4.804   3.976  13.216  0.00  0.00    +0.000 F 
ATOM     14  C   UNL     1       4.684   4.385  15.536  0.00  0.00    +0.000 A 
ATOM     15  C   UNL     1       5.315   4.719  16.752  0.00  0.00    +0.000 A 
ENDBRANCH   3   5
BRANCH   2  16
ATOM     16  C   UNL     1       2.057   7.565  18.971  0.00  0.00    +0.000 A 
ATOM     17  C   UNL     1       2.026   8.239  17.743  0.00  0.00    +0.000 A 
ATOM     18  C   UNL     1       1.555   9.553  17.676  0.00  0.00    +0.000 A 
ATOM     19  C   UNL     1       1.178  10.212  18.846  0.00  0.00    +0.000 A 
ATOM     20  C   UNL     1       1.258   9.542  20.075  0.00  0.00    +0.000 A 
ATOM     21  C   UNL     1       1.609   8.188  20.134  0.00  0.00    +0.000 A 
BRANCH  20  22
ATOM     22  S   UNL     1       1.052  10.435  21.603  0.00  0.00    +0.000 S 
ATOM     23  O   UNL     1       1.523   9.564  22.661  0.00  0.00    +0.000 OA
ATOM     24  O   UNL     1       1.614  11.758  21.401  0.00  0.00    +0.000 OA
BRANCH  22  25
ATOM     25  N   UNL     1      -0.621  10.610  21.749  0.00  0.00    +0.000 NA
ATOM     26  C   UNL     1      -1.351  11.557  20.887  0.00  0.00    +0.000 C 
ATOM     27  C   UNL     1      -1.876  12.607  21.845  0.00  0.00    +0.000 C 
ATOM     28  C   UNL     1      -2.167  11.835  23.120  0.00  0.00    +0.000 C 
ATOM     29  C   UNL     1      -1.244  10.616  23.086  0.00  0.00    +0.000 C 
ENDBRANCH  22  25
ENDBRANCH  20  22
ENDBRANCH   2  16
TORSDOF 4
ENDMDL
MODEL 6
REMARK VINA RESULT:      -8.2      3.261      8.497
REMARK  Name = 
REMARK  4 active torsions:
REMARK  status: ('A' for Active; 'I' for Inactive)
REMARK    1  A    between atoms: C_2  and  C_15
REMARK    2  A    between atoms: N_3  and  C_4
REMARK    3  A    between atoms: C_19  and  S_20
REMARK    4  A    between atoms: S_20  and  N_23
REMARK                            x       y       z     vdW  Elec       q    Type
REMARK                         _______ _______ _______ _____ _____    ______ ____
ROOT
ATOM      1  O   UNL     1       2.184   9.719  17.486  0.00  0.00    +0.000 OA
ATOM      2  C   UNL     1       1.509   9.364  18.452  0.00  0.00    +0.000 C 
ATOM      3  N   UNL     1       0.514  10.125  19.022  0.00  0.00    +0.000 N 
ATOM      4  H   UNL     1       0.025   9.786  19.839  0.00  0.00    +0.000 HD
ENDROOT
BRANCH   3   5
ATOM      5  C   UNL     1       0.050  11.365  18.396  0.00  0.00    +0.000 C 
ATOM      6  C   UNL     1       0.407  12.630  19.187  0.00  0.00    +0.000 C 
ATOM      7  C   UNL     1      -0.210  12.597  20.569  0.00  0.00    +0.000 C 
ATOM      8  S   UNL     1      -2.015  12.749  20.488  0.00  0.00    +0.000 S 
ATOM      9  C   UNL     1      -2.399  11.833  19.001  0.00  0.00    +0.000 A 
ATOM     10  C   UNL     1      -3.766  11.712  18.699  0.00  0.00    +0.000 A 
ATOM     11  C   UNL     1      -4.188  11.074  17.533  0.00  0.00    +0.000 A 
ATOM     12  C   UNL     1      -3.242  10.562  16.661  0.00  0.00    +0.000 A 
ATOM     13  F   UNL     1      -3.640   9.974  15.527  0.00  0.00    +0.000 F 
ATOM     14  C   UNL     1      -1.883  10.655  16.946  0.00  0.00    +0.000 A 
ATOM     15  C   UNL     1      -1.440  11.291  18.124  0.00  0.00    +0.000 A 
ENDBRANCH   3   5
BRANCH   2  16
ATOM     16  C   UNL     1       1.735   8.001  18.971  0.00  0.00    +0.000 A 
ATOM     17  C   UNL     1       1.358   7.711  20.289  0.00  0.00    +0.000 A 
ATOM     18  C   UNL     1       1.848   6.567  20.924  0.00  0.00    +0.000 A 
ATOM     19  C   UNL     1       2.765   5.750  20.262  0.00  0.00    +0.000 A 
ATOM     20  C   UNL     1       3.171   6.076  18.960  0.00  0.00    +0.000 A 
ATOM     21  C   UNL     1       2.590   7.149  18.274  0.00  0.00    +0.000 A 
BRANCH  20  22
ATOM     22  S   UNL     1       4.536   5.219  18.201  0.00  0.00    +0.000 S 
ATOM     23  O   UNL     1       4.771   5.860  16.923  0.00  0.00    +0.000 OA
ATOM     24  O   UNL     1       5.582   5.114  19.202  0.00  0.00    +0.000 OA
BRANCH  22  25
ATOM     25  N   UNL     1       3.938   3.665  17.926  0.00  0.00    +0.000 NA
ATOM     26  C   UNL     1       2.680   3.468  17.183  0.00  0.00    +0.000 C 
ATOM     27  C   UNL     1       1.730   2.879  18.206  0.00  0.00    +0.000 C 
ATOM     28  C   UNL     1       2.621   2.033  19.098  0.00  0.00    +0.000 C 
ATOM     29  C   UNL     1       4.017   2.649  18.992  0.00  0.00    +0.000 C 
ENDBRANCH  22  25
ENDBRANCH  20  22
ENDBRANCH   2  16
TORSDOF 4
ENDMDL
MODEL 7
REMARK VINA RESULT:      -8.0      3.484      8.521
REMARK  Name = 
REMARK  4 active torsions:
REMARK  status: ('A' for Active; 'I' for Inactive)
REMARK    1  A    between atoms: C_2  and  C_15
REMARK    2  A    between atoms: N_3  and  C_4
REMARK    3  A    between atoms: C_19  and  S_20
REMARK    4  A    between atoms: S_20  and  N_23
REMARK                            x       y       z     vdW  Elec       q    Type
REMARK                         _______ _______ _______ _____ _____    ______ ____
ROOT
ATOM      1  O   UNL     1       2.126   9.760  17.337  0.00  0.00    +0.000 OA
ATOM      2  C   UNL     1       1.722   9.516  18.473  0.00  0.00    +0.000 C 
ATOM      3  N   UNL     1       1.097  10.433  19.286  0.00  0.00    +0.000 N 
ATOM      4  H   UNL     1       0.825  10.173  20.224  0.00  0.00    +0.000 HD
ENDROOT
BRANCH   3   5
ATOM      5  C   UNL     1       0.691  11.747  18.781  0.00  0.00    +0.000 C 
ATOM      6  C   UNL     1       1.675  12.873  19.125  0.00  0.00    +0.000 C 
ATOM      7  C   UNL     1       1.824  13.024  20.624  0.00  0.00    +0.000 C 
ATOM      8  S   UNL     1       0.304  13.664  21.376  0.00  0.00    +0.000 S 
ATOM      9  C   UNL     1      -0.961  12.874  20.388  0.00  0.00    +0.000 A 
ATOM     10  C   UNL     1      -2.286  13.129  20.782  0.00  0.00    +0.000 A 
ATOM     11  C   UNL     1      -3.359  12.621  20.052  0.00  0.00    +0.000 A 
ATOM     12  C   UNL     1      -3.111  11.861  18.921  0.00  0.00    +0.000 A 
ATOM     13  F   UNL     1      -4.138  11.394  18.201  0.00  0.00    +0.000 F 
ATOM     14  C   UNL     1      -1.808  11.581  18.521  0.00  0.00    +0.000 A 
ATOM     15  C   UNL     1      -0.711  12.082  19.251  0.00  0.00    +0.000 A 
ENDBRANCH   3   5
BRANCH   2  16
ATOM     16  C   UNL     1       1.851   8.126  18.952  0.00  0.00    +0.000 A 
ATOM     17  C   UNL     1       1.425   7.819  20.252  0.00  0.00    +0.000 A 
ATOM     18  C   UNL     1       1.828   6.626  20.858  0.00  0.00    +0.000 A 
ATOM     19  C   UNL     1       2.706   5.775  20.189  0.00  0.00    +0.000 A 
ATOM     20  C   UNL     1       3.161   6.114  18.907  0.00  0.00    +0.000 A 
ATOM     21  C   UNL     1       2.666   7.243  18.245  0.00  0.00    +0.000 A 
BRANCH  20  22
ATOM     22  S   UNL     1       4.487   5.196  18.149  0.00  0.00    +0.000 S 
ATOM     23  O   UNL     1       4.751   5.825  16.871  0.00  0.00    +0.000 OA
ATOM     24  O   UNL     1       5.528   5.046  19.151  0.00  0.00    +0.000 OA
BRANCH  22  25
ATOM     25  N   UNL     1       3.820   3.670  17.877  0.00  0.00    +0.000 NA
ATOM     26  C   UNL     1       2.520   3.533  17.197  0.00  0.00    +0.000 C 
ATOM     27  C   UNL     1       1.603   2.956  18.258  0.00  0.00    +0.000 C 
ATOM     28  C   UNL     1       2.509   2.061  19.085  0.00  0.00    +0.000 C 
ATOM     29  C   UNL     1       3.919   2.630  18.918  0.00  0.00    +0.000 C 
ENDBRANCH  22  25
ENDBRANCH  20  22
ENDBRANCH   2  16
TORSDOF 4
ENDMDL
MODEL 8
REMARK VINA RESULT:      -8.0      1.667      2.259
REMARK  Name = 
REMARK  4 active torsions:
REMARK  status: ('A' for Active; 'I' for Inactive)
REMARK    1  A    between atoms: C_2  and  C_15
REMARK    2  A    between atoms: N_3  and  C_4
REMARK    3  A    between atoms: C_19  and  S_20
REMARK    4  A    between atoms: S_20  and  N_23
REMARK                            x       y       z     vdW  Elec       q    Type
REMARK                         _______ _______ _______ _____ _____    ______ ____
ROOT
ATOM      1  O   UNL     1       2.457   8.426  17.142  0.00  0.00    +0.000 OA
ATOM      2  C   UNL     1       2.258   7.880  18.227  0.00  0.00    +0.000 C 
ATOM      3  N   UNL     1       2.586   6.574  18.508  0.00  0.00    +0.000 N 
ATOM      4  H   UNL     1       2.357   6.180  19.411  0.00  0.00    +0.000 HD
ENDROOT
BRANCH   3   5
ATOM      5  C   UNL     1       3.381   5.770  17.577  0.00  0.00    +0.000 C 
ATOM      6  C   UNL     1       2.942   4.303  17.495  0.00  0.00    +0.000 C 
ATOM      7  C   UNL     1       3.061   3.626  18.845  0.00  0.00    +0.000 C 
ATOM      8  S   UNL     1       4.795   3.433  19.335  0.00  0.00    +0.000 S 
ATOM      9  C   UNL     1       5.531   4.933  18.698  0.00  0.00    +0.000 A 
ATOM     10  C   UNL     1       6.895   5.109  18.986  0.00  0.00    +0.000 A 
ATOM     11  C   UNL     1       7.595   6.208  18.490  0.00  0.00    +0.000 A 
ATOM     12  C   UNL     1       6.934   7.131  17.697  0.00  0.00    +0.000 A 
ATOM     13  F   UNL     1       7.608   8.173  17.195  0.00  0.00    +0.000 F 
ATOM     14  C   UNL     1       5.580   6.987  17.411  0.00  0.00    +0.000 A 
ATOM     15  C   UNL     1       4.856   5.884  17.910  0.00  0.00    +0.000 A 
ENDBRANCH   3   5
BRANCH   2  16
ATOM     16  C   UNL     1       1.705   8.715  19.312  0.00  0.00    +0.000 A 
ATOM     17  C   UNL     1       1.569   8.155  20.589  0.00  0.00    +0.000 A 
ATOM     18  C   UNL     1       0.758   8.774  21.543  0.00  0.00    +0.000 A 
ATOM     19  C   UNL     1       0.033   9.915  21.198  0.00  0.00    +0.000 A 
ATOM     20  C   UNL     1       0.142  10.439  19.902  0.00  0.00    +0.000 A 
ATOM     21  C   UNL     1       1.047   9.898  18.981  0.00  0.00    +0.000 A 
BRANCH  20  22
ATOM     22  S   UNL     1      -0.972  11.716  19.351  0.00  0.00    +0.000 S 
ATOM     23  O   UNL     1      -0.176  12.669  18.603  0.00  0.00    +0.000 OA
ATOM     24  O   UNL     1      -2.119  11.053  18.757  0.00  0.00    +0.000 OA
BRANCH  22  25
ATOM     25  N   UNL     1      -1.492  12.447  20.781  0.00  0.00    +0.000 NA
ATOM     26  C   UNL     1      -2.922  12.728  20.999  0.00  0.00    +0.000 C 
ATOM     27  C   UNL     1      -3.004  14.242  21.038  0.00  0.00    +0.000 C 
ATOM     28  C   UNL     1      -1.692  14.668  21.672  0.00  0.00    +0.000 C 
ATOM     29  C   UNL     1      -0.702  13.541  21.375  0.00  0.00    +0.000 C 
ENDBRANCH  22  25
ENDBRANCH  20  22
ENDBRANCH   2  16
TORSDOF 4
ENDMDL
MODEL 9
REMARK VINA RESULT:      -7.9      6.041      9.891
REMARK  Name = 
REMARK  4 active torsions:
REMARK  status: ('A' for Active; 'I' for Inactive)
REMARK    1  A    between atoms: C_2  and  C_15
REMARK    2  A    between atoms: N_3  and  C_4
REMARK    3  A    between atoms: C_19  and  S_20
REMARK    4  A    between atoms: S_20  and  N_23
REMARK                            x       y       z     vdW  Elec       q    Type
REMARK                         _______ _______ _______ _____ _____    ______ ____
ROOT
ATOM      1  O   UNL     1      -4.037  10.261  16.609  0.00  0.00    +0.000 OA
ATOM      2  C   UNL     1      -3.735  11.183  17.366  0.00  0.00    +0.000 C 
ATOM      3  N   UNL     1      -4.625  12.119  17.839  0.00  0.00    +0.000 N 
ATOM      4  H   UNL     1      -4.299  12.873  18.428  0.00  0.00    +0.000 HD
ENDROOT
BRANCH   3   5
ATOM      5  C   UNL     1      -6.067  11.979  17.619  0.00  0.00    +0.000 C 
ATOM      6  C   UNL     1      -6.768  13.294  17.255  0.00  0.00    +0.000 C 
ATOM      7  C   UNL     1      -6.606  14.318  18.358  0.00  0.00    +0.000 C 
ATOM      8  S   UNL     1      -7.533  13.842  19.841  0.00  0.00    +0.000 S 
ATOM      9  C   UNL     1      -7.343  12.064  19.843  0.00  0.00    +0.000 A 
ATOM     10  C   UNL     1      -7.912  11.394  20.940  0.00  0.00    +0.000 A 
ATOM     11  C   UNL     1      -7.884  10.002  21.022  0.00  0.00    +0.000 A 
ATOM     12  C   UNL     1      -7.291   9.276  20.003  0.00  0.00    +0.000 A 
ATOM     13  F   UNL     1      -7.286   7.939  20.063  0.00  0.00    +0.000 F 
ATOM     14  C   UNL     1      -6.706   9.916  18.915  0.00  0.00    +0.000 A 
ATOM     15  C   UNL     1      -6.721  11.323  18.820  0.00  0.00    +0.000 A 
ENDBRANCH   3   5
BRANCH   2  16
ATOM     16  C   UNL     1      -2.342  11.228  17.854  0.00  0.00    +0.000 A 
ATOM     17  C   UNL     1      -1.458  10.215  17.458  0.00  0.00    +0.000 A 
ATOM     18  C   UNL     1      -0.256  10.026  18.146  0.00  0.00    +0.000 A 
ATOM     19  C   UNL     1       0.028  10.806  19.266  0.00  0.00    +0.000 A 
ATOM     20  C   UNL     1      -0.886  11.786  19.680  0.00  0.00    +0.000 A 
ATOM     21  C   UNL     1      -2.031  12.064  18.924  0.00  0.00    +0.000 A 
BRANCH  20  22
ATOM     22  S   UNL     1      -0.685  12.599  21.252  0.00  0.00    +0.000 S 
ATOM     23  O   UNL     1      -2.014  12.948  21.713  0.00  0.00    +0.000 OA
ATOM     24  O   UNL     1       0.203  11.772  22.049  0.00  0.00    +0.000 OA
BRANCH  22  25
ATOM     25  N   UNL     1       0.147  14.018  20.872  0.00  0.00    +0.000 NA
ATOM     26  C   UNL     1      -0.557  15.153  20.248  0.00  0.00    +0.000 C 
ATOM     27  C   UNL     1       0.066  15.267  18.870  0.00  0.00    +0.000 C 
ATOM     28  C   UNL     1       1.511  14.853  19.080  0.00  0.00    +0.000 C 
ATOM     29  C   UNL     1       1.508  13.942  20.309  0.00  0.00    +0.000 C 
ENDBRANCH  22  25
ENDBRANCH  20  22
ENDBRANCH   2  16
TORSDOF 4
ENDMDL
