MODEL 1
REMARK VINA RESULT:      -8.0      0.000      0.000
REMARK  Name = 
REMARK  2 active torsions:
REMARK  status: ('A' for Active; 'I' for Inactive)
REMARK    1  A    between atoms: C_1  and  C_2
REMARK    2  A    between atoms: C_5  and  C_6
REMARK                            x       y       z     vdW  Elec       q    Type
REMARK                         _______ _______ _______ _____ _____    ______ ____
ROOT
ATOM      1  C   UNL     1       3.645   4.451  17.138  0.00  0.00    +0.000 C 
ATOM      2  O   UNL     1       3.568   3.319  16.662  0.00  0.00    +0.000 OA
ATOM      3  N   UNL     1       2.549   5.066  17.750  0.00  0.00    +0.000 N 
ATOM      4  C   UNL     1       1.353   4.250  18.029  0.00  0.00    +0.000 C 
ATOM      5  C   UNL     1       1.364   3.916  19.505  0.00  0.00    +0.000 A 
ATOM      6  C   UNL     1       0.996   2.651  19.975  0.00  0.00    +0.000 A 
ATOM      7  C   UNL     1       1.355   2.274  21.264  0.00  0.00    +0.000 A 
ATOM      8  C   UNL     1       2.076   3.158  22.067  0.00  0.00    +0.000 A 
ATOM      9  C   UNL     1       2.319   4.467  21.635  0.00  0.00    +0.000 A 
ATOM     10  C   UNL     1       1.905   4.895  20.368  0.00  0.00    +0.000 A 
ATOM     11  C   UNL     1       2.038   6.318  19.814  0.00  0.00    +0.000 C 
ATOM     12  C   UNL     1       0.886   7.260  20.169  0.00  0.00    +0.000 C 
ATOM     13  C   UNL     1       2.250   7.518  20.717  0.00  0.00    +0.000 C 
ATOM     14  C   UNL     1       2.522   6.395  18.356  0.00  0.00    +0.000 C 
ENDROOT
BRANCH   1  19
ATOM     15  C   UNL     1       6.969   4.184  12.642  0.00  0.00    +0.000 C 
ATOM     16  C   UNL     1       6.620   4.624  14.010  0.00  0.00    +0.000 A 
ATOM     17  N   UNL     1       5.492   4.461  14.668  0.00  0.00    +0.000 NA
ATOM     18  C   UNL     1       5.743   5.008  15.912  0.00  0.00    +0.000 A 
ATOM     19  C   UNL     1       4.968   5.115  17.082  0.00  0.00    +0.000 A 
ATOM     20  C   UNL     1       5.565   5.719  18.212  0.00  0.00    +0.000 A 
ATOM     21  C   UNL     1       6.859   6.255  18.154  0.00  0.00    +0.000 A 
ATOM     22  C   UNL     1       7.635   6.168  16.996  0.00  0.00    +0.000 A 
ATOM     23  C   UNL     1       7.033   5.530  15.916  0.00  0.00    +0.000 A 
ATOM     24  O   UNL     1       7.599   5.285  14.701  0.00  0.00    +0.000 OA
ENDBRANCH   1  19
TORSDOF 1
ENDMDL
MODEL 2
REMARK VINA RESULT:      -7.9      3.240      6.920
REMARK  Name = 
REMARK  2 active torsions:
REMARK  status: ('A' for Active; 'I' for Inactive)
REMARK    1  A    between atoms: C_1  and  C_2
REMARK    2  A    between atoms: C_5  and  C_6
REMARK                            x       y       z     vdW  Elec       q    Type
REMARK                         _______ _______ _______ _____ _____    ______ ____
ROOT
ATOM      1  C   UNL     1       2.667   8.223  18.064  0.00  0.00    +0.000 C 
ATOM      2  O   UNL     1       3.165   9.247  17.600  0.00  0.00    +0.000 OA
ATOM      3  N   UNL     1       2.991   6.958  17.566  0.00  0.00    +0.000 N 
ATOM      4  C   UNL     1       4.120   6.842  16.625  0.00  0.00    +0.000 C 
ATOM      5  C   UNL     1       5.303   6.299  17.397  0.00  0.00    +0.000 A 
ATOM      6  C   UNL     1       6.600   6.781  17.191  0.00  0.00    +0.000 A 
ATOM      7  C   UNL     1       7.578   6.527  18.144  0.00  0.00    +0.000 A 
ATOM      8  C   UNL     1       7.255   5.799  19.290  0.00  0.00    +0.000 A 
ATOM      9  C   UNL     1       5.992   5.209  19.419  0.00  0.00    +0.000 A 
ATOM     10  C   UNL     1       5.011   5.390  18.438  0.00  0.00    +0.000 A 
ATOM     11  C   UNL     1       3.626   4.733  18.424  0.00  0.00    +0.000 C 
ATOM     12  C   UNL     1       3.575   3.346  17.780  0.00  0.00    +0.000 C 
ATOM     13  C   UNL     1       3.312   3.494  19.241  0.00  0.00    +0.000 C 
ATOM     14  C   UNL     1       2.473   5.676  18.039  0.00  0.00    +0.000 C 
ENDROOT
BRANCH   1  19
ATOM     15  C   UNL     1      -1.344  12.125  18.189  0.00  0.00    +0.000 C 
ATOM     16  C   UNL     1      -0.583  10.986  18.746  0.00  0.00    +0.000 A 
ATOM     17  N   UNL     1       0.354  10.260  18.175  0.00  0.00    +0.000 NA
ATOM     18  C   UNL     1       0.757   9.386  19.166  0.00  0.00    +0.000 A 
ATOM     19  C   UNL     1       1.746   8.385  19.213  0.00  0.00    +0.000 A 
ATOM     20  C   UNL     1       1.916   7.687  20.429  0.00  0.00    +0.000 A 
ATOM     21  C   UNL     1       1.088   7.931  21.533  0.00  0.00    +0.000 A 
ATOM     22  C   UNL     1       0.093   8.912  21.497  0.00  0.00    +0.000 A 
ATOM     23  C   UNL     1      -0.019   9.609  20.299  0.00  0.00    +0.000 A 
ATOM     24  O   UNL     1      -0.878  10.634  20.035  0.00  0.00    +0.000 OA
ENDBRANCH   1  19
TORSDOF 1
ENDMDL
MODEL 3
REMARK VINA RESULT:      -7.4      8.204     11.027
REMARK  Name = 
REMARK  2 active torsions:
REMARK  status: ('A' for Active; 'I' for Inactive)
REMARK    1  A    between atoms: C_1  and  C_2
REMARK    2  A    between atoms: C_5  and  C_6
REMARK                            x       y       z     vdW  Elec       q    Type
REMARK                         _______ _______ _______ _____ _____    ______ ____
ROOT
ATOM      1  C   UNL     1      -4.241  12.715  21.195  0.00  0.00    +0.000 C 
ATOM      2  O   UNL     1      -4.835  12.236  22.160  0.00  0.00    +0.000 OA
ATOM      3  N   UNL     1      -2.917  13.153  21.291  0.00  0.00    +0.000 N 
ATOM      4  C   UNL     1      -2.156  12.823  22.510  0.00  0.00    +0.000 C 
ATOM      5  C   UNL     1      -1.231  11.674  22.172  0.00  0.00    +0.000 A 
ATOM      6  C   UNL     1      -1.012  10.620  23.065  0.00  0.00    +0.000 A 
ATOM      7  C   UNL     1      -0.461   9.434  22.594  0.00  0.00    +0.000 A 
ATOM      8  C   UNL     1      -0.137   9.311  21.242  0.00  0.00    +0.000 A 
ATOM      9  C   UNL     1      -0.235  10.417  20.389  0.00  0.00    +0.000 A 
ATOM     10  C   UNL     1      -0.720  11.644  20.855  0.00  0.00    +0.000 A 
ATOM     11  C   UNL     1      -0.798  12.943  20.046  0.00  0.00    +0.000 C 
ATOM     12  C   UNL     1       0.476  13.791  20.061  0.00  0.00    +0.000 C 
ATOM     13  C   UNL     1       0.022  13.160  18.787  0.00  0.00    +0.000 C 
ATOM     14  C   UNL     1      -2.109  13.727  20.218  0.00  0.00    +0.000 C 
ENDROOT
BRANCH   1  19
ATOM     15  C   UNL     1      -2.628   9.782  16.708  0.00  0.00    +0.000 C 
ATOM     16  C   UNL     1      -3.521  10.709  17.436  0.00  0.00    +0.000 A 
ATOM     17  N   UNL     1      -3.501  11.046  18.709  0.00  0.00    +0.000 NA
ATOM     18  C   UNL     1      -4.510  11.982  18.827  0.00  0.00    +0.000 A 
ATOM     19  C   UNL     1      -4.974  12.756  19.908  0.00  0.00    +0.000 A 
ATOM     20  C   UNL     1      -6.029  13.663  19.661  0.00  0.00    +0.000 A 
ATOM     21  C   UNL     1      -6.641  13.746  18.403  0.00  0.00    +0.000 A 
ATOM     22  C   UNL     1      -6.200  12.976  17.324  0.00  0.00    +0.000 A 
ATOM     23  C   UNL     1      -5.132  12.125  17.590  0.00  0.00    +0.000 A 
ATOM     24  O   UNL     1      -4.501  11.312  16.697  0.00  0.00    +0.000 OA
ENDBRANCH   1  19
TORSDOF 1
ENDMDL
MODEL 4
REMARK VINA RESULT:      -7.3      3.178      6.563
REMARK  Name = 
REMARK  2 active torsions:
REMARK  status: ('A' for Active; 'I' for Inactive)
REMARK    1  A    between atoms: C_1  and  C_2
REMARK    2  A    between atoms: C_5  and  C_6
REMARK                            x       y       z     vdW  Elec       q    Type
REMARK                         _______ _______ _______ _____ _____    ______ ____
ROOT
ATOM      1  C   UNL     1       2.228   6.361  20.241  0.00  0.00    +0.000 C 
ATOM      2  O   UNL     1       1.317   5.844  20.884  0.00  0.00    +0.000 OA
ATOM      3  N   UNL     1       3.451   5.713  20.048  0.00  0.00    +0.000 N 
ATOM      4  C   UNL     1       3.560   4.292  20.429  0.00  0.00    +0.000 C 
ATOM      5  C   UNL     1       3.486   3.473  19.159  0.00  0.00    +0.000 A 
ATOM      6  C   UNL     1       2.770   2.273  19.098  0.00  0.00    +0.000 A 
ATOM      7  C   UNL     1       2.429   1.748  17.858  0.00  0.00    +0.000 A 
ATOM      8  C   UNL     1       2.804   2.421  16.695  0.00  0.00    +0.000 A 
ATOM      9  C   UNL     1       3.635   3.546  16.766  0.00  0.00    +0.000 A 
ATOM     10  C   UNL     1       4.051   4.054  18.002  0.00  0.00    +0.000 A 
ATOM     11  C   UNL     1       5.022   5.223  18.210  0.00  0.00    +0.000 C 
ATOM     12  C   UNL     1       6.503   4.839  18.217  0.00  0.00    +0.000 C 
ATOM     13  C   UNL     1       5.964   5.692  17.117  0.00  0.00    +0.000 C 
ATOM     14  C   UNL     1       4.599   6.221  19.300  0.00  0.00    +0.000 C 
ENDROOT
BRANCH   1  19
ATOM     15  C   UNL     1      -0.571  10.397  22.925  0.00  0.00    +0.000 C 
ATOM     16  C   UNL     1       0.168   9.836  21.774  0.00  0.00    +0.000 A 
ATOM     17  N   UNL     1       0.802   8.686  21.681  0.00  0.00    +0.000 NA
ATOM     18  C   UNL     1       1.250   8.650  20.375  0.00  0.00    +0.000 A 
ATOM     19  C   UNL     1       1.954   7.683  19.632  0.00  0.00    +0.000 A 
ATOM     20  C   UNL     1       2.225   7.968  18.275  0.00  0.00    +0.000 A 
ATOM     21  C   UNL     1       1.867   9.196  17.700  0.00  0.00    +0.000 A 
ATOM     22  C   UNL     1       1.180  10.169  18.428  0.00  0.00    +0.000 A 
ATOM     23  C   UNL     1       0.891   9.840  19.749  0.00  0.00    +0.000 A 
ATOM     24  O   UNL     1       0.197  10.602  20.641  0.00  0.00    +0.000 OA
ENDBRANCH   1  19
TORSDOF 1
ENDMDL
MODEL 5
REMARK VINA RESULT:      -7.2      4.631      7.705
REMARK  Name = 
REMARK  2 active torsions:
REMARK  status: ('A' for Active; 'I' for Inactive)
REMARK    1  A    between atoms: C_1  and  C_2
REMARK    2  A    between atoms: C_5  and  C_6
REMARK                            x       y       z     vdW  Elec       q    Type
REMARK                         _______ _______ _______ _____ _____    ______ ____
ROOT
ATOM      1  C   UNL     1       0.959   9.304  20.705  0.00  0.00    +0.000 C 
ATOM      2  O   UNL     1       1.572   9.446  21.762  0.00  0.00    +0.000 OA
ATOM      3  N   UNL     1      -0.265   9.937  20.476  0.00  0.00    +0.000 N 
ATOM      4  C   UNL     1      -0.711  10.970  21.429  0.00  0.00    +0.000 C 
ATOM      5  C   UNL     1      -0.455  12.319  20.792  0.00  0.00    +0.000 A 
ATOM      6  C   UNL     1       0.037  13.400  21.531  0.00  0.00    +0.000 A 
ATOM      7  C   UNL     1       0.590  14.485  20.862  0.00  0.00    +0.000 A 
ATOM      8  C   UNL     1       0.648  14.481  19.468  0.00  0.00    +0.000 A 
ATOM      9  C   UNL     1       0.032  13.457  18.738  0.00  0.00    +0.000 A 
ATOM     10  C   UNL     1      -0.594  12.388  19.388  0.00  0.00    +0.000 A 
ATOM     11  C   UNL     1      -1.370  11.255  18.706  0.00  0.00    +0.000 C 
ATOM     12  C   UNL     1      -2.846  11.553  18.436  0.00  0.00    +0.000 C 
ATOM     13  C   UNL     1      -1.904  11.380  17.292  0.00  0.00    +0.000 C 
ATOM     14  C   UNL     1      -1.077   9.852  19.264  0.00  0.00    +0.000 C 
ENDROOT
BRANCH   1  19
ATOM     15  C   UNL     1       2.108   3.877  21.450  0.00  0.00    +0.000 C 
ATOM     16  C   UNL     1       2.077   5.131  20.668  0.00  0.00    +0.000 A 
ATOM     17  N   UNL     1       1.522   6.284  20.977  0.00  0.00    +0.000 NA
ATOM     18  C   UNL     1       1.853   7.113  19.922  0.00  0.00    +0.000 A 
ATOM     19  C   UNL     1       1.604   8.474  19.662  0.00  0.00    +0.000 A 
ATOM     20  C   UNL     1       2.131   9.021  18.471  0.00  0.00    +0.000 A 
ATOM     21  C   UNL     1       2.821   8.227  17.545  0.00  0.00    +0.000 A 
ATOM     22  C   UNL     1       3.065   6.872  17.783  0.00  0.00    +0.000 A 
ATOM     23  C   UNL     1       2.569   6.375  18.984  0.00  0.00    +0.000 A 
ATOM     24  O   UNL     1       2.716   5.106  19.459  0.00  0.00    +0.000 OA
ENDBRANCH   1  19
TORSDOF 1
ENDMDL
MODEL 6
REMARK VINA RESULT:      -7.1      8.347     10.387
REMARK  Name = 
REMARK  2 active torsions:
REMARK  status: ('A' for Active; 'I' for Inactive)
REMARK    1  A    between atoms: C_1  and  C_2
REMARK    2  A    between atoms: C_5  and  C_6
REMARK                            x       y       z     vdW  Elec       q    Type
REMARK                         _______ _______ _______ _____ _____    ______ ____
ROOT
ATOM      1  C   UNL     1       2.120  13.201  20.395  0.00  0.00    +0.000 C 
ATOM      2  O   UNL     1       2.639  13.256  21.509  0.00  0.00    +0.000 OA
ATOM      3  N   UNL     1       1.324  12.119  20.009  0.00  0.00    +0.000 N 
ATOM      4  C   UNL     1       0.919  11.143  21.038  0.00  0.00    +0.000 C 
ATOM      5  C   UNL     1      -0.521  11.438  21.402  0.00  0.00    +0.000 A 
ATOM      6  C   UNL     1      -0.972  11.377  22.725  0.00  0.00    +0.000 A 
ATOM      7  C   UNL     1      -2.173  11.990  23.062  0.00  0.00    +0.000 A 
ATOM      8  C   UNL     1      -2.909  12.654  22.080  0.00  0.00    +0.000 A 
ATOM      9  C   UNL     1      -2.516  12.591  20.738  0.00  0.00    +0.000 A 
ATOM     10  C   UNL     1      -1.346  11.920  20.363  0.00  0.00    +0.000 A 
ATOM     11  C   UNL     1      -0.855  11.711  18.926  0.00  0.00    +0.000 C 
ATOM     12  C   UNL     1      -1.422  10.477  18.221  0.00  0.00    +0.000 C 
ATOM     13  C   UNL     1      -1.779  11.839  17.730  0.00  0.00    +0.000 C 
ATOM     14  C   UNL     1       0.652  11.946  18.724  0.00  0.00    +0.000 C 
ENDROOT
BRANCH   1  19
ATOM     15  C   UNL     1      -1.748  17.174  19.635  0.00  0.00    +0.000 C 
ATOM     16  C   UNL     1      -0.428  16.548  19.411  0.00  0.00    +0.000 A 
ATOM     17  N   UNL     1       0.101  15.499  20.005  0.00  0.00    +0.000 NA
ATOM     18  C   UNL     1       1.313  15.322  19.365  0.00  0.00    +0.000 A 
ATOM     19  C   UNL     1       2.331  14.359  19.498  0.00  0.00    +0.000 A 
ATOM     20  C   UNL     1       3.448  14.463  18.638  0.00  0.00    +0.000 A 
ATOM     21  C   UNL     1       3.574  15.523  17.729  0.00  0.00    +0.000 A 
ATOM     22  C   UNL     1       2.577  16.493  17.595  0.00  0.00    +0.000 A 
ATOM     23  C   UNL     1       1.473  16.337  18.427  0.00  0.00    +0.000 A 
ATOM     24  O   UNL     1       0.360  17.124  18.452  0.00  0.00    +0.000 OA
ENDBRANCH   1  19
TORSDOF 1
ENDMDL
MODEL 7
REMARK VINA RESULT:      -7.1      8.056     10.555
REMARK  Name = 
REMARK  2 active torsions:
REMARK  status: ('A' for Active; 'I' for Inactive)
REMARK    1  A    between atoms: C_1  and  C_2
REMARK    2  A    between atoms: C_5  and  C_6
REMARK                            x       y       z     vdW  Elec       q    Type
REMARK                         _______ _______ _______ _____ _____    ______ ____
ROOT
ATOM      1  C   UNL     1      -0.792  12.282  18.553  0.00  0.00    +0.000 C 
ATOM      2  O   UNL     1      -0.658  13.430  18.134  0.00  0.00    +0.000 OA
ATOM      3  N   UNL     1      -0.009  11.786  19.599  0.00  0.00    +0.000 N 
ATOM      4  C   UNL     1       0.830  12.732  20.357  0.00  0.00    +0.000 C 
ATOM      5  C   UNL     1       0.130  13.010  21.670  0.00  0.00    +0.000 A 
ATOM      6  C   UNL     1       0.091  14.293  22.225  0.00  0.00    +0.000 A 
ATOM      7  C   UNL     1      -0.842  14.577  23.215  0.00  0.00    +0.000 A 
ATOM      8  C   UNL     1      -1.725  13.583  23.639  0.00  0.00    +0.000 A 
ATOM      9  C   UNL     1      -1.586  12.270  23.174  0.00  0.00    +0.000 A 
ATOM     10  C   UNL     1      -0.607  11.942  22.228  0.00  0.00    +0.000 A 
ATOM     11  C   UNL     1      -0.303  10.534  21.705  0.00  0.00    +0.000 C 
ATOM     12  C   UNL     1       0.684   9.728  22.552  0.00  0.00    +0.000 C 
ATOM     13  C   UNL     1      -0.737   9.285  22.449  0.00  0.00    +0.000 C 
ATOM     14  C   UNL     1      -0.083  10.449  20.185  0.00  0.00    +0.000 C 
ENDROOT
BRANCH   1  19
ATOM     15  C   UNL     1      -6.130  12.531  20.221  0.00  0.00    +0.000 C 
ATOM     16  C   UNL     1      -5.028  12.032  19.370  0.00  0.00    +0.000 A 
ATOM     17  N   UNL     1      -3.776  12.436  19.320  0.00  0.00    +0.000 NA
ATOM     18  C   UNL     1      -3.182  11.588  18.406  0.00  0.00    +0.000 A 
ATOM     19  C   UNL     1      -1.861  11.462  17.936  0.00  0.00    +0.000 A 
ATOM     20  C   UNL     1      -1.591  10.437  17.002  0.00  0.00    +0.000 A 
ATOM     21  C   UNL     1      -2.611   9.613  16.507  0.00  0.00    +0.000 A 
ATOM     22  C   UNL     1      -3.929   9.734  16.954  0.00  0.00    +0.000 A 
ATOM     23  C   UNL     1      -4.152  10.725  17.905  0.00  0.00    +0.000 A 
ATOM     24  O   UNL     1      -5.335  11.005  18.521  0.00  0.00    +0.000 OA
ENDBRANCH   1  19
TORSDOF 1
ENDMDL
MODEL 8
REMARK VINA RESULT:      -7.1      8.295     11.530
REMARK  Name = 
REMARK  2 active torsions:
REMARK  status: ('A' for Active; 'I' for Inactive)
REMARK    1  A    between atoms: C_1  and  C_2
REMARK    2  A    between atoms: C_5  and  C_6
REMARK                            x       y       z     vdW  Elec       q    Type
REMARK                         _______ _______ _______ _____ _____    ______ ____
ROOT
ATOM      1  C   UNL     1       1.176  13.603  18.814  0.00  0.00    +0.000 C 
ATOM      2  O   UNL     1       2.143  13.407  18.081  0.00  0.00    +0.000 OA
ATOM      3  N   UNL     1       1.069  14.757  19.596  0.00  0.00    +0.000 N 
ATOM      4  C   UNL     1       2.023  15.856  19.358  0.00  0.00    +0.000 C 
ATOM      5  C   UNL     1       1.301  16.922  18.563  0.00  0.00    +0.000 A 
ATOM      6  C   UNL     1       1.927  17.612  17.519  0.00  0.00    +0.000 A 
ATOM      7  C   UNL     1       1.148  18.304  16.600  0.00  0.00    +0.000 A 
ATOM      8  C   UNL     1      -0.241  18.301  16.729  0.00  0.00    +0.000 A 
ATOM      9  C   UNL     1      -0.845  17.722  17.851  0.00  0.00    +0.000 A 
ATOM     10  C   UNL     1      -0.077  17.080  18.829  0.00  0.00    +0.000 A 
ATOM     11  C   UNL     1      -0.609  16.482  20.137  0.00  0.00    +0.000 C 
ATOM     12  C   UNL     1      -0.711  17.468  21.304  0.00  0.00    +0.000 C 
ATOM     13  C   UNL     1      -1.952  16.882  20.719  0.00  0.00    +0.000 C 
ATOM     14  C   UNL     1      -0.030  15.103  20.493  0.00  0.00    +0.000 C 
ENDROOT
BRANCH   1  19
ATOM     15  C   UNL     1       1.250   9.061  22.085  0.00  0.00    +0.000 C 
ATOM     16  C   UNL     1       0.658   9.950  21.062  0.00  0.00    +0.000 A 
ATOM     17  N   UNL     1       1.068  11.135  20.660  0.00  0.00    +0.000 NA
ATOM     18  C   UNL     1       0.186  11.474  19.652  0.00  0.00    +0.000 A 
ATOM     19  C   UNL     1       0.100  12.586  18.793  0.00  0.00    +0.000 A 
ATOM     20  C   UNL     1      -0.936  12.593  17.832  0.00  0.00    +0.000 A 
ATOM     21  C   UNL     1      -1.887  11.565  17.775  0.00  0.00    +0.000 A 
ATOM     22  C   UNL     1      -1.821  10.462  18.629  0.00  0.00    +0.000 A 
ATOM     23  C   UNL     1      -0.765  10.465  19.535  0.00  0.00    +0.000 A 
ATOM     24  O   UNL     1      -0.466   9.487  20.435  0.00  0.00    +0.000 OA
ENDBRANCH   1  19
TORSDOF 1
ENDMDL
MODEL 9
REMARK VINA RESULT:      -7.0      8.681     10.145
REMARK  Name = 
REMARK  2 active torsions:
REMARK  status: ('A' for Active; 'I' for Inactive)
REMARK    1  A    between atoms: C_1  and  C_2
REMARK    2  A    between atoms: C_5  and  C_6
REMARK                            x       y       z     vdW  Elec       q    Type
REMARK                         _______ _______ _______ _____ _____    ______ ____
ROOT
ATOM      1  C   UNL     1       1.274  13.858  20.741  0.00  0.00    +0.000 C 
ATOM      2  O   UNL     1       1.662  14.083  21.886  0.00  0.00    +0.000 OA
ATOM      3  N   UNL     1       0.672  12.645  20.394  0.00  0.00    +0.000 N 
ATOM      4  C   UNL     1       0.293  11.716  21.475  0.00  0.00    +0.000 C 
ATOM      5  C   UNL     1      -1.202  11.835  21.675  0.00  0.00    +0.000 A 
ATOM      6  C   UNL     1      -1.777  11.828  22.950  0.00  0.00    +0.000 A 
ATOM      7  C   UNL     1      -3.077  12.292  23.112  0.00  0.00    +0.000 A 
ATOM      8  C   UNL     1      -3.787  12.757  22.005  0.00  0.00    +0.000 A 
ATOM      9  C   UNL     1      -3.251  12.633  20.718  0.00  0.00    +0.000 A 
ATOM     10  C   UNL     1      -1.971  12.104  20.520  0.00  0.00    +0.000 A 
ATOM     11  C   UNL     1      -1.309  11.842  19.163  0.00  0.00    +0.000 C 
ATOM     12  C   UNL     1      -1.632  10.483  18.538  0.00  0.00    +0.000 C 
ATOM     13  C   UNL     1      -2.113  11.733  17.881  0.00  0.00    +0.000 C 
ATOM     14  C   UNL     1       0.166  12.268  19.077  0.00  0.00    +0.000 C 
ENDROOT
BRANCH   1  19
ATOM     15  C   UNL     1       5.978  14.662  17.815  0.00  0.00    +0.000 C 
ATOM     16  C   UNL     1       4.586  14.977  18.202  0.00  0.00    +0.000 A 
ATOM     17  N   UNL     1       3.778  14.308  18.997  0.00  0.00    +0.000 NA
ATOM     18  C   UNL     1       2.636  15.084  19.051  0.00  0.00    +0.000 A 
ATOM     19  C   UNL     1       1.423  14.952  19.753  0.00  0.00    +0.000 A 
ATOM     20  C   UNL     1       0.460  15.975  19.598  0.00  0.00    +0.000 A 
ATOM     21  C   UNL     1       0.672  17.051  18.725  0.00  0.00    +0.000 A 
ATOM     22  C   UNL     1       1.865  17.188  18.011  0.00  0.00    +0.000 A 
ATOM     23  C   UNL     1       2.808  16.187  18.220  0.00  0.00    +0.000 A 
ATOM     24  O   UNL     1       4.056  16.123  17.675  0.00  0.00    +0.000 OA
ENDBRANCH   1  19
TORSDOF 1
ENDMDL
