MODEL 1
REMARK VINA RESULT:      -8.2      0.000      0.000
REMARK  Name = 
REMARK  6 active torsions:
REMARK  status: ('A' for Active; 'I' for Inactive)
REMARK    1  A    between atoms: C_2  and  C_4
REMARK    2  A    between atoms: C_7  and  C_8
REMARK    3  A    between atoms: C_8  and  N_9
REMARK    4  A    between atoms: C_10  and  C_12
REMARK    5  A    between atoms: C_16  and  N_17
REMARK    6  A    between atoms: C_20  and  C_21
REMARK                            x       y       z     vdW  Elec       q    Type
REMARK                         _______ _______ _______ _____ _____    ______ ____
ROOT
ATOM      1  N   UNL     1       1.748   8.441  19.249  0.00  0.00    +0.000 N 
ATOM      2  C   UNL     1       2.452   8.110  18.112  0.00  0.00    +0.000 C 
ATOM      3  O   UNL     1       2.506   8.816  17.113  0.00  0.00    +0.000 OA
ATOM      4  H   UNL     1       1.942   7.961  20.116  0.00  0.00    +0.000 HD
ENDROOT
BRANCH   2   5
ATOM      5  C   UNL     1       3.202   6.820  18.178  0.00  0.00    +0.000 A 
ATOM      6  C   UNL     1       2.925   5.904  19.199  0.00  0.00    +0.000 A 
ATOM      7  C   UNL     1       3.567   4.662  19.212  0.00  0.00    +0.000 A 
ATOM      8  C   UNL     1       4.460   4.318  18.192  0.00  0.00    +0.000 A 
ATOM      9  C   UNL     1       4.752   5.238  17.175  0.00  0.00    +0.000 A 
ATOM     10  C   UNL     1       4.156   6.504  17.202  0.00  0.00    +0.000 A 
BRANCH   9  11
ATOM     11  N   UNL     1       5.577   4.866  16.077  0.00  0.00    +0.000 N 
ATOM     12  C   UNL     1       6.883   5.241  15.847  0.00  0.00    +0.000 A 
ATOM     13  C   UNL     1       7.203   4.836  14.577  0.00  0.00    +0.000 A 
ATOM     14  C   UNL     1       6.048   4.179  14.093  0.00  0.00    +0.000 A 
ATOM     15  N   UNL     1       5.083   4.149  15.037  0.00  0.00    +0.000 NA
BRANCH  14  16
ATOM     16  C   UNL     1       5.875   3.594  12.718  0.00  0.00    +0.000 C 
ATOM     17  F   UNL     1       4.621   3.821  12.234  0.00  0.00    +0.000 F 
ATOM     18  F   UNL     1       6.737   4.121  11.811  0.00  0.00    +0.000 F 
ATOM     19  F   UNL     1       6.047   2.246  12.703  0.00  0.00    +0.000 F 
ENDBRANCH  14  16
ENDBRANCH   9  11
ENDBRANCH   2   5
BRANCH   1  20
ATOM     20  C   UNL     1       1.018   9.679  19.377  0.00  0.00    +0.000 C 
BRANCH  20  24
ATOM     21  C   UNL     1      -0.780  10.639  22.353  0.00  0.00    +0.000 A 
ATOM     22  C   UNL     1      -0.298   9.440  22.841  0.00  0.00    +0.000 A 
ATOM     23  C   UNL     1       0.463   8.850  21.805  0.00  0.00    +0.000 A 
ATOM     24  C   UNL     1       0.410   9.718  20.734  0.00  0.00    +0.000 A 
ATOM     25  O   UNL     1      -0.350  10.813  21.057  0.00  0.00    +0.000 OA
BRANCH  21  27
ATOM     26  N   UNL     1      -1.096  12.918  22.960  0.00  0.00    +0.000 N 
ATOM     27  C   UNL     1      -1.597  11.646  22.993  0.00  0.00    +0.000 C 
ATOM     28  O   UNL     1      -2.677  11.428  23.533  0.00  0.00    +0.000 OA
ATOM     29  H   UNL     1      -1.678  13.662  23.318  0.00  0.00    +0.000 HD
ATOM     30  H   UNL     1      -0.275  13.135  22.414  0.00  0.00    +0.000 HD
ENDBRANCH  21  27
ENDBRANCH  20  24
ENDBRANCH   1  20
TORSDOF 6
ENDMDL
MODEL 2
REMARK VINA RESULT:      -8.2      5.872     10.630
REMARK  Name = 
REMARK  6 active torsions:
REMARK  status: ('A' for Active; 'I' for Inactive)
REMARK    1  A    between atoms: C_2  and  C_4
REMARK    2  A    between atoms: C_7  and  C_8
REMARK    3  A    between atoms: C_8  and  N_9
REMARK    4  A    between atoms: C_10  and  C_12
REMARK    5  A    between atoms: C_16  and  N_17
REMARK    6  A    between atoms: C_20  and  C_21
REMARK                            x       y       z     vdW  Elec       q    Type
REMARK                         _______ _______ _______ _____ _____    ______ ____
ROOT
ATOM      1  N   UNL     1       3.545   5.776  18.592  0.00  0.00    +0.000 N 
ATOM      2  C   UNL     1       2.596   6.156  19.516  0.00  0.00    +0.000 C 
ATOM      3  O   UNL     1       2.196   5.432  20.419  0.00  0.00    +0.000 OA
ATOM      4  H   UNL     1       4.018   6.479  18.041  0.00  0.00    +0.000 HD
ENDROOT
BRANCH   2   5
ATOM      5  C   UNL     1       2.095   7.556  19.378  0.00  0.00    +0.000 A 
ATOM      6  C   UNL     1       2.156   8.199  18.137  0.00  0.00    +0.000 A 
ATOM      7  C   UNL     1       1.610   9.477  17.989  0.00  0.00    +0.000 A 
ATOM      8  C   UNL     1       0.974  10.103  19.066  0.00  0.00    +0.000 A 
ATOM      9  C   UNL     1       0.923   9.469  20.316  0.00  0.00    +0.000 A 
ATOM     10  C   UNL     1       1.528   8.217  20.475  0.00  0.00    +0.000 A 
BRANCH   9  11
ATOM     11  N   UNL     1       0.192  10.045  21.392  0.00  0.00    +0.000 N 
ATOM     12  C   UNL     1       0.030   9.535  22.661  0.00  0.00    +0.000 A 
ATOM     13  C   UNL     1      -0.919  10.301  23.288  0.00  0.00    +0.000 A 
ATOM     14  C   UNL     1      -1.273  11.297  22.348  0.00  0.00    +0.000 A 
ATOM     15  N   UNL     1      -0.546  11.170  21.218  0.00  0.00    +0.000 NA
BRANCH  14  16
ATOM     16  C   UNL     1      -2.320  12.361  22.540  0.00  0.00    +0.000 C 
ATOM     17  F   UNL     1      -3.208  12.377  21.507  0.00  0.00    +0.000 F 
ATOM     18  F   UNL     1      -3.050  12.180  23.671  0.00  0.00    +0.000 F 
ATOM     19  F   UNL     1      -1.786  13.609  22.600  0.00  0.00    +0.000 F 
ENDBRANCH  14  16
ENDBRANCH   9  11
ENDBRANCH   2   5
BRANCH   1  20
ATOM     20  C   UNL     1       4.178   4.480  18.617  0.00  0.00    +0.000 C 
BRANCH  20  24
ATOM     21  C   UNL     1       6.586   4.569  15.932  0.00  0.00    +0.000 A 
ATOM     22  C   UNL     1       7.497   4.677  16.965  0.00  0.00    +0.000 A 
ATOM     23  C   UNL     1       6.758   4.672  18.170  0.00  0.00    +0.000 A 
ATOM     24  C   UNL     1       5.429   4.561  17.816  0.00  0.00    +0.000 A 
ATOM     25  O   UNL     1       5.313   4.500  16.451  0.00  0.00    +0.000 OA
BRANCH  21  27
ATOM     26  N   UNL     1       7.732   5.381  14.012  0.00  0.00    +0.000 N 
ATOM     27  C   UNL     1       6.797   4.511  14.503  0.00  0.00    +0.000 C 
ATOM     28  O   UNL     1       6.212   3.748  13.741  0.00  0.00    +0.000 OA
ATOM     29  H   UNL     1       7.971   5.310  13.033  0.00  0.00    +0.000 HD
ATOM     30  H   UNL     1       8.309   5.925  14.637  0.00  0.00    +0.000 HD
ENDBRANCH  21  27
ENDBRANCH  20  24
ENDBRANCH   1  20
TORSDOF 6
ENDMDL
MODEL 3
REMARK VINA RESULT:      -8.2      5.722     10.157
REMARK  Name = 
REMARK  6 active torsions:
REMARK  status: ('A' for Active; 'I' for Inactive)
REMARK    1  A    between atoms: C_2  and  C_4
REMARK    2  A    between atoms: C_7  and  C_8
REMARK    3  A    between atoms: C_8  and  N_9
REMARK    4  A    between atoms: C_10  and  C_12
REMARK    5  A    between atoms: C_16  and  N_17
REMARK    6  A    between atoms: C_20  and  C_21
REMARK                            x       y       z     vdW  Elec       q    Type
REMARK                         _______ _______ _______ _____ _____    ______ ____
ROOT
ATOM      1  N   UNL     1       6.076   4.957  16.167  0.00  0.00    +0.000 N 
ATOM      2  C   UNL     1       5.928   4.608  17.492  0.00  0.00    +0.000 C 
ATOM      3  O   UNL     1       6.863   4.333  18.232  0.00  0.00    +0.000 OA
ATOM      4  H   UNL     1       5.317   5.413  15.681  0.00  0.00    +0.000 HD
ENDROOT
BRANCH   2   5
ATOM      5  C   UNL     1       4.525   4.622  18.003  0.00  0.00    +0.000 A 
ATOM      6  C   UNL     1       3.874   3.417  18.289  0.00  0.00    +0.000 A 
ATOM      7  C   UNL     1       2.593   3.433  18.846  0.00  0.00    +0.000 A 
ATOM      8  C   UNL     1       1.970   4.649  19.149  0.00  0.00    +0.000 A 
ATOM      9  C   UNL     1       2.611   5.859  18.850  0.00  0.00    +0.000 A 
ATOM     10  C   UNL     1       3.867   5.837  18.233  0.00  0.00    +0.000 A 
BRANCH   9  11
ATOM     11  N   UNL     1       2.037   7.100  19.245  0.00  0.00    +0.000 N 
ATOM     12  C   UNL     1       1.950   8.256  18.501  0.00  0.00    +0.000 A 
ATOM     13  C   UNL     1       1.527   9.251  19.344  0.00  0.00    +0.000 A 
ATOM     14  C   UNL     1       1.335   8.620  20.596  0.00  0.00    +0.000 A 
ATOM     15  N   UNL     1       1.590   7.298  20.510  0.00  0.00    +0.000 NA
BRANCH  14  16
ATOM     16  C   UNL     1       0.920   9.300  21.873  0.00  0.00    +0.000 C 
ATOM     17  F   UNL     1      -0.239   8.774  22.362  0.00  0.00    +0.000 F 
ATOM     18  F   UNL     1       1.845   9.174  22.859  0.00  0.00    +0.000 F 
ATOM     19  F   UNL     1       0.690  10.628  21.701  0.00  0.00    +0.000 F 
ENDBRANCH  14  16
ENDBRANCH   9  11
ENDBRANCH   2   5
BRANCH   1  20
ATOM     20  C   UNL     1       7.366   5.051  15.528  0.00  0.00    +0.000 C 
BRANCH  20  24
ATOM     21  C   UNL     1       6.303   3.610  12.397  0.00  0.00    +0.000 A 
ATOM     22  C   UNL     1       7.245   4.468  11.863  0.00  0.00    +0.000 A 
ATOM     23  C   UNL     1       7.815   5.178  12.945  0.00  0.00    +0.000 A 
ATOM     24  C   UNL     1       7.194   4.719  14.088  0.00  0.00    +0.000 A 
ATOM     25  O   UNL     1       6.267   3.764  13.764  0.00  0.00    +0.000 OA
BRANCH  21  27
ATOM     26  N   UNL     1       5.976   1.403  11.571  0.00  0.00    +0.000 N 
ATOM     27  C   UNL     1       5.440   2.650  11.745  0.00  0.00    +0.000 C 
ATOM     28  O   UNL     1       4.297   2.883  11.365  0.00  0.00    +0.000 OA
ATOM     29  H   UNL     1       5.374   0.681  11.200  0.00  0.00    +0.000 HD
ATOM     30  H   UNL     1       6.862   1.160  11.987  0.00  0.00    +0.000 HD
ENDBRANCH  21  27
ENDBRANCH  20  24
ENDBRANCH   1  20
TORSDOF 6
ENDMDL
MODEL 4
REMARK VINA RESULT:      -8.0      3.616      4.790
REMARK  Name = 
REMARK  6 active torsions:
REMARK  status: ('A' for Active; 'I' for Inactive)
REMARK    1  A    between atoms: C_2  and  C_4
REMARK    2  A    between atoms: C_7  and  C_8
REMARK    3  A    between atoms: C_8  and  N_9
REMARK    4  A    between atoms: C_10  and  C_12
REMARK    5  A    between atoms: C_16  and  N_17
REMARK    6  A    between atoms: C_20  and  C_21
REMARK                            x       y       z     vdW  Elec       q    Type
REMARK                         _______ _______ _______ _____ _____    ______ ____
ROOT
ATOM      1  N   UNL     1      -0.333   9.459  21.987  0.00  0.00    +0.000 N 
ATOM      2  C   UNL     1       1.014   9.224  21.819  0.00  0.00    +0.000 C 
ATOM      3  O   UNL     1       1.857   9.440  22.680  0.00  0.00    +0.000 OA
ATOM      4  H   UNL     1      -0.999   9.033  21.359  0.00  0.00    +0.000 HD
ENDROOT
BRANCH   2   5
ATOM      5  C   UNL     1       1.400   8.635  20.502  0.00  0.00    +0.000 A 
ATOM      6  C   UNL     1       1.327   9.414  19.341  0.00  0.00    +0.000 A 
ATOM      7  C   UNL     1       1.767   8.889  18.123  0.00  0.00    +0.000 A 
ATOM      8  C   UNL     1       2.310   7.601  18.063  0.00  0.00    +0.000 A 
ATOM      9  C   UNL     1       2.371   6.811  19.220  0.00  0.00    +0.000 A 
ATOM     10  C   UNL     1       1.869   7.318  20.424  0.00  0.00    +0.000 A 
BRANCH   9  11
ATOM     11  N   UNL     1       3.012   5.541  19.197  0.00  0.00    +0.000 N 
ATOM     12  C   UNL     1       4.366   5.288  19.181  0.00  0.00    +0.000 A 
ATOM     13  C   UNL     1       4.526   3.948  18.940  0.00  0.00    +0.000 A 
ATOM     14  C   UNL     1       3.213   3.427  18.856  0.00  0.00    +0.000 A 
ATOM     15  N   UNL     1       2.298   4.394  19.075  0.00  0.00    +0.000 NA
BRANCH  14  16
ATOM     16  C   UNL     1       2.847   1.999  18.552  0.00  0.00    +0.000 C 
ATOM     17  F   UNL     1       3.894   1.157  18.782  0.00  0.00    +0.000 F 
ATOM     18  F   UNL     1       1.818   1.547  19.313  0.00  0.00    +0.000 F 
ATOM     19  F   UNL     1       2.497   1.820  17.251  0.00  0.00    +0.000 F 
ENDBRANCH  14  16
ENDBRANCH   9  11
ENDBRANCH   2   5
BRANCH   1  20
ATOM     20  C   UNL     1      -0.884   9.969  23.219  0.00  0.00    +0.000 C 
BRANCH  20  24
ATOM     21  C   UNL     1      -0.827  13.528  22.631  0.00  0.00    +0.000 A 
ATOM     22  C   UNL     1      -2.198  13.412  22.761  0.00  0.00    +0.000 A 
ATOM     23  C   UNL     1      -2.475  12.046  22.999  0.00  0.00    +0.000 A 
ATOM     24  C   UNL     1      -1.260  11.392  23.003  0.00  0.00    +0.000 A 
ATOM     25  O   UNL     1      -0.247  12.289  22.776  0.00  0.00    +0.000 OA
BRANCH  21  27
ATOM     26  N   UNL     1      -0.692  15.843  22.099  0.00  0.00    +0.000 N 
ATOM     27  C   UNL     1      -0.008  14.696  22.395  0.00  0.00    +0.000 C 
ATOM     28  O   UNL     1       1.217  14.712  22.453  0.00  0.00    +0.000 OA
ATOM     29  H   UNL     1      -0.161  16.698  22.015  0.00  0.00    +0.000 HD
ATOM     30  H   UNL     1      -1.698  15.876  22.170  0.00  0.00    +0.000 HD
ENDBRANCH  21  27
ENDBRANCH  20  24
ENDBRANCH   1  20
TORSDOF 6
ENDMDL
MODEL 5
REMARK VINA RESULT:      -8.0      5.696      9.709
REMARK  Name = 
REMARK  6 active torsions:
REMARK  status: ('A' for Active; 'I' for Inactive)
REMARK    1  A    between atoms: C_2  and  C_4
REMARK    2  A    between atoms: C_7  and  C_8
REMARK    3  A    between atoms: C_8  and  N_9
REMARK    4  A    between atoms: C_10  and  C_12
REMARK    5  A    between atoms: C_16  and  N_17
REMARK    6  A    between atoms: C_20  and  C_21
REMARK                            x       y       z     vdW  Elec       q    Type
REMARK                         _______ _______ _______ _____ _____    ______ ____
ROOT
ATOM      1  N   UNL     1       5.730   5.211  18.357  0.00  0.00    +0.000 N 
ATOM      2  C   UNL     1       4.854   4.368  19.007  0.00  0.00    +0.000 C 
ATOM      3  O   UNL     1       5.055   3.172  19.171  0.00  0.00    +0.000 OA
ATOM      4  H   UNL     1       5.643   6.210  18.472  0.00  0.00    +0.000 HD
ENDROOT
BRANCH   2   5
ATOM      5  C   UNL     1       3.628   5.021  19.555  0.00  0.00    +0.000 A 
ATOM      6  C   UNL     1       2.946   4.437  20.628  0.00  0.00    +0.000 A 
ATOM      7  C   UNL     1       1.848   5.091  21.193  0.00  0.00    +0.000 A 
ATOM      8  C   UNL     1       1.447   6.342  20.713  0.00  0.00    +0.000 A 
ATOM      9  C   UNL     1       2.117   6.925  19.628  0.00  0.00    +0.000 A 
ATOM     10  C   UNL     1       3.175   6.236  19.024  0.00  0.00    +0.000 A 
BRANCH   9  11
ATOM     11  N   UNL     1       1.788   8.240  19.195  0.00  0.00    +0.000 N 
ATOM     12  C   UNL     1       2.175   8.856  18.025  0.00  0.00    +0.000 A 
ATOM     13  C   UNL     1       1.817  10.176  18.124  0.00  0.00    +0.000 A 
ATOM     14  C   UNL     1       1.175  10.294  19.379  0.00  0.00    +0.000 A 
ATOM     15  N   UNL     1       1.108   9.096  19.997  0.00  0.00    +0.000 NA
BRANCH  14  16
ATOM     16  C   UNL     1       0.640  11.564  19.982  0.00  0.00    +0.000 C 
ATOM     17  F   UNL     1      -0.573  11.893  19.454  0.00  0.00    +0.000 F 
ATOM     18  F   UNL     1       0.462  11.474  21.325  0.00  0.00    +0.000 F 
ATOM     19  F   UNL     1       1.453  12.628  19.753  0.00  0.00    +0.000 F 
ENDBRANCH  14  16
ENDBRANCH   9  11
ENDBRANCH   2   5
BRANCH   1  20
ATOM     20  C   UNL     1       6.989   4.757  17.820  0.00  0.00    +0.000 C 
BRANCH  20  24
ATOM     21  C   UNL     1       7.273   4.737  14.224  0.00  0.00    +0.000 A 
ATOM     22  C   UNL     1       6.200   3.872  14.301  0.00  0.00    +0.000 A 
ATOM     23  C   UNL     1       5.898   3.711  15.673  0.00  0.00    +0.000 A 
ATOM     24  C   UNL     1       6.803   4.487  16.369  0.00  0.00    +0.000 A 
ATOM     25  O   UNL     1       7.649   5.115  15.492  0.00  0.00    +0.000 OA
BRANCH  21  27
ATOM     26  N   UNL     1       7.536   4.789  11.860  0.00  0.00    +0.000 N 
ATOM     27  C   UNL     1       7.975   5.254  13.069  0.00  0.00    +0.000 C 
ATOM     28  O   UNL     1       8.898   6.060  13.116  0.00  0.00    +0.000 OA
ATOM     29  H   UNL     1       7.941   5.192  11.027  0.00  0.00    +0.000 HD
ATOM     30  H   UNL     1       6.701   4.225  11.795  0.00  0.00    +0.000 HD
ENDBRANCH  21  27
ENDBRANCH  20  24
ENDBRANCH   1  20
TORSDOF 6
ENDMDL
MODEL 6
REMARK VINA RESULT:      -8.0      5.213      9.957
REMARK  Name = 
REMARK  6 active torsions:
REMARK  status: ('A' for Active; 'I' for Inactive)
REMARK    1  A    between atoms: C_2  and  C_4
REMARK    2  A    between atoms: C_7  and  C_8
REMARK    3  A    between atoms: C_8  and  N_9
REMARK    4  A    between atoms: C_10  and  C_12
REMARK    5  A    between atoms: C_16  and  N_17
REMARK    6  A    between atoms: C_20  and  C_21
REMARK                            x       y       z     vdW  Elec       q    Type
REMARK                         _______ _______ _______ _____ _____    ______ ____
ROOT
ATOM      1  N   UNL     1       5.935   4.654  16.277  0.00  0.00    +0.000 N 
ATOM      2  C   UNL     1       5.756   4.542  17.639  0.00  0.00    +0.000 C 
ATOM      3  O   UNL     1       6.676   4.444  18.441  0.00  0.00    +0.000 OA
ATOM      4  H   UNL     1       5.177   4.984  15.697  0.00  0.00    +0.000 HD
ENDROOT
BRANCH   2   5
ATOM      5  C   UNL     1       4.337   4.588  18.102  0.00  0.00    +0.000 A 
ATOM      6  C   UNL     1       3.569   3.418  18.114  0.00  0.00    +0.000 A 
ATOM      7  C   UNL     1       2.269   3.445  18.626  0.00  0.00    +0.000 A 
ATOM      8  C   UNL     1       1.743   4.627  19.157  0.00  0.00    +0.000 A 
ATOM      9  C   UNL     1       2.503   5.806  19.134  0.00  0.00    +0.000 A 
ATOM     10  C   UNL     1       3.780   5.788  18.561  0.00  0.00    +0.000 A 
BRANCH   9  11
ATOM     11  N   UNL     1       2.024   6.989  19.761  0.00  0.00    +0.000 N 
ATOM     12  C   UNL     1       1.461   7.104  21.013  0.00  0.00    +0.000 A 
ATOM     13  C   UNL     1       0.950   8.371  21.114  0.00  0.00    +0.000 A 
ATOM     14  C   UNL     1       1.270   9.001  19.888  0.00  0.00    +0.000 A 
ATOM     15  N   UNL     1       1.978   8.170  19.094  0.00  0.00    +0.000 NA
BRANCH  14  16
ATOM     16  C   UNL     1       0.881  10.396  19.483  0.00  0.00    +0.000 C 
ATOM     17  F   UNL     1      -0.472  10.563  19.510  0.00  0.00    +0.000 F 
ATOM     18  F   UNL     1       1.400  11.346  20.303  0.00  0.00    +0.000 F 
ATOM     19  F   UNL     1       1.274  10.697  18.218  0.00  0.00    +0.000 F 
ENDBRANCH  14  16
ENDBRANCH   9  11
ENDBRANCH   2   5
BRANCH   1  20
ATOM     20  C   UNL     1       7.241   4.688  15.666  0.00  0.00    +0.000 C 
BRANCH  20  24
ATOM     21  C   UNL     1       6.195   3.538  12.411  0.00  0.00    +0.000 A 
ATOM     22  C   UNL     1       7.119   4.461  11.962  0.00  0.00    +0.000 A 
ATOM     23  C   UNL     1       7.679   5.073  13.106  0.00  0.00    +0.000 A 
ATOM     24  C   UNL     1       7.071   4.494  14.201  0.00  0.00    +0.000 A 
ATOM     25  O   UNL     1       6.160   3.557  13.787  0.00  0.00    +0.000 OA
BRANCH  21  27
ATOM     26  N   UNL     1       4.127   3.128  11.307  0.00  0.00    +0.000 N 
ATOM     27  C   UNL     1       5.348   2.629  11.671  0.00  0.00    +0.000 C 
ATOM     28  O   UNL     1       5.658   1.484  11.358  0.00  0.00    +0.000 OA
ATOM     29  H   UNL     1       3.543   2.555  10.714  0.00  0.00    +0.000 HD
ATOM     30  H   UNL     1       3.906   4.103  11.446  0.00  0.00    +0.000 HD
ENDBRANCH  21  27
ENDBRANCH  20  24
ENDBRANCH   1  20
TORSDOF 6
ENDMDL
MODEL 7
REMARK VINA RESULT:      -8.0      3.186      3.758
REMARK  Name = 
REMARK  6 active torsions:
REMARK  status: ('A' for Active; 'I' for Inactive)
REMARK    1  A    between atoms: C_2  and  C_4
REMARK    2  A    between atoms: C_7  and  C_8
REMARK    3  A    between atoms: C_8  and  N_9
REMARK    4  A    between atoms: C_10  and  C_12
REMARK    5  A    between atoms: C_16  and  N_17
REMARK    6  A    between atoms: C_20  and  C_21
REMARK                            x       y       z     vdW  Elec       q    Type
REMARK                         _______ _______ _______ _____ _____    ______ ____
ROOT
ATOM      1  N   UNL     1       0.344  10.003  19.115  0.00  0.00    +0.000 N 
ATOM      2  C   UNL     1       1.426   9.477  18.444  0.00  0.00    +0.000 C 
ATOM      3  O   UNL     1       1.974  10.027  17.497  0.00  0.00    +0.000 OA
ATOM      4  H   UNL     1       0.098   9.645  20.027  0.00  0.00    +0.000 HD
ENDROOT
BRANCH   2   5
ATOM      5  C   UNL     1       1.937   8.177  18.974  0.00  0.00    +0.000 A 
ATOM      6  C   UNL     1       1.620   7.783  20.279  0.00  0.00    +0.000 A 
ATOM      7  C   UNL     1       2.028   6.531  20.745  0.00  0.00    +0.000 A 
ATOM      8  C   UNL     1       2.722   5.655  19.904  0.00  0.00    +0.000 A 
ATOM      9  C   UNL     1       3.055   6.051  18.601  0.00  0.00    +0.000 A 
ATOM     10  C   UNL     1       2.701   7.331  18.161  0.00  0.00    +0.000 A 
BRANCH   9  11
ATOM     11  N   UNL     1       3.669   5.136  17.701  0.00  0.00    +0.000 N 
ATOM     12  C   UNL     1       3.522   3.767  17.669  0.00  0.00    +0.000 A 
ATOM     13  C   UNL     1       4.456   3.278  16.794  0.00  0.00    +0.000 A 
ATOM     14  C   UNL     1       5.126   4.417  16.290  0.00  0.00    +0.000 A 
ATOM     15  N   UNL     1       4.598   5.549  16.802  0.00  0.00    +0.000 NA
BRANCH  14  16
ATOM     16  C   UNL     1       6.281   4.409  15.326  0.00  0.00    +0.000 C 
ATOM     17  F   UNL     1       6.278   5.519  14.535  0.00  0.00    +0.000 F 
ATOM     18  F   UNL     1       7.487   4.387  15.951  0.00  0.00    +0.000 F 
ATOM     19  F   UNL     1       6.244   3.344  14.483  0.00  0.00    +0.000 F 
ENDBRANCH  14  16
ENDBRANCH   9  11
ENDBRANCH   2   5
BRANCH   1  20
ATOM     20  C   UNL     1      -0.238  11.278  18.772  0.00  0.00    +0.000 C 
BRANCH  20  24
ATOM     21  C   UNL     1      -3.743  11.341  17.923  0.00  0.00    +0.000 A 
ATOM     22  C   UNL     1      -3.381  10.356  17.024  0.00  0.00    +0.000 A 
ATOM     23  C   UNL     1      -1.989  10.155  17.171  0.00  0.00    +0.000 A 
ATOM     24  C   UNL     1      -1.567  11.027  18.154  0.00  0.00    +0.000 A 
ATOM     25  O   UNL     1      -2.631  11.758  18.618  0.00  0.00    +0.000 OA
BRANCH  21  27
ATOM     26  N   UNL     1      -5.545  12.725  17.219  0.00  0.00    +0.000 N 
ATOM     27  C   UNL     1      -5.039  11.920  18.202  0.00  0.00    +0.000 C 
ATOM     28  O   UNL     1      -5.684  11.727  19.228  0.00  0.00    +0.000 OA
ATOM     29  H   UNL     1      -6.485  13.077  17.338  0.00  0.00    +0.000 HD
ATOM     30  H   UNL     1      -5.088  12.794  16.322  0.00  0.00    +0.000 HD
ENDBRANCH  21  27
ENDBRANCH  20  24
ENDBRANCH   1  20
TORSDOF 6
ENDMDL
MODEL 8
REMARK VINA RESULT:      -8.0      5.190     10.137
REMARK  Name = 
REMARK  6 active torsions:
REMARK  status: ('A' for Active; 'I' for Inactive)
REMARK    1  A    between atoms: C_2  and  C_4
REMARK    2  A    between atoms: C_7  and  C_8
REMARK    3  A    between atoms: C_8  and  N_9
REMARK    4  A    between atoms: C_10  and  C_12
REMARK    5  A    between atoms: C_16  and  N_17
REMARK    6  A    between atoms: C_20  and  C_21
REMARK                            x       y       z     vdW  Elec       q    Type
REMARK                         _______ _______ _______ _____ _____    ______ ____
ROOT
ATOM      1  N   UNL     1       6.169   4.961  16.027  0.00  0.00    +0.000 N 
ATOM      2  C   UNL     1       5.688   6.053  16.715  0.00  0.00    +0.000 C 
ATOM      3  O   UNL     1       6.298   7.108  16.832  0.00  0.00    +0.000 OA
ATOM      4  H   UNL     1       5.535   4.226  15.747  0.00  0.00    +0.000 HD
ENDROOT
BRANCH   2   5
ATOM      5  C   UNL     1       4.322   5.891  17.296  0.00  0.00    +0.000 A 
ATOM      6  C   UNL     1       3.697   4.639  17.272  0.00  0.00    +0.000 A 
ATOM      7  C   UNL     1       2.455   4.469  17.889  0.00  0.00    +0.000 A 
ATOM      8  C   UNL     1       1.848   5.536  18.561  0.00  0.00    +0.000 A 
ATOM      9  C   UNL     1       2.463   6.796  18.576  0.00  0.00    +0.000 A 
ATOM     10  C   UNL     1       3.675   6.977  17.900  0.00  0.00    +0.000 A 
BRANCH   9  11
ATOM     11  N   UNL     1       1.911   7.862  19.339  0.00  0.00    +0.000 N 
ATOM     12  C   UNL     1       1.576   7.849  20.676  0.00  0.00    +0.000 A 
ATOM     13  C   UNL     1       0.883   9.003  20.932  0.00  0.00    +0.000 A 
ATOM     14  C   UNL     1       0.861   9.705  19.704  0.00  0.00    +0.000 A 
ATOM     15  N   UNL     1       1.543   9.030  18.754  0.00  0.00    +0.000 NA
BRANCH  14  16
ATOM     16  C   UNL     1       0.171  11.017  19.448  0.00  0.00    +0.000 C 
ATOM     17  F   UNL     1      -0.836  11.233  20.341  0.00  0.00    +0.000 F 
ATOM     18  F   UNL     1       1.010  12.080  19.551  0.00  0.00    +0.000 F 
ATOM     19  F   UNL     1      -0.399  11.071  18.216  0.00  0.00    +0.000 F 
ENDBRANCH  14  16
ENDBRANCH   9  11
ENDBRANCH   2   5
BRANCH   1  20
ATOM     20  C   UNL     1       7.445   4.967  15.354  0.00  0.00    +0.000 C 
BRANCH  20  24
ATOM     21  C   UNL     1       6.250   3.542  12.263  0.00  0.00    +0.000 A 
ATOM     22  C   UNL     1       7.170   4.402  11.695  0.00  0.00    +0.000 A 
ATOM     23  C   UNL     1       7.786   5.106  12.755  0.00  0.00    +0.000 A 
ATOM     24  C   UNL     1       7.213   4.642  13.921  0.00  0.00    +0.000 A 
ATOM     25  O   UNL     1       6.271   3.688  13.631  0.00  0.00    +0.000 OA
BRANCH  21  27
ATOM     26  N   UNL     1       5.868   1.324  11.492  0.00  0.00    +0.000 N 
ATOM     27  C   UNL     1       5.360   2.585  11.644  0.00  0.00    +0.000 C 
ATOM     28  O   UNL     1       4.218   2.833  11.271  0.00  0.00    +0.000 OA
ATOM     29  H   UNL     1       5.247   0.606  11.145  0.00  0.00    +0.000 HD
ATOM     30  H   UNL     1       6.754   1.071  11.904  0.00  0.00    +0.000 HD
ENDBRANCH  21  27
ENDBRANCH  20  24
ENDBRANCH   1  20
TORSDOF 6
ENDMDL
MODEL 9
REMARK VINA RESULT:      -7.9      4.324      5.743
REMARK  Name = 
REMARK  6 active torsions:
REMARK  status: ('A' for Active; 'I' for Inactive)
REMARK    1  A    between atoms: C_2  and  C_4
REMARK    2  A    between atoms: C_7  and  C_8
REMARK    3  A    between atoms: C_8  and  N_9
REMARK    4  A    between atoms: C_10  and  C_12
REMARK    5  A    between atoms: C_16  and  N_17
REMARK    6  A    between atoms: C_20  and  C_21
REMARK                            x       y       z     vdW  Elec       q    Type
REMARK                         _______ _______ _______ _____ _____    ______ ____
ROOT
ATOM      1  N   UNL     1      -0.305  10.134  21.916  0.00  0.00    +0.000 N 
ATOM      2  C   UNL     1       0.762  10.582  21.168  0.00  0.00    +0.000 C 
ATOM      3  O   UNL     1       1.355  11.630  21.386  0.00  0.00    +0.000 OA
ATOM      4  H   UNL     1      -0.587   9.166  21.857  0.00  0.00    +0.000 HD
ENDROOT
BRANCH   2   5
ATOM      5  C   UNL     1       1.195   9.673  20.065  0.00  0.00    +0.000 A 
ATOM      6  C   UNL     1       1.293  10.159  18.757  0.00  0.00    +0.000 A 
ATOM      7  C   UNL     1       1.778   9.331  17.741  0.00  0.00    +0.000 A 
ATOM      8  C   UNL     1       2.197   8.029  18.031  0.00  0.00    +0.000 A 
ATOM      9  C   UNL     1       2.088   7.531  19.338  0.00  0.00    +0.000 A 
ATOM     10  C   UNL     1       1.541   8.343  20.337  0.00  0.00    +0.000 A 
BRANCH   9  11
ATOM     11  N   UNL     1       2.604   6.248  19.669  0.00  0.00    +0.000 N 
ATOM     12  C   UNL     1       3.771   5.673  19.217  0.00  0.00    +0.000 A 
ATOM     13  C   UNL     1       3.759   4.361  19.615  0.00  0.00    +0.000 A 
ATOM     14  C   UNL     1       2.559   4.207  20.349  0.00  0.00    +0.000 A 
ATOM     15  N   UNL     1       1.891   5.377  20.428  0.00  0.00    +0.000 NA
BRANCH  14  16
ATOM     16  C   UNL     1       2.055   2.927  20.959  0.00  0.00    +0.000 C 
ATOM     17  F   UNL     1       2.891   2.479  21.937  0.00  0.00    +0.000 F 
ATOM     18  F   UNL     1       0.832   3.065  21.534  0.00  0.00    +0.000 F 
ATOM     19  F   UNL     1       1.963   1.921  20.050  0.00  0.00    +0.000 F 
ENDBRANCH  14  16
ENDBRANCH   9  11
ENDBRANCH   2   5
BRANCH   1  20
ATOM     20  C   UNL     1      -0.814  10.860  23.054  0.00  0.00    +0.000 C 
BRANCH  20  24
ATOM     21  C   UNL     1      -3.961  12.601  22.767  0.00  0.00    +0.000 A 
ATOM     22  C   UNL     1      -3.436  13.025  21.562  0.00  0.00    +0.000 A 
ATOM     23  C   UNL     1      -2.147  12.453  21.450  0.00  0.00    +0.000 A 
ATOM     24  C   UNL     1      -1.946  11.707  22.593  0.00  0.00    +0.000 A 
ATOM     25  O   UNL     1      -3.047  11.794  23.406  0.00  0.00    +0.000 OA
BRANCH  21  27
ATOM     26  N   UNL     1      -5.207  13.619  24.520  0.00  0.00    +0.000 N 
ATOM     27  C   UNL     1      -5.245  12.873  23.374  0.00  0.00    +0.000 C 
ATOM     28  O   UNL     1      -6.322  12.493  22.926  0.00  0.00    +0.000 OA
ATOM     29  H   UNL     1      -6.088  13.904  24.924  0.00  0.00    +0.000 HD
ATOM     30  H   UNL     1      -4.346  14.043  24.831  0.00  0.00    +0.000 HD
ENDBRANCH  21  27
ENDBRANCH  20  24
ENDBRANCH   1  20
TORSDOF 6
ENDMDL
