MODEL 1
REMARK VINA RESULT:      -8.2      0.000      0.000
REMARK  Name = 
REMARK  6 active torsions:
REMARK  status: ('A' for Active; 'I' for Inactive)
REMARK    1  A    between atoms: C_1  and  N_2
REMARK    2  A    between atoms: C_6  and  C_7
REMARK    3  A    between atoms: C_7  and  C_8
REMARK    4  A    between atoms: C_12  and  N_13
REMARK    5  A    between atoms: C_18  and  N_19
REMARK    6  A    between atoms: C_23  and  C_24
REMARK                            x       y       z     vdW  Elec       q    Type
REMARK                         _______ _______ _______ _____ _____    ______ ____
ROOT
ATOM      1  N   UNL     1       3.784   4.669  19.184  0.00  0.00    +0.000 N 
ATOM      2  C   UNL     1       5.130   5.285  19.273  0.00  0.00    +0.000 C 
ATOM      3  C   UNL     1       5.675   5.080  17.889  0.00  0.00    +0.000 A 
ATOM      4  C   UNL     1       5.045   3.956  17.369  0.00  0.00    +0.000 A 
ATOM      5  C   UNL     1       5.274   3.494  16.088  0.00  0.00    +0.000 A 
ATOM      6  C   UNL     1       6.200   4.167  15.282  0.00  0.00    +0.000 A 
ATOM      7  C   UNL     1       6.792   5.354  15.779  0.00  0.00    +0.000 A 
ATOM      8  C   UNL     1       6.533   5.835  17.095  0.00  0.00    +0.000 A 
ATOM      9  C   UNL     1       3.913   3.596  18.265  0.00  0.00    +0.000 C 
ATOM     10  O   UNL     1       3.171   2.672  18.069  0.00  0.00    +0.000 OA
ENDROOT
BRANCH   1  15
ATOM     11  C   UNL     1       1.840   7.600  19.970  0.00  0.00    +0.000 A 
ATOM     12  C   UNL     1       2.477   8.413  19.025  0.00  0.00    +0.000 A 
ATOM     13  C   UNL     1       3.018   7.857  17.871  0.00  0.00    +0.000 A 
ATOM     14  C   UNL     1       3.048   6.478  17.718  0.00  0.00    +0.000 A 
ATOM     15  C   UNL     1       2.788   5.680  18.838  0.00  0.00    +0.000 A 
ATOM     16  C   UNL     1       1.999   6.207  19.869  0.00  0.00    +0.000 A 
BRANCH  11  17
ATOM     17  C   UNL     1       0.960   8.233  21.022  0.00  0.00    +0.000 C 
BRANCH  17  23
ATOM     18  C   UNL     1      -0.860   9.975  19.092  0.00  0.00    +0.000 C 
ATOM     19  N   UNL     1       0.026  10.438  20.125  0.00  0.00    +0.000 N 
ATOM     20  C   UNL     1       0.194  11.742  20.477  0.00  0.00    +0.000 A 
ATOM     21  N   UNL     1       1.041  11.827  21.473  0.00  0.00    +0.000 NA
ATOM     22  N   UNL     1       1.444  10.555  21.780  0.00  0.00    +0.000 NA
ATOM     23  C   UNL     1       0.836   9.713  20.962  0.00  0.00    +0.000 A 
ENDBRANCH  17  23
ENDBRANCH  11  17
ENDBRANCH   1  15
BRANCH   8  24
ATOM     24  C   UNL     1       7.129   7.143  17.552  0.00  0.00    +0.000 C 
ATOM     25  F   UNL     1       6.220   8.136  17.759  0.00  0.00    +0.000 F 
ATOM     26  F   UNL     1       7.807   7.023  18.726  0.00  0.00    +0.000 F 
ATOM     27  F   UNL     1       8.021   7.657  16.658  0.00  0.00    +0.000 F 
ENDBRANCH   8  24
BRANCH   6  28
ATOM     28  N   UNL     1       6.448   3.558  14.028  0.00  0.00    +0.000 N 
ATOM     29  C   UNL     1       5.607   3.708  12.850  0.00  0.00    +0.000 C 
ATOM     30  C   UNL     1       6.929   4.406  12.932  0.00  0.00    +0.000 C 
ENDBRANCH   6  28
TORSDOF 5
ENDMDL
MODEL 2
REMARK VINA RESULT:      -8.1      7.060      9.936
REMARK  Name = 
REMARK  6 active torsions:
REMARK  status: ('A' for Active; 'I' for Inactive)
REMARK    1  A    between atoms: C_1  and  N_2
REMARK    2  A    between atoms: C_6  and  C_7
REMARK    3  A    between atoms: C_7  and  C_8
REMARK    4  A    between atoms: C_12  and  N_13
REMARK    5  A    between atoms: C_18  and  N_19
REMARK    6  A    between atoms: C_23  and  C_24
REMARK                            x       y       z     vdW  Elec       q    Type
REMARK                         _______ _______ _______ _____ _____    ______ ____
ROOT
ATOM      1  N   UNL     1      -0.460  11.219  18.315  0.00  0.00    +0.000 N 
ATOM      2  C   UNL     1       0.273  10.405  19.314  0.00  0.00    +0.000 C 
ATOM      3  C   UNL     1      -0.133  11.038  20.612  0.00  0.00    +0.000 A 
ATOM      4  C   UNL     1      -0.450  12.363  20.336  0.00  0.00    +0.000 A 
ATOM      5  C   UNL     1      -0.908  13.241  21.297  0.00  0.00    +0.000 A 
ATOM      6  C   UNL     1      -1.037  12.791  22.617  0.00  0.00    +0.000 A 
ATOM      7  C   UNL     1      -0.786  11.425  22.894  0.00  0.00    +0.000 A 
ATOM      8  C   UNL     1      -0.333  10.521  21.889  0.00  0.00    +0.000 A 
ATOM      9  C   UNL     1      -0.526  12.528  18.859  0.00  0.00    +0.000 C 
ATOM     10  O   UNL     1      -0.795  13.564  18.313  0.00  0.00    +0.000 OA
ENDROOT
BRANCH   1  15
ATOM     11  C   UNL     1      -3.936  11.431  17.384  0.00  0.00    +0.000 A 
ATOM     12  C   UNL     1      -3.751  10.843  16.127  0.00  0.00    +0.000 A 
ATOM     13  C   UNL     1      -2.719   9.933  15.922  0.00  0.00    +0.000 A 
ATOM     14  C   UNL     1      -1.787   9.710  16.925  0.00  0.00    +0.000 A 
ATOM     15  C   UNL     1      -1.747  10.600  18.005  0.00  0.00    +0.000 A 
ATOM     16  C   UNL     1      -2.913  11.301  18.340  0.00  0.00    +0.000 A 
BRANCH  11  17
ATOM     17  C   UNL     1      -5.241  12.126  17.694  0.00  0.00    +0.000 C 
BRANCH  17  23
ATOM     18  C   UNL     1      -5.822  13.386  20.548  0.00  0.00    +0.000 C 
ATOM     19  N   UNL     1      -6.283  12.127  20.029  0.00  0.00    +0.000 N 
ATOM     20  C   UNL     1      -7.108  11.270  20.691  0.00  0.00    +0.000 A 
ATOM     21  N   UNL     1      -7.369  10.233  19.933  0.00  0.00    +0.000 NA
ATOM     22  N   UNL     1      -6.699  10.407  18.752  0.00  0.00    +0.000 NA
ATOM     23  C   UNL     1      -6.037  11.549  18.809  0.00  0.00    +0.000 A 
ENDBRANCH  17  23
ENDBRANCH  11  17
ENDBRANCH   1  15
BRANCH   8  24
ATOM     24  C   UNL     1      -0.151   9.059  22.215  0.00  0.00    +0.000 C 
ATOM     25  F   UNL     1       1.107   8.584  21.994  0.00  0.00    +0.000 F 
ATOM     26  F   UNL     1      -0.420   8.780  23.519  0.00  0.00    +0.000 F 
ATOM     27  F   UNL     1      -0.971   8.250  21.484  0.00  0.00    +0.000 F 
ENDBRANCH   8  24
BRANCH   6  28
ATOM     28  N   UNL     1      -1.409  13.789  23.550  0.00  0.00    +0.000 N 
ATOM     29  C   UNL     1      -0.972  15.176  23.504  0.00  0.00    +0.000 C 
ATOM     30  C   UNL     1      -2.373  14.809  23.123  0.00  0.00    +0.000 C 
ENDBRANCH   6  28
TORSDOF 5
ENDMDL
MODEL 3
REMARK VINA RESULT:      -8.0      0.724      1.070
REMARK  Name = 
REMARK  6 active torsions:
REMARK  status: ('A' for Active; 'I' for Inactive)
REMARK    1  A    between atoms: C_1  and  N_2
REMARK    2  A    between atoms: C_6  and  C_7
REMARK    3  A    between atoms: C_7  and  C_8
REMARK    4  A    between atoms: C_12  and  N_13
REMARK    5  A    between atoms: C_18  and  N_19
REMARK    6  A    between atoms: C_23  and  C_24
REMARK                            x       y       z     vdW  Elec       q    Type
REMARK                         _______ _______ _______ _____ _____    ______ ____
ROOT
ATOM      1  N   UNL     1       3.841   4.388  19.165  0.00  0.00    +0.000 N 
ATOM      2  C   UNL     1       5.177   5.024  19.255  0.00  0.00    +0.000 C 
ATOM      3  C   UNL     1       5.698   4.889  17.854  0.00  0.00    +0.000 A 
ATOM      4  C   UNL     1       5.078   3.777  17.297  0.00  0.00    +0.000 A 
ATOM      5  C   UNL     1       5.291   3.375  15.994  0.00  0.00    +0.000 A 
ATOM      6  C   UNL     1       6.189   4.098  15.201  0.00  0.00    +0.000 A 
ATOM      7  C   UNL     1       6.770   5.274  15.737  0.00  0.00    +0.000 A 
ATOM      8  C   UNL     1       6.528   5.693  17.078  0.00  0.00    +0.000 A 
ATOM      9  C   UNL     1       3.971   3.358  18.197  0.00  0.00    +0.000 C 
ATOM     10  O   UNL     1       3.241   2.429  17.975  0.00  0.00    +0.000 OA
ENDROOT
BRANCH   1  15
ATOM     11  C   UNL     1       2.074   7.424  19.972  0.00  0.00    +0.000 A 
ATOM     12  C   UNL     1       2.581   8.141  18.881  0.00  0.00    +0.000 A 
ATOM     13  C   UNL     1       2.941   7.479  17.711  0.00  0.00    +0.000 A 
ATOM     14  C   UNL     1       2.928   6.092  17.672  0.00  0.00    +0.000 A 
ATOM     15  C   UNL     1       2.820   5.394  18.881  0.00  0.00    +0.000 A 
ATOM     16  C   UNL     1       2.196   6.024  19.966  0.00  0.00    +0.000 A 
BRANCH  11  17
ATOM     17  C   UNL     1       1.365   8.164  21.082  0.00  0.00    +0.000 C 
BRANCH  17  23
ATOM     18  C   UNL     1      -0.467  10.016  22.894  0.00  0.00    +0.000 C 
ATOM     19  N   UNL     1      -0.263  10.095  21.473  0.00  0.00    +0.000 N 
ATOM     20  C   UNL     1      -0.812  11.041  20.662  0.00  0.00    +0.000 A 
ATOM     21  N   UNL     1      -0.405  10.859  19.430  0.00  0.00    +0.000 NA
ATOM     22  N   UNL     1       0.424   9.769  19.427  0.00  0.00    +0.000 NA
ATOM     23  C   UNL     1       0.507   9.302  20.661  0.00  0.00    +0.000 A 
ENDBRANCH  17  23
ENDBRANCH  11  17
ENDBRANCH   1  15
BRANCH   8  24
ATOM     24  C   UNL     1       7.109   6.991  17.580  0.00  0.00    +0.000 C 
ATOM     25  F   UNL     1       6.193   7.980  17.781  0.00  0.00    +0.000 F 
ATOM     26  F   UNL     1       7.753   6.846  18.770  0.00  0.00    +0.000 F 
ATOM     27  F   UNL     1       8.027   7.524  16.723  0.00  0.00    +0.000 F 
ENDBRANCH   8  24
BRANCH   6  28
ATOM     28  N   UNL     1       6.424   3.549  13.917  0.00  0.00    +0.000 N 
ATOM     29  C   UNL     1       5.561   3.738  12.761  0.00  0.00    +0.000 C 
ATOM     30  C   UNL     1       6.875   4.451  12.852  0.00  0.00    +0.000 C 
ENDBRANCH   6  28
TORSDOF 5
ENDMDL
MODEL 4
REMARK VINA RESULT:      -7.8      1.246      2.146
REMARK  Name = 
REMARK  6 active torsions:
REMARK  status: ('A' for Active; 'I' for Inactive)
REMARK    1  A    between atoms: C_1  and  N_2
REMARK    2  A    between atoms: C_6  and  C_7
REMARK    3  A    between atoms: C_7  and  C_8
REMARK    4  A    between atoms: C_12  and  N_13
REMARK    5  A    between atoms: C_18  and  N_19
REMARK    6  A    between atoms: C_23  and  C_24
REMARK                            x       y       z     vdW  Elec       q    Type
REMARK                         _______ _______ _______ _____ _____    ______ ____
ROOT
ATOM      1  N   UNL     1       4.672   3.658  19.016  0.00  0.00    +0.000 N 
ATOM      2  C   UNL     1       5.928   4.445  18.978  0.00  0.00    +0.000 C 
ATOM      3  C   UNL     1       6.088   4.735  17.514  0.00  0.00    +0.000 A 
ATOM      4  C   UNL     1       5.444   3.714  16.826  0.00  0.00    +0.000 A 
ATOM      5  C   UNL     1       5.354   3.679  15.449  0.00  0.00    +0.000 A 
ATOM      6  C   UNL     1       5.957   4.700  14.706  0.00  0.00    +0.000 A 
ATOM      7  C   UNL     1       6.552   5.781  15.400  0.00  0.00    +0.000 A 
ATOM      8  C   UNL     1       6.622   5.819  16.823  0.00  0.00    +0.000 A 
ATOM      9  C   UNL     1       4.640   2.927  17.799  0.00  0.00    +0.000 C 
ATOM     10  O   UNL     1       3.961   1.982  17.500  0.00  0.00    +0.000 OA
ENDROOT
BRANCH   1  15
ATOM     11  C   UNL     1       2.765   6.631  18.300  0.00  0.00    +0.000 A 
ATOM     12  C   UNL     1       1.669   5.937  17.772  0.00  0.00    +0.000 A 
ATOM     13  C   UNL     1       1.379   4.648  18.209  0.00  0.00    +0.000 A 
ATOM     14  C   UNL     1       2.254   3.996  19.066  0.00  0.00    +0.000 A 
ATOM     15  C   UNL     1       3.530   4.539  19.251  0.00  0.00    +0.000 A 
ATOM     16  C   UNL     1       3.709   5.915  19.055  0.00  0.00    +0.000 A 
BRANCH  11  17
ATOM     17  C   UNL     1       2.865   8.124  18.095  0.00  0.00    +0.000 C 
BRANCH  17  23
ATOM     18  C   UNL     1       1.546   8.243  20.979  0.00  0.00    +0.000 C 
ATOM     19  N   UNL     1       1.154   8.964  19.799  0.00  0.00    +0.000 N 
ATOM     20  C   UNL     1       0.146   9.878  19.746  0.00  0.00    +0.000 A 
ATOM     21  N   UNL     1       0.066  10.381  18.539  0.00  0.00    +0.000 NA
ATOM     22  N   UNL     1       1.037   9.784  17.779  0.00  0.00    +0.000 NA
ATOM     23  C   UNL     1       1.693   8.923  18.538  0.00  0.00    +0.000 A 
ENDBRANCH  17  23
ENDBRANCH  11  17
ENDBRANCH   1  15
BRANCH   8  24
ATOM     24  C   UNL     1       7.198   7.027  17.520  0.00  0.00    +0.000 C 
ATOM     25  F   UNL     1       7.852   6.750  18.683  0.00  0.00    +0.000 F 
ATOM     26  F   UNL     1       8.099   7.692  16.747  0.00  0.00    +0.000 F 
ATOM     27  F   UNL     1       6.247   7.945  17.856  0.00  0.00    +0.000 F 
ENDBRANCH   8  24
BRANCH   6  28
ATOM     28  N   UNL     1       5.905   4.522  13.302  0.00  0.00    +0.000 N 
ATOM     29  C   UNL     1       6.778   3.640  12.542  0.00  0.00    +0.000 C 
ATOM     30  C   UNL     1       5.347   3.268  12.785  0.00  0.00    +0.000 C 
ENDBRANCH   6  28
TORSDOF 5
ENDMDL
MODEL 5
REMARK VINA RESULT:      -7.8      4.566      9.367
REMARK  Name = 
REMARK  6 active torsions:
REMARK  status: ('A' for Active; 'I' for Inactive)
REMARK    1  A    between atoms: C_1  and  N_2
REMARK    2  A    between atoms: C_6  and  C_7
REMARK    3  A    between atoms: C_7  and  C_8
REMARK    4  A    between atoms: C_12  and  N_13
REMARK    5  A    between atoms: C_18  and  N_19
REMARK    6  A    between atoms: C_23  and  C_24
REMARK                            x       y       z     vdW  Elec       q    Type
REMARK                         _______ _______ _______ _____ _____    ______ ____
ROOT
ATOM      1  N   UNL     1      -0.395   9.282  20.199  0.00  0.00    +0.000 N 
ATOM      2  C   UNL     1      -0.953  10.332  19.314  0.00  0.00    +0.000 C 
ATOM      3  C   UNL     1      -0.826  11.569  20.154  0.00  0.00    +0.000 A 
ATOM      4  C   UNL     1      -0.857  11.162  21.482  0.00  0.00    +0.000 A 
ATOM      5  C   UNL     1      -0.722  12.040  22.538  0.00  0.00    +0.000 A 
ATOM      6  C   UNL     1      -0.572  13.405  22.268  0.00  0.00    +0.000 A 
ATOM      7  C   UNL     1      -0.466  13.820  20.918  0.00  0.00    +0.000 A 
ATOM      8  C   UNL     1      -0.587  12.903  19.834  0.00  0.00    +0.000 A 
ATOM      9  C   UNL     1      -0.722   9.681  21.522  0.00  0.00    +0.000 C 
ATOM     10  O   UNL     1      -0.703   9.036  22.535  0.00  0.00    +0.000 OA
ENDROOT
BRANCH   1  15
ATOM     11  C   UNL     1       2.437   7.197  19.411  0.00  0.00    +0.000 A 
ATOM     12  C   UNL     1       2.628   7.746  18.137  0.00  0.00    +0.000 A 
ATOM     13  C   UNL     1       2.256   9.061  17.875  0.00  0.00    +0.000 A 
ATOM     14  C   UNL     1       1.568   9.787  18.837  0.00  0.00    +0.000 A 
ATOM     15  C   UNL     1       1.029   9.099  19.930  0.00  0.00    +0.000 A 
ATOM     16  C   UNL     1       1.624   7.892  20.323  0.00  0.00    +0.000 A 
BRANCH  11  17
ATOM     17  C   UNL     1       3.153   5.921  19.784  0.00  0.00    +0.000 C 
BRANCH  17  23
ATOM     18  C   UNL     1       1.535   4.061  17.786  0.00  0.00    +0.000 C 
ATOM     19  N   UNL     1       1.610   3.963  19.218  0.00  0.00    +0.000 N 
ATOM     20  C   UNL     1       1.011   2.992  19.962  0.00  0.00    +0.000 A 
ATOM     21  N   UNL     1       1.301   3.163  21.229  0.00  0.00    +0.000 NA
ATOM     22  N   UNL     1       2.102   4.270  21.323  0.00  0.00    +0.000 NA
ATOM     23  C   UNL     1       2.285   4.758  20.108  0.00  0.00    +0.000 A 
ENDBRANCH  17  23
ENDBRANCH  11  17
ENDBRANCH   1  15
BRANCH   8  24
ATOM     24  C   UNL     1      -0.393  13.379  18.416  0.00  0.00    +0.000 C 
ATOM     25  F   UNL     1       0.851  13.152  17.908  0.00  0.00    +0.000 F 
ATOM     26  F   UNL     1      -1.253  12.785  17.546  0.00  0.00    +0.000 F 
ATOM     27  F   UNL     1      -0.593  14.722  18.279  0.00  0.00    +0.000 F 
ENDBRANCH   8  24
BRANCH   6  28
ATOM     28  N   UNL     1      -0.549  14.238  23.413  0.00  0.00    +0.000 N 
ATOM     29  C   UNL     1      -0.895  15.651  23.421  0.00  0.00    +0.000 C 
ATOM     30  C   UNL     1      -1.831  14.637  24.002  0.00  0.00    +0.000 C 
ENDBRANCH   6  28
TORSDOF 5
ENDMDL
MODEL 6
REMARK VINA RESULT:      -7.7      4.459      9.453
REMARK  Name = 
REMARK  6 active torsions:
REMARK  status: ('A' for Active; 'I' for Inactive)
REMARK    1  A    between atoms: C_1  and  N_2
REMARK    2  A    between atoms: C_6  and  C_7
REMARK    3  A    between atoms: C_7  and  C_8
REMARK    4  A    between atoms: C_12  and  N_13
REMARK    5  A    between atoms: C_18  and  N_19
REMARK    6  A    between atoms: C_23  and  C_24
REMARK                            x       y       z     vdW  Elec       q    Type
REMARK                         _______ _______ _______ _____ _____    ______ ____
ROOT
ATOM      1  N   UNL     1      -0.373   9.351  20.199  0.00  0.00    +0.000 N 
ATOM      2  C   UNL     1      -0.937  10.396  19.312  0.00  0.00    +0.000 C 
ATOM      3  C   UNL     1      -0.802  11.638  20.142  0.00  0.00    +0.000 A 
ATOM      4  C   UNL     1      -0.823  11.240  21.473  0.00  0.00    +0.000 A 
ATOM      5  C   UNL     1      -0.678  12.124  22.523  0.00  0.00    +0.000 A 
ATOM      6  C   UNL     1      -0.528  13.487  22.243  0.00  0.00    +0.000 A 
ATOM      7  C   UNL     1      -0.434  13.893  20.889  0.00  0.00    +0.000 A 
ATOM      8  C   UNL     1      -0.564  12.969  19.812  0.00  0.00    +0.000 A 
ATOM      9  C   UNL     1      -0.689   9.759  21.522  0.00  0.00    +0.000 C 
ATOM     10  O   UNL     1      -0.662   9.120  22.539  0.00  0.00    +0.000 OA
ENDROOT
BRANCH   1  15
ATOM     11  C   UNL     1       2.427   7.283  19.266  0.00  0.00    +0.000 A 
ATOM     12  C   UNL     1       2.631   7.920  18.035  0.00  0.00    +0.000 A 
ATOM     13  C   UNL     1       2.280   9.256  17.870  0.00  0.00    +0.000 A 
ATOM     14  C   UNL     1       1.601   9.921  18.881  0.00  0.00    +0.000 A 
ATOM     15  C   UNL     1       1.048   9.164  19.920  0.00  0.00    +0.000 A 
ATOM     16  C   UNL     1       1.622   7.922  20.224  0.00  0.00    +0.000 A 
BRANCH  11  17
ATOM     17  C   UNL     1       3.121   5.971  19.546  0.00  0.00    +0.000 C 
BRANCH  17  23
ATOM     18  C   UNL     1       1.107   3.798  20.683  0.00  0.00    +0.000 C 
ATOM     19  N   UNL     1       1.683   3.865  19.367  0.00  0.00    +0.000 N 
ATOM     20  C   UNL     1       1.407   2.997  18.354  0.00  0.00    +0.000 A 
ATOM     21  N   UNL     1       2.064   3.351  17.277  0.00  0.00    +0.000 NA
ATOM     22  N   UNL     1       2.791   4.470  17.587  0.00  0.00    +0.000 NA
ATOM     23  C   UNL     1       2.566   4.779  18.852  0.00  0.00    +0.000 A 
ENDBRANCH  17  23
ENDBRANCH  11  17
ENDBRANCH   1  15
BRANCH   8  24
ATOM     24  C   UNL     1      -0.381  13.437  18.389  0.00  0.00    +0.000 C 
ATOM     25  F   UNL     1      -0.575  14.773  18.204  0.00  0.00    +0.000 F 
ATOM     26  F   UNL     1       0.870  13.184  17.916  0.00  0.00    +0.000 F 
ATOM     27  F   UNL     1      -1.238  12.829  17.520  0.00  0.00    +0.000 F 
ENDBRANCH   8  24
BRANCH   6  28
ATOM     28  N   UNL     1      -0.495  14.327  23.382  0.00  0.00    +0.000 N 
ATOM     29  C   UNL     1      -1.031  15.679  23.435  0.00  0.00    +0.000 C 
ATOM     30  C   UNL     1      -1.748  14.552  24.112  0.00  0.00    +0.000 C 
ENDBRANCH   6  28
TORSDOF 5
ENDMDL
MODEL 7
REMARK VINA RESULT:      -7.5      7.054      9.757
REMARK  Name = 
REMARK  6 active torsions:
REMARK  status: ('A' for Active; 'I' for Inactive)
REMARK    1  A    between atoms: C_1  and  N_2
REMARK    2  A    between atoms: C_6  and  C_7
REMARK    3  A    between atoms: C_7  and  C_8
REMARK    4  A    between atoms: C_12  and  N_13
REMARK    5  A    between atoms: C_18  and  N_19
REMARK    6  A    between atoms: C_23  and  C_24
REMARK                            x       y       z     vdW  Elec       q    Type
REMARK                         _______ _______ _______ _____ _____    ______ ____
ROOT
ATOM      1  N   UNL     1      -0.485  11.092  18.206  0.00  0.00    +0.000 N 
ATOM      2  C   UNL     1       0.211  10.297  19.247  0.00  0.00    +0.000 C 
ATOM      3  C   UNL     1      -0.147  11.026  20.509  0.00  0.00    +0.000 A 
ATOM      4  C   UNL     1      -0.391  12.348  20.158  0.00  0.00    +0.000 A 
ATOM      5  C   UNL     1      -0.790  13.304  21.070  0.00  0.00    +0.000 A 
ATOM      6  C   UNL     1      -0.932  12.939  22.414  0.00  0.00    +0.000 A 
ATOM      7  C   UNL     1      -0.755  11.579  22.768  0.00  0.00    +0.000 A 
ATOM      8  C   UNL     1      -0.363  10.594  21.814  0.00  0.00    +0.000 A 
ATOM      9  C   UNL     1      -0.472  12.432  18.675  0.00  0.00    +0.000 C 
ATOM     10  O   UNL     1      -0.688  13.448  18.071  0.00  0.00    +0.000 OA
ENDROOT
BRANCH   1  15
ATOM     11  C   UNL     1      -4.013  11.458  17.570  0.00  0.00    +0.000 A 
ATOM     12  C   UNL     1      -3.939  10.987  16.253  0.00  0.00    +0.000 A 
ATOM     13  C   UNL     1      -2.949  10.080  15.887  0.00  0.00    +0.000 A 
ATOM     14  C   UNL     1      -1.951   9.746  16.791  0.00  0.00    +0.000 A 
ATOM     15  C   UNL     1      -1.807  10.530  17.942  0.00  0.00    +0.000 A 
ATOM     16  C   UNL     1      -2.926  11.220  18.428  0.00  0.00    +0.000 A 
BRANCH  11  17
ATOM     17  C   UNL     1      -5.272  12.146  18.042  0.00  0.00    +0.000 C 
BRANCH  17  23
ATOM     18  C   UNL     1      -7.227  10.870  20.192  0.00  0.00    +0.000 C 
ATOM     19  N   UNL     1      -6.199  11.852  20.406  0.00  0.00    +0.000 N 
ATOM     20  C   UNL     1      -5.864  12.373  21.619  0.00  0.00    +0.000 A 
ATOM     21  N   UNL     1      -4.868  13.213  21.480  0.00  0.00    +0.000 NA
ATOM     22  N   UNL     1      -4.544  13.251  20.150  0.00  0.00    +0.000 NA
ATOM     23  C   UNL     1      -5.351  12.433  19.498  0.00  0.00    +0.000 A 
ENDBRANCH  17  23
ENDBRANCH  11  17
ENDBRANCH   1  15
BRANCH   8  24
ATOM     24  C   UNL     1      -0.260   9.146  22.223  0.00  0.00    +0.000 C 
ATOM     25  F   UNL     1      -0.734   8.876  23.472  0.00  0.00    +0.000 F 
ATOM     26  F   UNL     1      -0.948   8.321  21.389  0.00  0.00    +0.000 F 
ATOM     27  F   UNL     1       1.025   8.688  22.223  0.00  0.00    +0.000 F 
ENDBRANCH   8  24
BRANCH   6  28
ATOM     28  N   UNL     1      -1.239  14.008  23.290  0.00  0.00    +0.000 N 
ATOM     29  C   UNL     1      -0.663  15.342  23.209  0.00  0.00    +0.000 C 
ATOM     30  C   UNL     1      -2.078  15.099  22.782  0.00  0.00    +0.000 C 
ENDBRANCH   6  28
TORSDOF 5
ENDMDL
MODEL 8
REMARK VINA RESULT:      -7.5      4.480      9.060
REMARK  Name = 
REMARK  6 active torsions:
REMARK  status: ('A' for Active; 'I' for Inactive)
REMARK    1  A    between atoms: C_1  and  N_2
REMARK    2  A    between atoms: C_6  and  C_7
REMARK    3  A    between atoms: C_7  and  C_8
REMARK    4  A    between atoms: C_12  and  N_13
REMARK    5  A    between atoms: C_18  and  N_19
REMARK    6  A    between atoms: C_23  and  C_24
REMARK                            x       y       z     vdW  Elec       q    Type
REMARK                         _______ _______ _______ _____ _____    ______ ____
ROOT
ATOM      1  N   UNL     1       0.372   8.625  21.230  0.00  0.00    +0.000 N 
ATOM      2  C   UNL     1      -0.822   8.886  20.389  0.00  0.00    +0.000 C 
ATOM      3  C   UNL     1      -0.879  10.385  20.360  0.00  0.00    +0.000 A 
ATOM      4  C   UNL     1      -0.272  10.837  21.526  0.00  0.00    +0.000 A 
ATOM      5  C   UNL     1      -0.108  12.176  21.815  0.00  0.00    +0.000 A 
ATOM      6  C   UNL     1      -0.596  13.128  20.912  0.00  0.00    +0.000 A 
ATOM      7  C   UNL     1      -1.151  12.677  19.689  0.00  0.00    +0.000 A 
ATOM      8  C   UNL     1      -1.297  11.292  19.390  0.00  0.00    +0.000 A 
ATOM      9  C   UNL     1       0.420   9.687  22.170  0.00  0.00    +0.000 C 
ATOM     10  O   UNL     1       1.047   9.769  23.191  0.00  0.00    +0.000 OA
ENDROOT
BRANCH   1  15
ATOM     11  C   UNL     1       2.453   6.699  19.005  0.00  0.00    +0.000 A 
ATOM     12  C   UNL     1       2.199   7.505  17.888  0.00  0.00    +0.000 A 
ATOM     13  C   UNL     1       1.894   8.853  18.050  0.00  0.00    +0.000 A 
ATOM     14  C   UNL     1       1.706   9.370  19.324  0.00  0.00    +0.000 A 
ATOM     15  C   UNL     1       1.558   8.474  20.389  0.00  0.00    +0.000 A 
ATOM     16  C   UNL     1       2.128   7.198  20.278  0.00  0.00    +0.000 A 
BRANCH  11  17
ATOM     17  C   UNL     1       3.120   5.357  18.815  0.00  0.00    +0.000 C 
BRANCH  17  23
ATOM     18  C   UNL     1       2.158   3.726  21.361  0.00  0.00    +0.000 C 
ATOM     19  N   UNL     1       1.813   3.497  19.985  0.00  0.00    +0.000 N 
ATOM     20  C   UNL     1       0.953   2.535  19.549  0.00  0.00    +0.000 A 
ATOM     21  N   UNL     1       0.826   2.611  18.248  0.00  0.00    +0.000 NA
ATOM     22  N   UNL     1       1.621   3.639  17.815  0.00  0.00    +0.000 NA
ATOM     23  C   UNL     1       2.224   4.172  18.864  0.00  0.00    +0.000 A 
ENDBRANCH  17  23
ENDBRANCH  11  17
ENDBRANCH   1  15
BRANCH   8  24
ATOM     24  C   UNL     1      -1.825  10.861  18.044  0.00  0.00    +0.000 C 
ATOM     25  F   UNL     1      -0.975  10.069  17.331  0.00  0.00    +0.000 F 
ATOM     26  F   UNL     1      -2.983  10.153  18.143  0.00  0.00    +0.000 F 
ATOM     27  F   UNL     1      -2.102  11.915  17.224  0.00  0.00    +0.000 F 
ENDBRANCH   8  24
BRANCH   6  28
ATOM     28  N   UNL     1      -0.479  14.471  21.344  0.00  0.00    +0.000 N 
ATOM     29  C   UNL     1      -0.422  14.896  22.735  0.00  0.00    +0.000 C 
ATOM     30  C   UNL     1       0.811  14.913  21.884  0.00  0.00    +0.000 C 
ENDBRANCH   6  28
TORSDOF 5
ENDMDL
MODEL 9
REMARK VINA RESULT:      -7.5      3.574      8.775
REMARK  Name = 
REMARK  6 active torsions:
REMARK  status: ('A' for Active; 'I' for Inactive)
REMARK    1  A    between atoms: C_1  and  N_2
REMARK    2  A    between atoms: C_6  and  C_7
REMARK    3  A    between atoms: C_7  and  C_8
REMARK    4  A    between atoms: C_12  and  N_13
REMARK    5  A    between atoms: C_18  and  N_19
REMARK    6  A    between atoms: C_23  and  C_24
REMARK                            x       y       z     vdW  Elec       q    Type
REMARK                         _______ _______ _______ _____ _____    ______ ____
ROOT
ATOM      1  N   UNL     1       0.762   8.305  21.152  0.00  0.00    +0.000 N 
ATOM      2  C   UNL     1      -0.470   8.555  20.365  0.00  0.00    +0.000 C 
ATOM      3  C   UNL     1      -0.465  10.048  20.216  0.00  0.00    +0.000 A 
ATOM      4  C   UNL     1       0.232  10.562  21.302  0.00  0.00    +0.000 A 
ATOM      5  C   UNL     1       0.471  11.911  21.469  0.00  0.00    +0.000 A 
ATOM      6  C   UNL     1      -0.032  12.809  20.521  0.00  0.00    +0.000 A 
ATOM      7  C   UNL     1      -0.681  12.289  19.374  0.00  0.00    +0.000 A 
ATOM      8  C   UNL     1      -0.904  10.892  19.200  0.00  0.00    +0.000 A 
ATOM      9  C   UNL     1       0.913   9.436  21.997  0.00  0.00    +0.000 C 
ATOM     10  O   UNL     1       1.606   9.569  22.969  0.00  0.00    +0.000 OA
ENDROOT
BRANCH   1  15
ATOM     11  C   UNL     1       2.733   6.057  19.140  0.00  0.00    +0.000 A 
ATOM     12  C   UNL     1       2.368   6.647  17.923  0.00  0.00    +0.000 A 
ATOM     13  C   UNL     1       2.031   7.996  17.870  0.00  0.00    +0.000 A 
ATOM     14  C   UNL     1       1.923   8.727  19.045  0.00  0.00    +0.000 A 
ATOM     15  C   UNL     1       1.885   8.031  20.259  0.00  0.00    +0.000 A 
ATOM     16  C   UNL     1       2.488   6.768  20.327  0.00  0.00    +0.000 A 
BRANCH  11  17
ATOM     17  C   UNL     1       3.429   4.717  19.135  0.00  0.00    +0.000 C 
BRANCH  17  23
ATOM     18  C   UNL     1       4.837   4.167  16.345  0.00  0.00    +0.000 C 
ATOM     19  N   UNL     1       5.459   4.510  17.595  0.00  0.00    +0.000 N 
ATOM     20  C   UNL     1       6.796   4.702  17.770  0.00  0.00    +0.000 A 
ATOM     21  N   UNL     1       7.035   5.037  19.014  0.00  0.00    +0.000 NA
ATOM     22  N   UNL     1       5.835   5.061  19.673  0.00  0.00    +0.000 NA
ATOM     23  C   UNL     1       4.881   4.737  18.818  0.00  0.00    +0.000 A 
ENDBRANCH  17  23
ENDBRANCH  11  17
ENDBRANCH   1  15
BRANCH   8  24
ATOM     24  C   UNL     1      -1.533  10.381  17.928  0.00  0.00    +0.000 C 
ATOM     25  F   UNL     1      -0.735   9.551  17.197  0.00  0.00    +0.000 F 
ATOM     26  F   UNL     1      -2.673   9.675  18.159  0.00  0.00    +0.000 F 
ATOM     27  F   UNL     1      -1.883  11.384  17.072  0.00  0.00    +0.000 F 
ENDBRANCH   8  24
BRANCH   6  28
ATOM     28  N   UNL     1       0.169  14.176  20.833  0.00  0.00    +0.000 N 
ATOM     29  C   UNL     1       0.037  14.754  22.162  0.00  0.00    +0.000 C 
ATOM     30  C   UNL     1       1.390  14.547  21.555  0.00  0.00    +0.000 C 
ENDBRANCH   6  28
TORSDOF 5
ENDMDL
