MODEL 1
REMARK VINA RESULT:      -8.7      0.000      0.000
REMARK  Name = 
REMARK  4 active torsions:
REMARK  status: ('A' for Active; 'I' for Inactive)
REMARK    1  A    between atoms: C_2  and  C_16
REMARK    2  A    between atoms: N_3  and  C_4
REMARK    3  A    between atoms: C_7  and  C_8
REMARK    4  A    between atoms: C_16  and  C_17
REMARK                            x       y       z     vdW  Elec       q    Type
REMARK                         _______ _______ _______ _____ _____    ______ ____
ROOT
ATOM      1  O   UNL     1       1.529   5.121  17.664  0.00  0.00    +0.000 OA
ATOM      2  C   UNL     1       2.625   5.225  18.215  0.00  0.00    +0.000 C 
ATOM      3  N   UNL     1       3.117   6.411  18.746  0.00  0.00    +0.000 N 
ATOM      4  H   UNL     1       4.110   6.464  18.927  0.00  0.00    +0.000 HD
ENDROOT
BRANCH   3   5
ATOM      5  C   UNL     1       2.395   7.615  18.909  0.00  0.00    +0.000 A 
ATOM      6  C   UNL     1       1.737   7.957  20.093  0.00  0.00    +0.000 A 
ATOM      7  C   UNL     1       0.970   9.122  20.178  0.00  0.00    +0.000 A 
ATOM      8  C   UNL     1       0.862   9.969  19.074  0.00  0.00    +0.000 A 
ATOM      9  C   UNL     1       1.582   9.681  17.910  0.00  0.00    +0.000 A 
ATOM     10  C   UNL     1       2.347   8.509  17.831  0.00  0.00    +0.000 A 
BRANCH   8  11
ATOM     11  C   UNL     1      -0.018  11.145  19.114  0.00  0.00    +0.000 A 
ATOM     12  N   UNL     1       0.268  12.319  18.662  0.00  0.00    +0.000 NA
ATOM     13  O   UNL     1      -0.908  13.103  18.896  0.00  0.00    +0.000 OA
ATOM     14  C   UNL     1      -1.826  12.255  19.466  0.00  0.00    +0.000 A 
ATOM     15  O   UNL     1      -2.974  12.540  19.766  0.00  0.00    +0.000 OA
ATOM     16  N   UNL     1      -1.255  11.051  19.618  0.00  0.00    +0.000 N 
ATOM     17  H   UNL     1      -1.752  10.244  19.954  0.00  0.00    +0.000 HD
ENDBRANCH   8  11
ENDBRANCH   3   5
BRANCH   2  18
ATOM     18  C   UNL     1       3.589   4.002  18.295  0.00  0.00    +0.000 C 
ATOM     19  C   UNL     1       2.776   2.782  17.747  0.00  0.00    +0.000 C 
ATOM     20  C   UNL     1       3.492   1.461  17.975  0.00  0.00    +0.000 C 
ATOM     21  O   UNL     1       3.714   1.261  19.368  0.00  0.00    +0.000 OA
ATOM     22  C   UNL     1       4.545   2.272  19.924  0.00  0.00    +0.000 C 
ATOM     23  C   UNL     1       3.895   3.645  19.781  0.00  0.00    +0.000 C 
BRANCH  18  24
ATOM     24  C   UNL     1       4.853   4.296  17.448  0.00  0.00    +0.000 A 
ATOM     25  C   UNL     1       6.099   4.578  18.037  0.00  0.00    +0.000 A 
ATOM     26  C   UNL     1       7.243   4.792  17.257  0.00  0.00    +0.000 A 
ATOM     27  C   UNL     1       7.170   4.743  15.870  0.00  0.00    +0.000 A 
ATOM     28  C   UNL     1       5.947   4.509  15.260  0.00  0.00    +0.000 A 
ATOM     29  C   UNL     1       4.801   4.308  16.037  0.00  0.00    +0.000 A 
ENDBRANCH  18  24
ENDBRANCH   2  18
TORSDOF 4
ENDMDL
MODEL 2
REMARK VINA RESULT:      -8.7      0.508      1.350
REMARK  Name = 
REMARK  4 active torsions:
REMARK  status: ('A' for Active; 'I' for Inactive)
REMARK    1  A    between atoms: C_2  and  C_16
REMARK    2  A    between atoms: N_3  and  C_4
REMARK    3  A    between atoms: C_7  and  C_8
REMARK    4  A    between atoms: C_16  and  C_17
REMARK                            x       y       z     vdW  Elec       q    Type
REMARK                         _______ _______ _______ _____ _____    ______ ____
ROOT
ATOM      1  O   UNL     1       1.647   5.187  17.515  0.00  0.00    +0.000 OA
ATOM      2  C   UNL     1       2.695   5.250  18.157  0.00  0.00    +0.000 C 
ATOM      3  N   UNL     1       3.165   6.409  18.763  0.00  0.00    +0.000 N 
ATOM      4  H   UNL     1       4.139   6.435  19.027  0.00  0.00    +0.000 HD
ENDROOT
BRANCH   3   5
ATOM      5  C   UNL     1       2.454   7.623  18.904  0.00  0.00    +0.000 A 
ATOM      6  C   UNL     1       1.755   7.969  20.063  0.00  0.00    +0.000 A 
ATOM      7  C   UNL     1       1.003   9.145  20.124  0.00  0.00    +0.000 A 
ATOM      8  C   UNL     1       0.952   9.999  19.021  0.00  0.00    +0.000 A 
ATOM      9  C   UNL     1       1.713   9.706  17.885  0.00  0.00    +0.000 A 
ATOM     10  C   UNL     1       2.463   8.522  17.830  0.00  0.00    +0.000 A 
BRANCH   8  11
ATOM     11  C   UNL     1       0.089  11.188  19.032  0.00  0.00    +0.000 A 
ATOM     12  N   UNL     1      -1.080  11.269  19.573  0.00  0.00    +0.000 NA
ATOM     13  O   UNL     1      -1.496  12.623  19.354  0.00  0.00    +0.000 OA
ATOM     14  C   UNL     1      -0.460  13.240  18.697  0.00  0.00    +0.000 A 
ATOM     15  O   UNL     1      -0.415  14.418  18.379  0.00  0.00    +0.000 OA
ATOM     16  N   UNL     1       0.506  12.336  18.481  0.00  0.00    +0.000 N 
ATOM     17  H   UNL     1       1.396  12.567  18.075  0.00  0.00    +0.000 HD
ENDBRANCH   8  11
ENDBRANCH   3   5
BRANCH   2  18
ATOM     18  C   UNL     1       3.626   4.005  18.277  0.00  0.00    +0.000 C 
ATOM     19  C   UNL     1       2.792   2.796  17.733  0.00  0.00    +0.000 C 
ATOM     20  C   UNL     1       3.469   1.461  17.999  0.00  0.00    +0.000 C 
ATOM     21  O   UNL     1       3.658   1.280  19.399  0.00  0.00    +0.000 OA
ATOM     22  C   UNL     1       4.503   2.280  19.955  0.00  0.00    +0.000 C 
ATOM     23  C   UNL     1       3.892   3.666  19.775  0.00  0.00    +0.000 C 
BRANCH  18  24
ATOM     24  C   UNL     1       4.913   4.251  17.451  0.00  0.00    +0.000 A 
ATOM     25  C   UNL     1       4.922   4.191  16.046  0.00  0.00    +0.000 A 
ATOM     26  C   UNL     1       6.083   4.467  15.311  0.00  0.00    +0.000 A 
ATOM     27  C   UNL     1       7.267   4.795  15.961  0.00  0.00    +0.000 A 
ATOM     28  C   UNL     1       7.299   4.820  17.347  0.00  0.00    +0.000 A 
ATOM     29  C   UNL     1       6.144   4.534  18.081  0.00  0.00    +0.000 A 
ENDBRANCH  18  24
ENDBRANCH   2  18
TORSDOF 4
ENDMDL
MODEL 3
REMARK VINA RESULT:      -8.6      0.770      1.668
REMARK  Name = 
REMARK  4 active torsions:
REMARK  status: ('A' for Active; 'I' for Inactive)
REMARK    1  A    between atoms: C_2  and  C_16
REMARK    2  A    between atoms: N_3  and  C_4
REMARK    3  A    between atoms: C_7  and  C_8
REMARK    4  A    between atoms: C_16  and  C_17
REMARK                            x       y       z     vdW  Elec       q    Type
REMARK                         _______ _______ _______ _____ _____    ______ ____
ROOT
ATOM      1  O   UNL     1       1.555   5.086  17.572  0.00  0.00    +0.000 OA
ATOM      2  C   UNL     1       2.634   5.204  18.154  0.00  0.00    +0.000 C 
ATOM      3  N   UNL     1       3.106   6.401  18.677  0.00  0.00    +0.000 N 
ATOM      4  H   UNL     1       4.093   6.461  18.887  0.00  0.00    +0.000 HD
ENDROOT
BRANCH   3   5
ATOM      5  C   UNL     1       2.375   7.605  18.796  0.00  0.00    +0.000 A 
ATOM      6  C   UNL     1       2.214   8.509  17.743  0.00  0.00    +0.000 A 
ATOM      7  C   UNL     1       1.549   9.723  17.934  0.00  0.00    +0.000 A 
ATOM      8  C   UNL     1       1.024  10.042  19.188  0.00  0.00    +0.000 A 
ATOM      9  C   UNL     1       1.106   9.110  20.227  0.00  0.00    +0.000 A 
ATOM     10  C   UNL     1       1.777   7.896  20.030  0.00  0.00    +0.000 A 
BRANCH   8  11
ATOM     11  C   UNL     1       0.410  11.354  19.432  0.00  0.00    +0.000 A 
ATOM     12  N   UNL     1      -0.122  11.746  20.540  0.00  0.00    +0.000 NA
ATOM     13  O   UNL     1      -0.543  13.093  20.293  0.00  0.00    +0.000 OA
ATOM     14  C   UNL     1      -0.171  13.379  19.003  0.00  0.00    +0.000 A 
ATOM     15  O   UNL     1      -0.313  14.453  18.438  0.00  0.00    +0.000 OA
ATOM     16  N   UNL     1       0.397  12.287  18.471  0.00  0.00    +0.000 N 
ATOM     17  H   UNL     1       0.812  12.272  17.556  0.00  0.00    +0.000 HD
ENDBRANCH   8  11
ENDBRANCH   3   5
BRANCH   2  18
ATOM     18  C   UNL     1       3.598   3.985  18.285  0.00  0.00    +0.000 C 
ATOM     19  C   UNL     1       2.801   2.750  17.747  0.00  0.00    +0.000 C 
ATOM     20  C   UNL     1       3.515   1.437  18.023  0.00  0.00    +0.000 C 
ATOM     21  O   UNL     1       3.704   1.270  19.425  0.00  0.00    +0.000 OA
ATOM     22  C   UNL     1       4.519   2.297  19.976  0.00  0.00    +0.000 C 
ATOM     23  C   UNL     1       3.870   3.664  19.785  0.00  0.00    +0.000 C 
BRANCH  18  24
ATOM     24  C   UNL     1       4.881   4.263  17.460  0.00  0.00    +0.000 A 
ATOM     25  C   UNL     1       4.888   4.223  16.055  0.00  0.00    +0.000 A 
ATOM     26  C   UNL     1       6.044   4.527  15.322  0.00  0.00    +0.000 A 
ATOM     27  C   UNL     1       7.224   4.863  15.975  0.00  0.00    +0.000 A 
ATOM     28  C   UNL     1       7.258   4.869  17.361  0.00  0.00    +0.000 A 
ATOM     29  C   UNL     1       6.108   4.555  18.093  0.00  0.00    +0.000 A 
ENDBRANCH  18  24
ENDBRANCH   2  18
TORSDOF 4
ENDMDL
MODEL 4
REMARK VINA RESULT:      -8.5      1.909      3.380
REMARK  Name = 
REMARK  4 active torsions:
REMARK  status: ('A' for Active; 'I' for Inactive)
REMARK    1  A    between atoms: C_2  and  C_16
REMARK    2  A    between atoms: N_3  and  C_4
REMARK    3  A    between atoms: C_7  and  C_8
REMARK    4  A    between atoms: C_16  and  C_17
REMARK                            x       y       z     vdW  Elec       q    Type
REMARK                         _______ _______ _______ _____ _____    ______ ____
ROOT
ATOM      1  O   UNL     1       4.031   7.486  16.686  0.00  0.00    +0.000 OA
ATOM      2  C   UNL     1       4.074   6.575  17.513  0.00  0.00    +0.000 C 
ATOM      3  N   UNL     1       3.399   6.598  18.727  0.00  0.00    +0.000 N 
ATOM      4  H   UNL     1       3.702   5.951  19.441  0.00  0.00    +0.000 HD
ENDROOT
BRANCH   3   5
ATOM      5  C   UNL     1       2.431   7.548  19.125  0.00  0.00    +0.000 A 
ATOM      6  C   UNL     1       1.949   8.549  18.278  0.00  0.00    +0.000 A 
ATOM      7  C   UNL     1       1.050   9.512  18.744  0.00  0.00    +0.000 A 
ATOM      8  C   UNL     1       0.613   9.477  20.069  0.00  0.00    +0.000 A 
ATOM      9  C   UNL     1       1.023   8.433  20.903  0.00  0.00    +0.000 A 
ATOM     10  C   UNL     1       1.927   7.472  20.431  0.00  0.00    +0.000 A 
BRANCH   8  11
ATOM     11  C   UNL     1      -0.253  10.538  20.601  0.00  0.00    +0.000 A 
ATOM     12  N   UNL     1      -1.105  11.230  19.923  0.00  0.00    +0.000 NA
ATOM     13  O   UNL     1      -1.722  12.099  20.881  0.00  0.00    +0.000 OA
ATOM     14  C   UNL     1      -1.159  11.792  22.095  0.00  0.00    +0.000 A 
ATOM     15  O   UNL     1      -1.462  12.286  23.170  0.00  0.00    +0.000 OA
ATOM     16  N   UNL     1      -0.233  10.841  21.906  0.00  0.00    +0.000 N 
ATOM     17  H   UNL     1       0.268  10.403  22.659  0.00  0.00    +0.000 HD
ENDBRANCH   8  11
ENDBRANCH   3   5
BRANCH   2  18
ATOM     18  C   UNL     1       4.974   5.326  17.268  0.00  0.00    +0.000 C 
ATOM     19  C   UNL     1       6.326   5.624  18.001  0.00  0.00    +0.000 C 
ATOM     20  C   UNL     1       7.402   4.605  17.664  0.00  0.00    +0.000 C 
ATOM     21  O   UNL     1       7.646   4.601  16.260  0.00  0.00    +0.000 OA
ATOM     22  C   UNL     1       6.490   4.226  15.521  0.00  0.00    +0.000 C 
ATOM     23  C   UNL     1       5.352   5.214  15.760  0.00  0.00    +0.000 C 
BRANCH  18  24
ATOM     24  C   UNL     1       4.263   4.070  17.832  0.00  0.00    +0.000 A 
ATOM     25  C   UNL     1       4.638   3.484  19.054  0.00  0.00    +0.000 A 
ATOM     26  C   UNL     1       3.952   2.379  19.575  0.00  0.00    +0.000 A 
ATOM     27  C   UNL     1       2.884   1.822  18.882  0.00  0.00    +0.000 A 
ATOM     28  C   UNL     1       2.519   2.352  17.654  0.00  0.00    +0.000 A 
ATOM     29  C   UNL     1       3.210   3.447  17.127  0.00  0.00    +0.000 A 
ENDBRANCH  18  24
ENDBRANCH   2  18
TORSDOF 4
ENDMDL
MODEL 5
REMARK VINA RESULT:      -8.4      1.749      3.400
REMARK  Name = 
REMARK  4 active torsions:
REMARK  status: ('A' for Active; 'I' for Inactive)
REMARK    1  A    between atoms: C_2  and  C_16
REMARK    2  A    between atoms: N_3  and  C_4
REMARK    3  A    between atoms: C_7  and  C_8
REMARK    4  A    between atoms: C_16  and  C_17
REMARK                            x       y       z     vdW  Elec       q    Type
REMARK                         _______ _______ _______ _____ _____    ______ ____
ROOT
ATOM      1  O   UNL     1       4.405   7.633  16.814  0.00  0.00    +0.000 OA
ATOM      2  C   UNL     1       4.261   6.628  17.511  0.00  0.00    +0.000 C 
ATOM      3  N   UNL     1       3.402   6.556  18.600  0.00  0.00    +0.000 N 
ATOM      4  H   UNL     1       3.548   5.805  19.260  0.00  0.00    +0.000 HD
ENDROOT
BRANCH   3   5
ATOM      5  C   UNL     1       2.440   7.524  18.969  0.00  0.00    +0.000 A 
ATOM      6  C   UNL     1       1.939   8.480  18.082  0.00  0.00    +0.000 A 
ATOM      7  C   UNL     1       1.048   9.465  18.517  0.00  0.00    +0.000 A 
ATOM      8  C   UNL     1       0.637   9.496  19.851  0.00  0.00    +0.000 A 
ATOM      9  C   UNL     1       1.067   8.496  20.728  0.00  0.00    +0.000 A 
ATOM     10  C   UNL     1       1.963   7.513  20.287  0.00  0.00    +0.000 A 
BRANCH   8  11
ATOM     11  C   UNL     1      -0.220  10.581  20.346  0.00  0.00    +0.000 A 
ATOM     12  N   UNL     1      -0.140  11.139  21.508  0.00  0.00    +0.000 NA
ATOM     13  O   UNL     1      -1.152  12.153  21.502  0.00  0.00    +0.000 OA
ATOM     14  C   UNL     1      -1.735  12.105  20.260  0.00  0.00    +0.000 A 
ATOM     15  O   UNL     1      -2.611  12.851  19.851  0.00  0.00    +0.000 OA
ATOM     16  N   UNL     1      -1.167  11.111  19.561  0.00  0.00    +0.000 N 
ATOM     17  H   UNL     1      -1.381  10.924  18.597  0.00  0.00    +0.000 HD
ENDBRANCH   8  11
ENDBRANCH   3   5
BRANCH   2  18
ATOM     18  C   UNL     1       5.114   5.351  17.241  0.00  0.00    +0.000 C 
ATOM     19  C   UNL     1       6.490   5.601  17.946  0.00  0.00    +0.000 C 
ATOM     20  C   UNL     1       7.525   4.549  17.582  0.00  0.00    +0.000 C 
ATOM     21  O   UNL     1       7.739   4.543  16.173  0.00  0.00    +0.000 OA
ATOM     22  C   UNL     1       6.555   4.210  15.458  0.00  0.00    +0.000 C 
ATOM     23  C   UNL     1       5.456   5.233  15.725  0.00  0.00    +0.000 C 
BRANCH  18  24
ATOM     24  C   UNL     1       4.374   4.116  17.815  0.00  0.00    +0.000 A 
ATOM     25  C   UNL     1       3.310   3.499  17.133  0.00  0.00    +0.000 A 
ATOM     26  C   UNL     1       2.684   2.353  17.641  0.00  0.00    +0.000 A 
ATOM     27  C   UNL     1       3.096   1.802  18.849  0.00  0.00    +0.000 A 
ATOM     28  C   UNL     1       4.114   2.414  19.565  0.00  0.00    +0.000 A 
ATOM     29  C   UNL     1       4.731   3.565  19.064  0.00  0.00    +0.000 A 
ENDBRANCH  18  24
ENDBRANCH   2  18
TORSDOF 4
ENDMDL
MODEL 6
REMARK VINA RESULT:      -8.4      0.854      1.300
REMARK  Name = 
REMARK  4 active torsions:
REMARK  status: ('A' for Active; 'I' for Inactive)
REMARK    1  A    between atoms: C_2  and  C_16
REMARK    2  A    between atoms: N_3  and  C_4
REMARK    3  A    between atoms: C_7  and  C_8
REMARK    4  A    between atoms: C_16  and  C_17
REMARK                            x       y       z     vdW  Elec       q    Type
REMARK                         _______ _______ _______ _____ _____    ______ ____
ROOT
ATOM      1  O   UNL     1       1.525   5.101  17.613  0.00  0.00    +0.000 OA
ATOM      2  C   UNL     1       2.609   5.214  18.187  0.00  0.00    +0.000 C 
ATOM      3  N   UNL     1       3.078   6.403  18.730  0.00  0.00    +0.000 N 
ATOM      4  H   UNL     1       4.066   6.465  18.932  0.00  0.00    +0.000 HD
ENDROOT
BRANCH   3   5
ATOM      5  C   UNL     1       2.341   7.599  18.881  0.00  0.00    +0.000 A 
ATOM      6  C   UNL     1       2.162   8.523  17.847  0.00  0.00    +0.000 A 
ATOM      7  C   UNL     1       1.490   9.728  18.069  0.00  0.00    +0.000 A 
ATOM      8  C   UNL     1       0.978  10.019  19.335  0.00  0.00    +0.000 A 
ATOM      9  C   UNL     1       1.077   9.068  20.355  0.00  0.00    +0.000 A 
ATOM     10  C   UNL     1       1.755   7.863  20.126  0.00  0.00    +0.000 A 
BRANCH   8  11
ATOM     11  C   UNL     1       0.357  11.322  19.611  0.00  0.00    +0.000 A 
ATOM     12  N   UNL     1      -0.298  12.042  18.763  0.00  0.00    +0.000 NA
ATOM     13  O   UNL     1      -0.731  13.187  19.508  0.00  0.00    +0.000 OA
ATOM     14  C   UNL     1      -0.288  12.998  20.794  0.00  0.00    +0.000 A 
ATOM     15  O   UNL     1      -0.504  13.737  21.741  0.00  0.00    +0.000 OA
ATOM     16  N   UNL     1       0.406  11.851  20.840  0.00  0.00    +0.000 N 
ATOM     17  H   UNL     1       0.773  11.464  21.691  0.00  0.00    +0.000 HD
ENDBRANCH   8  11
ENDBRANCH   3   5
BRANCH   2  18
ATOM     18  C   UNL     1       3.583   4.000  18.284  0.00  0.00    +0.000 C 
ATOM     19  C   UNL     1       2.784   2.768  17.739  0.00  0.00    +0.000 C 
ATOM     20  C   UNL     1       3.510   1.455  17.983  0.00  0.00    +0.000 C 
ATOM     21  O   UNL     1       3.722   1.268  19.380  0.00  0.00    +0.000 OA
ATOM     22  C   UNL     1       4.540   2.291  19.934  0.00  0.00    +0.000 C 
ATOM     23  C   UNL     1       3.880   3.657  19.775  0.00  0.00    +0.000 C 
BRANCH  18  24
ATOM     24  C   UNL     1       4.851   4.298  17.445  0.00  0.00    +0.000 A 
ATOM     25  C   UNL     1       6.088   4.598  18.041  0.00  0.00    +0.000 A 
ATOM     26  C   UNL     1       7.237   4.816  17.269  0.00  0.00    +0.000 A 
ATOM     27  C   UNL     1       7.176   4.753  15.882  0.00  0.00    +0.000 A 
ATOM     28  C   UNL     1       5.961   4.500  15.264  0.00  0.00    +0.000 A 
ATOM     29  C   UNL     1       4.811   4.295  16.034  0.00  0.00    +0.000 A 
ENDBRANCH  18  24
ENDBRANCH   2  18
TORSDOF 4
ENDMDL
MODEL 7
REMARK VINA RESULT:      -8.4      1.699      3.102
REMARK  Name = 
REMARK  4 active torsions:
REMARK  status: ('A' for Active; 'I' for Inactive)
REMARK    1  A    between atoms: C_2  and  C_16
REMARK    2  A    between atoms: N_3  and  C_4
REMARK    3  A    between atoms: C_7  and  C_8
REMARK    4  A    between atoms: C_16  and  C_17
REMARK                            x       y       z     vdW  Elec       q    Type
REMARK                         _______ _______ _______ _____ _____    ______ ____
ROOT
ATOM      1  O   UNL     1       4.273   7.506  16.492  0.00  0.00    +0.000 OA
ATOM      2  C   UNL     1       4.220   6.616  17.341  0.00  0.00    +0.000 C 
ATOM      3  N   UNL     1       3.458   6.693  18.500  0.00  0.00    +0.000 N 
ATOM      4  H   UNL     1       3.682   6.054  19.249  0.00  0.00    +0.000 HD
ENDROOT
BRANCH   3   5
ATOM      5  C   UNL     1       2.499   7.687  18.802  0.00  0.00    +0.000 A 
ATOM      6  C   UNL     1       1.939   7.848  20.071  0.00  0.00    +0.000 A 
ATOM      7  C   UNL     1       0.937   8.794  20.299  0.00  0.00    +0.000 A 
ATOM      8  C   UNL     1       0.489   9.604  19.254  0.00  0.00    +0.000 A 
ATOM      9  C   UNL     1       1.099   9.510  17.999  0.00  0.00    +0.000 A 
ATOM     10  C   UNL     1       2.102   8.556  17.777  0.00  0.00    +0.000 A 
BRANCH   8  11
ATOM     11  C   UNL     1      -0.630  10.535  19.452  0.00  0.00    +0.000 A 
ATOM     12  N   UNL     1      -0.724  11.415  20.390  0.00  0.00    +0.000 NA
ATOM     13  O   UNL     1      -1.962  12.092  20.140  0.00  0.00    +0.000 OA
ATOM     14  C   UNL     1      -2.483  11.528  19.002  0.00  0.00    +0.000 A 
ATOM     15  O   UNL     1      -3.511  11.872  18.438  0.00  0.00    +0.000 OA
ATOM     16  N   UNL     1      -1.662  10.548  18.598  0.00  0.00    +0.000 N 
ATOM     17  H   UNL     1      -1.796  10.033  17.746  0.00  0.00    +0.000 HD
ENDBRANCH   8  11
ENDBRANCH   3   5
BRANCH   2  18
ATOM     18  C   UNL     1       5.089   5.329  17.193  0.00  0.00    +0.000 C 
ATOM     19  C   UNL     1       6.431   5.633  17.941  0.00  0.00    +0.000 C 
ATOM     20  C   UNL     1       7.485   4.566  17.692  0.00  0.00    +0.000 C 
ATOM     21  O   UNL     1       7.762   4.471  16.297  0.00  0.00    +0.000 OA
ATOM     22  C   UNL     1       6.613   4.085  15.553  0.00  0.00    +0.000 C 
ATOM     23  C   UNL     1       5.499   5.117  15.705  0.00  0.00    +0.000 C 
BRANCH  18  24
ATOM     24  C   UNL     1       4.328   4.129  17.812  0.00  0.00    +0.000 A 
ATOM     25  C   UNL     1       4.669   3.596  19.068  0.00  0.00    +0.000 A 
ATOM     26  C   UNL     1       3.939   2.544  19.637  0.00  0.00    +0.000 A 
ATOM     27  C   UNL     1       2.860   1.988  18.959  0.00  0.00    +0.000 A 
ATOM     28  C   UNL     1       2.527   2.465  17.700  0.00  0.00    +0.000 A 
ATOM     29  C   UNL     1       3.263   3.507  17.127  0.00  0.00    +0.000 A 
ENDBRANCH  18  24
ENDBRANCH   2  18
TORSDOF 4
ENDMDL
MODEL 8
REMARK VINA RESULT:      -8.4      1.980      3.511
REMARK  Name = 
REMARK  4 active torsions:
REMARK  status: ('A' for Active; 'I' for Inactive)
REMARK    1  A    between atoms: C_2  and  C_16
REMARK    2  A    between atoms: N_3  and  C_4
REMARK    3  A    between atoms: C_7  and  C_8
REMARK    4  A    between atoms: C_16  and  C_17
REMARK                            x       y       z     vdW  Elec       q    Type
REMARK                         _______ _______ _______ _____ _____    ______ ____
ROOT
ATOM      1  O   UNL     1       4.959   7.824  17.463  0.00  0.00    +0.000 OA
ATOM      2  C   UNL     1       4.447   6.722  17.663  0.00  0.00    +0.000 C 
ATOM      3  N   UNL     1       3.261   6.533  18.361  0.00  0.00    +0.000 N 
ATOM      4  H   UNL     1       3.065   5.603  18.704  0.00  0.00    +0.000 HD
ENDROOT
BRANCH   3   5
ATOM      5  C   UNL     1       2.371   7.547  18.783  0.00  0.00    +0.000 A 
ATOM      6  C   UNL     1       1.856   8.518  17.922  0.00  0.00    +0.000 A 
ATOM      7  C   UNL     1       1.041   9.546  18.404  0.00  0.00    +0.000 A 
ATOM      8  C   UNL     1       0.723   9.607  19.762  0.00  0.00    +0.000 A 
ATOM      9  C   UNL     1       1.164   8.594  20.619  0.00  0.00    +0.000 A 
ATOM     10  C   UNL     1       1.983   7.568  20.129  0.00  0.00    +0.000 A 
BRANCH   8  11
ATOM     11  C   UNL     1      -0.049  10.734  20.301  0.00  0.00    +0.000 A 
ATOM     12  N   UNL     1      -0.939  11.416  19.662  0.00  0.00    +0.000 NA
ATOM     13  O   UNL     1      -1.428  12.369  20.614  0.00  0.00    +0.000 OA
ATOM     14  C   UNL     1      -0.760  12.117  21.786  0.00  0.00    +0.000 A 
ATOM     15  O   UNL     1      -0.939  12.691  22.850  0.00  0.00    +0.000 OA
ATOM     16  N   UNL     1       0.109  11.118  21.575  0.00  0.00    +0.000 N 
ATOM     17  H   UNL     1       0.666  10.709  22.304  0.00  0.00    +0.000 HD
ENDBRANCH   8  11
ENDBRANCH   3   5
BRANCH   2  18
ATOM     18  C   UNL     1       5.160   5.420  17.183  0.00  0.00    +0.000 C 
ATOM     19  C   UNL     1       6.635   5.527  17.698  0.00  0.00    +0.000 C 
ATOM     20  C   UNL     1       7.530   4.446  17.114  0.00  0.00    +0.000 C 
ATOM     21  O   UNL     1       7.544   4.541  15.692  0.00  0.00    +0.000 OA
ATOM     22  C   UNL     1       6.252   4.340  15.134  0.00  0.00    +0.000 C 
ATOM     23  C   UNL     1       5.277   5.404  15.629  0.00  0.00    +0.000 C 
BRANCH  18  24
ATOM     24  C   UNL     1       4.419   4.191  17.769  0.00  0.00    +0.000 A 
ATOM     25  C   UNL     1       3.367   3.556  17.084  0.00  0.00    +0.000 A 
ATOM     26  C   UNL     1       2.742   2.415  17.604  0.00  0.00    +0.000 A 
ATOM     27  C   UNL     1       3.141   1.888  18.827  0.00  0.00    +0.000 A 
ATOM     28  C   UNL     1       4.147   2.517  19.544  0.00  0.00    +0.000 A 
ATOM     29  C   UNL     1       4.764   3.664  19.032  0.00  0.00    +0.000 A 
ENDBRANCH  18  24
ENDBRANCH   2  18
TORSDOF 4
ENDMDL
MODEL 9
REMARK VINA RESULT:      -8.3      1.824      3.290
REMARK  Name = 
REMARK  4 active torsions:
REMARK  status: ('A' for Active; 'I' for Inactive)
REMARK    1  A    between atoms: C_2  and  C_16
REMARK    2  A    between atoms: N_3  and  C_4
REMARK    3  A    between atoms: C_7  and  C_8
REMARK    4  A    between atoms: C_16  and  C_17
REMARK                            x       y       z     vdW  Elec       q    Type
REMARK                         _______ _______ _______ _____ _____    ______ ____
ROOT
ATOM      1  O   UNL     1       5.089   7.811  17.627  0.00  0.00    +0.000 OA
ATOM      2  C   UNL     1       4.498   6.732  17.672  0.00  0.00    +0.000 C 
ATOM      3  N   UNL     1       3.234   6.562  18.224  0.00  0.00    +0.000 N 
ATOM      4  H   UNL     1       2.950   5.622  18.459  0.00  0.00    +0.000 HD
ENDROOT
BRANCH   3   5
ATOM      5  C   UNL     1       2.361   7.593  18.641  0.00  0.00    +0.000 A 
ATOM      6  C   UNL     1       1.849   8.560  17.772  0.00  0.00    +0.000 A 
ATOM      7  C   UNL     1       1.052   9.604  18.248  0.00  0.00    +0.000 A 
ATOM      8  C   UNL     1       0.749   9.686  19.609  0.00  0.00    +0.000 A 
ATOM      9  C   UNL     1       1.186   8.680  20.475  0.00  0.00    +0.000 A 
ATOM     10  C   UNL     1       1.987   7.637  19.991  0.00  0.00    +0.000 A 
BRANCH   8  11
ATOM     11  C   UNL     1      -0.004  10.830  20.141  0.00  0.00    +0.000 A 
ATOM     12  N   UNL     1       0.421  11.670  21.024  0.00  0.00    +0.000 NA
ATOM     13  O   UNL     1      -0.648  12.611  21.184  0.00  0.00    +0.000 OA
ATOM     14  C   UNL     1      -1.633  12.223  20.310  0.00  0.00    +0.000 A 
ATOM     15  O   UNL     1      -2.688  12.807  20.116  0.00  0.00    +0.000 OA
ATOM     16  N   UNL     1      -1.234  11.105  19.687  0.00  0.00    +0.000 N 
ATOM     17  H   UNL     1      -1.758  10.668  18.950  0.00  0.00    +0.000 HD
ENDBRANCH   8  11
ENDBRANCH   3   5
BRANCH   2  18
ATOM     18  C   UNL     1       5.185   5.432  17.153  0.00  0.00    +0.000 C 
ATOM     19  C   UNL     1       6.682   5.534  17.600  0.00  0.00    +0.000 C 
ATOM     20  C   UNL     1       7.547   4.454  16.970  0.00  0.00    +0.000 C 
ATOM     21  O   UNL     1       7.496   4.556  15.550  0.00  0.00    +0.000 OA
ATOM     22  C   UNL     1       6.179   4.361  15.050  0.00  0.00    +0.000 C 
ATOM     23  C   UNL     1       5.231   5.424  15.596  0.00  0.00    +0.000 C 
BRANCH  18  24
ATOM     24  C   UNL     1       4.470   4.201  17.766  0.00  0.00    +0.000 A 
ATOM     25  C   UNL     1       4.811   3.692  19.032  0.00  0.00    +0.000 A 
ATOM     26  C   UNL     1       4.121   2.610  19.594  0.00  0.00    +0.000 A 
ATOM     27  C   UNL     1       3.082   2.000  18.900  0.00  0.00    +0.000 A 
ATOM     28  C   UNL     1       2.751   2.453  17.632  0.00  0.00    +0.000 A 
ATOM     29  C   UNL     1       3.447   3.526  17.065  0.00  0.00    +0.000 A 
ENDBRANCH  18  24
ENDBRANCH   2  18
TORSDOF 4
ENDMDL
