MODEL 1
REMARK VINA RESULT:      -8.2      0.000      0.000
REMARK  Name = 
REMARK  6 active torsions:
REMARK  status: ('A' for Active; 'I' for Inactive)
REMARK    1  A    between atoms: C_1  and  C_2
REMARK    2  A    between atoms: C_5  and  C_6
REMARK    3  A    between atoms: C_6  and  O_7
REMARK    4  A    between atoms: O_7  and  C_8
REMARK    5  A    between atoms: C_11  and  N_12
REMARK    6  A    between atoms: C_13  and  C_15
REMARK                            x       y       z     vdW  Elec       q    Type
REMARK                         _______ _______ _______ _____ _____    ______ ____
ROOT
ATOM      1  C   UNL     1       6.366   4.830  17.524  0.00  0.00    +0.000 A 
ATOM      2  C   UNL     1       6.879   4.872  18.815  0.00  0.00    +0.000 A 
ATOM      3  C   UNL     1       7.650   5.958  19.236  0.00  0.00    +0.000 A 
ATOM      4  C   UNL     1       7.943   7.022  18.381  0.00  0.00    +0.000 A 
ATOM      5  C   UNL     1       7.455   6.962  17.069  0.00  0.00    +0.000 A 
ATOM      6  C   UNL     1       6.679   5.869  16.646  0.00  0.00    +0.000 A 
ENDROOT
BRANCH   4   7
ATOM      7  N   UNL     1       8.697   8.153  18.783  0.00  0.00    +0.000 N 
ATOM      8  C   UNL     1       8.479   9.456  18.357  0.00  0.00    +0.000 C 
ATOM      9  O   UNL     1       7.577   9.830  17.611  0.00  0.00    +0.000 OA
ATOM     10  H   UNL     1       9.431   7.982  19.458  0.00  0.00    +0.000 HD
BRANCH   8  11
ATOM     11  C   UNL     1       9.406  10.523  18.833  0.00  0.00    +0.000 A 
ATOM     12  C   UNL     1       9.640  10.804  20.186  0.00  0.00    +0.000 A 
ATOM     13  C   UNL     1      10.621  11.740  20.541  0.00  0.00    +0.000 A 
ATOM     14  C   UNL     1      11.361  12.384  19.552  0.00  0.00    +0.000 A 
ATOM     15  F   UNL     1      12.320  13.252  19.905  0.00  0.00    +0.000 F 
ATOM     16  C   UNL     1      11.124  12.115  18.212  0.00  0.00    +0.000 A 
ATOM     17  F   UNL     1      11.843  12.723  17.260  0.00  0.00    +0.000 F 
ATOM     18  C   UNL     1      10.152  11.194  17.848  0.00  0.00    +0.000 A 
ENDBRANCH   8  11
ENDBRANCH   4   7
BRANCH   1  19
ATOM     19  O   UNL     1       5.589   3.815  17.031  0.00  0.00    +0.000 OA
BRANCH  19  20
ATOM     20  C   UNL     1       4.222   4.173  16.785  0.00  0.00    +0.000 C 
BRANCH  20  25
ATOM     21  C   UNL     1       1.904   3.275  21.050  0.00  0.00    +0.000 C 
ATOM     22  C   UNL     1       2.454   3.950  19.860  0.00  0.00    +0.000 A 
ATOM     23  N   UNL     1       2.240   5.245  19.596  0.00  0.00    +0.000 NA
ATOM     24  O   UNL     1       2.940   5.446  18.405  0.00  0.00    +0.000 OA
ATOM     25  C   UNL     1       3.507   4.246  18.082  0.00  0.00    +0.000 A 
ATOM     26  N   UNL     1       3.226   3.289  18.940  0.00  0.00    +0.000 NA
ENDBRANCH  20  25
ENDBRANCH  19  20
ENDBRANCH   1  19
TORSDOF 5
ENDMDL
MODEL 2
REMARK VINA RESULT:      -8.1      0.743      1.701
REMARK  Name = 
REMARK  6 active torsions:
REMARK  status: ('A' for Active; 'I' for Inactive)
REMARK    1  A    between atoms: C_1  and  C_2
REMARK    2  A    between atoms: C_5  and  C_6
REMARK    3  A    between atoms: C_6  and  O_7
REMARK    4  A    between atoms: O_7  and  C_8
REMARK    5  A    between atoms: C_11  and  N_12
REMARK    6  A    between atoms: C_13  and  C_15
REMARK                            x       y       z     vdW  Elec       q    Type
REMARK                         _______ _______ _______ _____ _____    ______ ____
ROOT
ATOM      1  C   UNL     1       6.127   4.979  17.463  0.00  0.00    +0.000 A 
ATOM      2  C   UNL     1       6.017   6.214  16.834  0.00  0.00    +0.000 A 
ATOM      3  C   UNL     1       6.826   7.283  17.226  0.00  0.00    +0.000 A 
ATOM      4  C   UNL     1       7.755   7.157  18.261  0.00  0.00    +0.000 A 
ATOM      5  C   UNL     1       7.841   5.922  18.917  0.00  0.00    +0.000 A 
ATOM      6  C   UNL     1       7.027   4.845  18.523  0.00  0.00    +0.000 A 
ENDROOT
BRANCH   4   7
ATOM      7  N   UNL     1       8.612   8.211  18.664  0.00  0.00    +0.000 N 
ATOM      8  C   UNL     1       8.494   9.537  18.269  0.00  0.00    +0.000 C 
ATOM      9  O   UNL     1       7.609  10.001  17.555  0.00  0.00    +0.000 OA
ATOM     10  H   UNL     1       9.346   7.964  19.316  0.00  0.00    +0.000 HD
BRANCH   8  11
ATOM     11  C   UNL     1       9.521  10.511  18.740  0.00  0.00    +0.000 A 
ATOM     12  C   UNL     1      10.452  11.129  17.894  0.00  0.00    +0.000 A 
ATOM     13  C   UNL     1      11.299  12.123  18.402  0.00  0.00    +0.000 A 
ATOM     14  C   UNL     1      11.211  12.497  19.742  0.00  0.00    +0.000 A 
ATOM     15  F   UNL     1      12.002  13.473  20.208  0.00  0.00    +0.000 F 
ATOM     16  C   UNL     1      10.298  11.879  20.583  0.00  0.00    +0.000 A 
ATOM     17  F   UNL     1      10.201  12.245  21.867  0.00  0.00    +0.000 F 
ATOM     18  C   UNL     1       9.457  10.889  20.092  0.00  0.00    +0.000 A 
ENDBRANCH   8  11
ENDBRANCH   4   7
BRANCH   1  19
ATOM     19  O   UNL     1       5.388   3.873  17.136  0.00  0.00    +0.000 OA
BRANCH  19  20
ATOM     20  C   UNL     1       3.972   4.093  17.081  0.00  0.00    +0.000 C 
BRANCH  20  25
ATOM     21  C   UNL     1       2.289   2.926  21.572  0.00  0.00    +0.000 C 
ATOM     22  C   UNL     1       2.643   3.670  20.349  0.00  0.00    +0.000 A 
ATOM     23  N   UNL     1       2.332   4.960  20.169  0.00  0.00    +0.000 NA
ATOM     24  O   UNL     1       2.857   5.240  18.906  0.00  0.00    +0.000 OA
ATOM     25  C   UNL     1       3.434   4.083  18.462  0.00  0.00    +0.000 A 
ATOM     26  N   UNL     1       3.316   3.083  19.310  0.00  0.00    +0.000 NA
ENDBRANCH  20  25
ENDBRANCH  19  20
ENDBRANCH   1  19
TORSDOF 5
ENDMDL
MODEL 3
REMARK VINA RESULT:      -8.0      6.166      8.170
REMARK  Name = 
REMARK  6 active torsions:
REMARK  status: ('A' for Active; 'I' for Inactive)
REMARK    1  A    between atoms: C_1  and  C_2
REMARK    2  A    between atoms: C_5  and  C_6
REMARK    3  A    between atoms: C_6  and  O_7
REMARK    4  A    between atoms: O_7  and  C_8
REMARK    5  A    between atoms: C_11  and  N_12
REMARK    6  A    between atoms: C_13  and  C_15
REMARK                            x       y       z     vdW  Elec       q    Type
REMARK                         _______ _______ _______ _____ _____    ______ ____
ROOT
ATOM      1  C   UNL     1       4.574   5.221  18.122  0.00  0.00    +0.000 A 
ATOM      2  C   UNL     1       4.436   6.403  17.403  0.00  0.00    +0.000 A 
ATOM      3  C   UNL     1       3.520   7.377  17.810  0.00  0.00    +0.000 A 
ATOM      4  C   UNL     1       2.710   7.195  18.932  0.00  0.00    +0.000 A 
ATOM      5  C   UNL     1       2.825   5.989  19.635  0.00  0.00    +0.000 A 
ATOM      6  C   UNL     1       3.747   5.009  19.226  0.00  0.00    +0.000 A 
ENDROOT
BRANCH   4   7
ATOM      7  N   UNL     1       1.792   8.174  19.390  0.00  0.00    +0.000 N 
ATOM      8  C   UNL     1       1.379   9.286  18.669  0.00  0.00    +0.000 C 
ATOM      9  O   UNL     1       1.705   9.561  17.517  0.00  0.00    +0.000 OA
ATOM     10  H   UNL     1       1.395   8.017  20.308  0.00  0.00    +0.000 HD
BRANCH   8  11
ATOM     11  C   UNL     1       0.451  10.252  19.326  0.00  0.00    +0.000 A 
ATOM     12  C   UNL     1      -0.498  11.014  18.632  0.00  0.00    +0.000 A 
ATOM     13  C   UNL     1      -1.410  11.805  19.344  0.00  0.00    +0.000 A 
ATOM     14  C   UNL     1      -1.373  11.828  20.737  0.00  0.00    +0.000 A 
ATOM     15  F   UNL     1      -2.272  12.561  21.409  0.00  0.00    +0.000 F 
ATOM     16  C   UNL     1      -0.428  11.083  21.426  0.00  0.00    +0.000 A 
ATOM     17  F   UNL     1      -0.399  11.093  22.765  0.00  0.00    +0.000 F 
ATOM     18  C   UNL     1       0.484  10.300  20.731  0.00  0.00    +0.000 A 
ENDBRANCH   8  11
ENDBRANCH   4   7
BRANCH   1  19
ATOM     19  O   UNL     1       5.454   4.220  17.807  0.00  0.00    +0.000 OA
BRANCH  19  20
ATOM     20  C   UNL     1       6.744   4.672  17.370  0.00  0.00    +0.000 C 
BRANCH  20  25
ATOM     21  C   UNL     1       6.320   3.627  12.564  0.00  0.00    +0.000 C 
ATOM     22  C   UNL     1       6.703   4.257  13.841  0.00  0.00    +0.000 A 
ATOM     23  N   UNL     1       7.563   5.281  13.915  0.00  0.00    +0.000 NA
ATOM     24  O   UNL     1       7.618   5.550  15.284  0.00  0.00    +0.000 OA
ATOM     25  C   UNL     1       6.777   4.659  15.888  0.00  0.00    +0.000 A 
ATOM     26  N   UNL     1       6.201   3.832  15.042  0.00  0.00    +0.000 NA
ENDBRANCH  20  25
ENDBRANCH  19  20
ENDBRANCH   1  19
TORSDOF 5
ENDMDL
MODEL 4
REMARK VINA RESULT:      -8.0      6.213      8.286
REMARK  Name = 
REMARK  6 active torsions:
REMARK  status: ('A' for Active; 'I' for Inactive)
REMARK    1  A    between atoms: C_1  and  C_2
REMARK    2  A    between atoms: C_5  and  C_6
REMARK    3  A    between atoms: C_6  and  O_7
REMARK    4  A    between atoms: O_7  and  C_8
REMARK    5  A    between atoms: C_11  and  N_12
REMARK    6  A    between atoms: C_13  and  C_15
REMARK                            x       y       z     vdW  Elec       q    Type
REMARK                         _______ _______ _______ _____ _____    ______ ____
ROOT
ATOM      1  C   UNL     1       4.375   5.304  17.582  0.00  0.00    +0.000 A 
ATOM      2  C   UNL     1       4.758   6.623  17.372  0.00  0.00    +0.000 A 
ATOM      3  C   UNL     1       3.863   7.668  17.616  0.00  0.00    +0.000 A 
ATOM      4  C   UNL     1       2.561   7.427  18.060  0.00  0.00    +0.000 A 
ATOM      5  C   UNL     1       2.165   6.095  18.237  0.00  0.00    +0.000 A 
ATOM      6  C   UNL     1       3.066   5.044  17.992  0.00  0.00    +0.000 A 
ENDROOT
BRANCH   4   7
ATOM      7  N   UNL     1       1.637   8.464  18.345  0.00  0.00    +0.000 N 
ATOM      8  C   UNL     1       1.229   8.848  19.615  0.00  0.00    +0.000 C 
ATOM      9  O   UNL     1       1.640   8.384  20.676  0.00  0.00    +0.000 OA
ATOM     10  H   UNL     1       1.278   8.972  17.547  0.00  0.00    +0.000 HD
BRANCH   8  11
ATOM     11  C   UNL     1       0.200   9.921  19.735  0.00  0.00    +0.000 A 
ATOM     12  C   UNL     1      -0.154  10.527  20.948  0.00  0.00    +0.000 A 
ATOM     13  C   UNL     1      -1.042  11.612  20.949  0.00  0.00    +0.000 A 
ATOM     14  C   UNL     1      -1.567  12.085  19.748  0.00  0.00    +0.000 A 
ATOM     15  F   UNL     1      -2.388  13.144  19.758  0.00  0.00    +0.000 F 
ATOM     16  C   UNL     1      -1.226  11.479  18.548  0.00  0.00    +0.000 A 
ATOM     17  F   UNL     1      -1.719  11.940  17.391  0.00  0.00    +0.000 F 
ATOM     18  C   UNL     1      -0.352  10.401  18.534  0.00  0.00    +0.000 A 
ENDBRANCH   8  11
ENDBRANCH   4   7
BRANCH   1  19
ATOM     19  O   UNL     1       5.188   4.219  17.385  0.00  0.00    +0.000 OA
BRANCH  19  20
ATOM     20  C   UNL     1       6.552   4.541  17.080  0.00  0.00    +0.000 C 
BRANCH  20  25
ATOM     21  C   UNL     1       6.565   3.692  12.217  0.00  0.00    +0.000 C 
ATOM     22  C   UNL     1       6.824   4.275  13.547  0.00  0.00    +0.000 A 
ATOM     23  N   UNL     1       7.654   5.308  13.737  0.00  0.00    +0.000 NA
ATOM     24  O   UNL     1       7.585   5.521  15.116  0.00  0.00    +0.000 OA
ATOM     25  C   UNL     1       6.713   4.591  15.607  0.00  0.00    +0.000 A 
ATOM     26  N   UNL     1       6.228   3.791  14.682  0.00  0.00    +0.000 NA
ENDBRANCH  20  25
ENDBRANCH  19  20
ENDBRANCH   1  19
TORSDOF 5
ENDMDL
MODEL 5
REMARK VINA RESULT:      -8.0      0.941      1.548
REMARK  Name = 
REMARK  6 active torsions:
REMARK  status: ('A' for Active; 'I' for Inactive)
REMARK    1  A    between atoms: C_1  and  C_2
REMARK    2  A    between atoms: C_5  and  C_6
REMARK    3  A    between atoms: C_6  and  O_7
REMARK    4  A    between atoms: O_7  and  C_8
REMARK    5  A    between atoms: C_11  and  N_12
REMARK    6  A    between atoms: C_13  and  C_15
REMARK                            x       y       z     vdW  Elec       q    Type
REMARK                         _______ _______ _______ _____ _____    ______ ____
ROOT
ATOM      1  C   UNL     1       6.052   4.967  17.637  0.00  0.00    +0.000 A 
ATOM      2  C   UNL     1       7.084   4.755  18.542  0.00  0.00    +0.000 A 
ATOM      3  C   UNL     1       7.928   5.805  18.914  0.00  0.00    +0.000 A 
ATOM      4  C   UNL     1       7.776   7.088  18.384  0.00  0.00    +0.000 A 
ATOM      5  C   UNL     1       6.756   7.292  17.445  0.00  0.00    +0.000 A 
ATOM      6  C   UNL     1       5.907   6.235  17.072  0.00  0.00    +0.000 A 
ENDROOT
BRANCH   4   7
ATOM      7  N   UNL     1       8.594   8.182  18.761  0.00  0.00    +0.000 N 
ATOM      8  C   UNL     1       8.457   9.483  18.296  0.00  0.00    +0.000 C 
ATOM      9  O   UNL     1       7.584   9.889  17.532  0.00  0.00    +0.000 OA
ATOM     10  H   UNL     1       9.312   7.986  19.447  0.00  0.00    +0.000 HD
BRANCH   8  11
ATOM     11  C   UNL     1       9.444  10.505  18.750  0.00  0.00    +0.000 A 
ATOM     12  C   UNL     1      10.319  11.178  17.886  0.00  0.00    +0.000 A 
ATOM     13  C   UNL     1      11.127  12.211  18.381  0.00  0.00    +0.000 A 
ATOM     14  C   UNL     1      11.056  12.567  19.727  0.00  0.00    +0.000 A 
ATOM     15  F   UNL     1      11.808  13.579  20.182  0.00  0.00    +0.000 F 
ATOM     16  C   UNL     1      10.198  11.896  20.585  0.00  0.00    +0.000 A 
ATOM     17  F   UNL     1      10.117  12.246  21.875  0.00  0.00    +0.000 F 
ATOM     18  C   UNL     1       9.397  10.868  20.107  0.00  0.00    +0.000 A 
ENDBRANCH   8  11
ENDBRANCH   4   7
BRANCH   1  19
ATOM     19  O   UNL     1       5.168   4.003  17.228  0.00  0.00    +0.000 OA
BRANCH  19  20
ATOM     20  C   UNL     1       3.813   4.452  17.088  0.00  0.00    +0.000 C 
BRANCH  20  25
ATOM     21  C   UNL     1       2.282   2.692  21.438  0.00  0.00    +0.000 C 
ATOM     22  C   UNL     1       2.309   3.291  20.091  0.00  0.00    +0.000 A 
ATOM     23  N   UNL     1       1.199   3.647  19.432  0.00  0.00    +0.000 NA
ATOM     24  O   UNL     1       1.694   4.162  18.232  0.00  0.00    +0.000 OA
ATOM     25  C   UNL     1       3.055   4.065  18.301  0.00  0.00    +0.000 A 
ATOM     26  N   UNL     1       3.482   3.522  19.421  0.00  0.00    +0.000 NA
ENDBRANCH  20  25
ENDBRANCH  19  20
ENDBRANCH   1  19
TORSDOF 5
ENDMDL
MODEL 6
REMARK VINA RESULT:      -8.0      1.733      2.174
REMARK  Name = 
REMARK  6 active torsions:
REMARK  status: ('A' for Active; 'I' for Inactive)
REMARK    1  A    between atoms: C_1  and  C_2
REMARK    2  A    between atoms: C_5  and  C_6
REMARK    3  A    between atoms: C_6  and  O_7
REMARK    4  A    between atoms: O_7  and  C_8
REMARK    5  A    between atoms: C_11  and  N_12
REMARK    6  A    between atoms: C_13  and  C_15
REMARK                            x       y       z     vdW  Elec       q    Type
REMARK                         _______ _______ _______ _____ _____    ______ ____
ROOT
ATOM      1  C   UNL     1       6.583   5.453  18.464  0.00  0.00    +0.000 A 
ATOM      2  C   UNL     1       7.757   5.773  19.135  0.00  0.00    +0.000 A 
ATOM      3  C   UNL     1       8.400   6.991  18.896  0.00  0.00    +0.000 A 
ATOM      4  C   UNL     1       7.899   7.913  17.975  0.00  0.00    +0.000 A 
ATOM      5  C   UNL     1       6.734   7.574  17.275  0.00  0.00    +0.000 A 
ATOM      6  C   UNL     1       6.088   6.349  17.515  0.00  0.00    +0.000 A 
ENDROOT
BRANCH   4   7
ATOM      7  N   UNL     1       8.508   9.170  17.730  0.00  0.00    +0.000 N 
ATOM      8  C   UNL     1       9.036  10.009  18.702  0.00  0.00    +0.000 C 
ATOM      9  O   UNL     1       9.097   9.770  19.906  0.00  0.00    +0.000 OA
ATOM     10  H   UNL     1       8.582   9.447  16.760  0.00  0.00    +0.000 HD
BRANCH   8  11
ATOM     11  C   UNL     1       9.587  11.328  18.277  0.00  0.00    +0.000 A 
ATOM     12  C   UNL     1      10.868  11.496  17.733  0.00  0.00    +0.000 A 
ATOM     13  C   UNL     1      11.257  12.752  17.248  0.00  0.00    +0.000 A 
ATOM     14  C   UNL     1      10.370  13.826  17.303  0.00  0.00    +0.000 A 
ATOM     15  F   UNL     1      10.740  15.014  16.804  0.00  0.00    +0.000 F 
ATOM     16  C   UNL     1       9.106  13.664  17.850  0.00  0.00    +0.000 A 
ATOM     17  F   UNL     1       8.247  14.691  17.892  0.00  0.00    +0.000 F 
ATOM     18  C   UNL     1       8.712  12.426  18.339  0.00  0.00    +0.000 A 
ENDBRANCH   8  11
ENDBRANCH   4   7
BRANCH   1  19
ATOM     19  O   UNL     1       5.877   4.292  18.646  0.00  0.00    +0.000 OA
BRANCH  19  20
ATOM     20  C   UNL     1       4.770   4.118  17.751  0.00  0.00    +0.000 C 
BRANCH  20  25
ATOM     21  C   UNL     1       1.368   2.890  21.111  0.00  0.00    +0.000 C 
ATOM     22  C   UNL     1       2.199   2.921  19.893  0.00  0.00    +0.000 A 
ATOM     23  N   UNL     1       2.075   2.025  18.906  0.00  0.00    +0.000 NA
ATOM     24  O   UNL     1       3.033   2.439  17.979  0.00  0.00    +0.000 OA
ATOM     25  C   UNL     1       3.630   3.549  18.508  0.00  0.00    +0.000 A 
ATOM     26  N   UNL     1       3.160   3.877  19.693  0.00  0.00    +0.000 NA
ENDBRANCH  20  25
ENDBRANCH  19  20
ENDBRANCH   1  19
TORSDOF 5
ENDMDL
MODEL 7
REMARK VINA RESULT:      -8.0      6.233      8.371
REMARK  Name = 
REMARK  6 active torsions:
REMARK  status: ('A' for Active; 'I' for Inactive)
REMARK    1  A    between atoms: C_1  and  C_2
REMARK    2  A    between atoms: C_5  and  C_6
REMARK    3  A    between atoms: C_6  and  O_7
REMARK    4  A    between atoms: O_7  and  C_8
REMARK    5  A    between atoms: C_11  and  N_12
REMARK    6  A    between atoms: C_13  and  C_15
REMARK                            x       y       z     vdW  Elec       q    Type
REMARK                         _______ _______ _______ _____ _____    ______ ____
ROOT
ATOM      1  C   UNL     1       4.701   5.313  17.756  0.00  0.00    +0.000 A 
ATOM      2  C   UNL     1       5.033   6.614  17.399  0.00  0.00    +0.000 A 
ATOM      3  C   UNL     1       4.088   7.638  17.495  0.00  0.00    +0.000 A 
ATOM      4  C   UNL     1       2.785   7.393  17.934  0.00  0.00    +0.000 A 
ATOM      5  C   UNL     1       2.442   6.075  18.261  0.00  0.00    +0.000 A 
ATOM      6  C   UNL     1       3.393   5.044  18.165  0.00  0.00    +0.000 A 
ENDROOT
BRANCH   4   7
ATOM      7  N   UNL     1       1.810   8.412  18.071  0.00  0.00    +0.000 N 
ATOM      8  C   UNL     1       1.288   8.866  19.275  0.00  0.00    +0.000 C 
ATOM      9  O   UNL     1       1.624   8.490  20.395  0.00  0.00    +0.000 OA
ATOM     10  H   UNL     1       1.503   8.853  17.214  0.00  0.00    +0.000 HD
BRANCH   8  11
ATOM     11  C   UNL     1       0.220   9.907  19.237  0.00  0.00    +0.000 A 
ATOM     12  C   UNL     1      -0.615  10.124  18.133  0.00  0.00    +0.000 A 
ATOM     13  C   UNL     1      -1.672  11.040  18.230  0.00  0.00    +0.000 A 
ATOM     14  C   UNL     1      -1.890  11.728  19.423  0.00  0.00    +0.000 A 
ATOM     15  F   UNL     1      -2.924  12.576  19.516  0.00  0.00    +0.000 F 
ATOM     16  C   UNL     1      -1.058  11.521  20.513  0.00  0.00    +0.000 A 
ATOM     17  F   UNL     1      -1.275  12.170  21.665  0.00  0.00    +0.000 F 
ATOM     18  C   UNL     1      -0.006  10.621  20.427  0.00  0.00    +0.000 A 
ENDBRANCH   8  11
ENDBRANCH   4   7
BRANCH   1  19
ATOM     19  O   UNL     1       5.565   4.251  17.710  0.00  0.00    +0.000 OA
BRANCH  19  20
ATOM     20  C   UNL     1       6.859   4.554  17.169  0.00  0.00    +0.000 C 
BRANCH  20  25
ATOM     21  C   UNL     1       6.053   3.470  12.421  0.00  0.00    +0.000 C 
ATOM     22  C   UNL     1       6.537   4.110  13.657  0.00  0.00    +0.000 A 
ATOM     23  N   UNL     1       7.402   5.132  13.654  0.00  0.00    +0.000 NA
ATOM     24  O   UNL     1       7.566   5.413  15.013  0.00  0.00    +0.000 OA
ATOM     25  C   UNL     1       6.774   4.529  15.689  0.00  0.00    +0.000 A 
ATOM     26  N   UNL     1       6.131   3.696  14.898  0.00  0.00    +0.000 NA
ENDBRANCH  20  25
ENDBRANCH  19  20
ENDBRANCH   1  19
TORSDOF 5
ENDMDL
MODEL 8
REMARK VINA RESULT:      -8.0      6.068      8.045
REMARK  Name = 
REMARK  6 active torsions:
REMARK  status: ('A' for Active; 'I' for Inactive)
REMARK    1  A    between atoms: C_1  and  C_2
REMARK    2  A    between atoms: C_5  and  C_6
REMARK    3  A    between atoms: C_6  and  O_7
REMARK    4  A    between atoms: O_7  and  C_8
REMARK    5  A    between atoms: C_11  and  N_12
REMARK    6  A    between atoms: C_13  and  C_15
REMARK                            x       y       z     vdW  Elec       q    Type
REMARK                         _______ _______ _______ _____ _____    ______ ____
ROOT
ATOM      1  C   UNL     1       5.130   4.686  17.525  0.00  0.00    +0.000 A 
ATOM      2  C   UNL     1       3.782   4.733  17.187  0.00  0.00    +0.000 A 
ATOM      3  C   UNL     1       2.879   5.452  17.975  0.00  0.00    +0.000 A 
ATOM      4  C   UNL     1       3.289   6.129  19.125  0.00  0.00    +0.000 A 
ATOM      5  C   UNL     1       4.641   6.052  19.483  0.00  0.00    +0.000 A 
ATOM      6  C   UNL     1       5.550   5.329  18.691  0.00  0.00    +0.000 A 
ENDROOT
BRANCH   4   7
ATOM      7  N   UNL     1       2.406   6.892  19.930  0.00  0.00    +0.000 N 
ATOM      8  C   UNL     1       1.884   8.133  19.593  0.00  0.00    +0.000 C 
ATOM      9  O   UNL     1       2.068   8.732  18.536  0.00  0.00    +0.000 OA
ATOM     10  H   UNL     1       2.122   6.468  20.803  0.00  0.00    +0.000 HD
BRANCH   8  11
ATOM     11  C   UNL     1       1.014   8.829  20.585  0.00  0.00    +0.000 A 
ATOM     12  C   UNL     1       1.051   8.577  21.963  0.00  0.00    +0.000 A 
ATOM     13  C   UNL     1       0.286   9.365  22.834  0.00  0.00    +0.000 A 
ATOM     14  C   UNL     1      -0.503  10.397  22.330  0.00  0.00    +0.000 A 
ATOM     15  F   UNL     1      -1.204  11.166  23.175  0.00  0.00    +0.000 F 
ATOM     16  C   UNL     1      -0.548  10.641  20.965  0.00  0.00    +0.000 A 
ATOM     17  F   UNL     1      -1.295  11.641  20.479  0.00  0.00    +0.000 F 
ATOM     18  C   UNL     1       0.201   9.864  20.093  0.00  0.00    +0.000 A 
ENDBRANCH   8  11
ENDBRANCH   4   7
BRANCH   1  19
ATOM     19  O   UNL     1       6.087   4.021  16.806  0.00  0.00    +0.000 OA
BRANCH  19  20
ATOM     20  C   UNL     1       6.942   4.866  16.023  0.00  0.00    +0.000 C 
BRANCH  20  25
ATOM     21  C   UNL     1       5.709   2.911  11.661  0.00  0.00    +0.000 C 
ATOM     22  C   UNL     1       6.325   3.749  12.706  0.00  0.00    +0.000 A 
ATOM     23  N   UNL     1       7.247   4.683  12.438  0.00  0.00    +0.000 NA
ATOM     24  O   UNL     1       7.532   5.218  13.696  0.00  0.00    +0.000 OA
ATOM     25  C   UNL     1       6.743   4.549  14.589  0.00  0.00    +0.000 A 
ATOM     26  N   UNL     1       5.992   3.625  14.029  0.00  0.00    +0.000 NA
ENDBRANCH  20  25
ENDBRANCH  19  20
ENDBRANCH   1  19
TORSDOF 5
ENDMDL
MODEL 9
REMARK VINA RESULT:      -7.9      6.278      8.389
REMARK  Name = 
REMARK  6 active torsions:
REMARK  status: ('A' for Active; 'I' for Inactive)
REMARK    1  A    between atoms: C_1  and  C_2
REMARK    2  A    between atoms: C_5  and  C_6
REMARK    3  A    between atoms: C_6  and  O_7
REMARK    4  A    between atoms: O_7  and  C_8
REMARK    5  A    between atoms: C_11  and  N_12
REMARK    6  A    between atoms: C_13  and  C_15
REMARK                            x       y       z     vdW  Elec       q    Type
REMARK                         _______ _______ _______ _____ _____    ______ ____
ROOT
ATOM      1  C   UNL     1       4.170   5.297  18.110  0.00  0.00    +0.000 A 
ATOM      2  C   UNL     1       3.422   5.256  19.281  0.00  0.00    +0.000 A 
ATOM      3  C   UNL     1       2.597   6.327  19.633  0.00  0.00    +0.000 A 
ATOM      4  C   UNL     1       2.505   7.471  18.838  0.00  0.00    +0.000 A 
ATOM      5  C   UNL     1       3.285   7.526  17.676  0.00  0.00    +0.000 A 
ATOM      6  C   UNL     1       4.116   6.448  17.322  0.00  0.00    +0.000 A 
ENDROOT
BRANCH   4   7
ATOM      7  N   UNL     1       1.655   8.563  19.149  0.00  0.00    +0.000 N 
ATOM      8  C   UNL     1       1.137   8.843  20.406  0.00  0.00    +0.000 C 
ATOM      9  O   UNL     1       1.372   8.221  21.439  0.00  0.00    +0.000 OA
ATOM     10  H   UNL     1       1.445   9.194  18.387  0.00  0.00    +0.000 HD
BRANCH   8  11
ATOM     11  C   UNL     1       0.207  10.001  20.547  0.00  0.00    +0.000 A 
ATOM     12  C   UNL     1      -0.588  10.491  19.502  0.00  0.00    +0.000 A 
ATOM     13  C   UNL     1      -1.523  11.504  19.758  0.00  0.00    +0.000 A 
ATOM     14  C   UNL     1      -1.662  12.015  21.047  0.00  0.00    +0.000 A 
ATOM     15  F   UNL     1      -2.584  12.959  21.286  0.00  0.00    +0.000 F 
ATOM     16  C   UNL     1      -0.869  11.538  22.079  0.00  0.00    +0.000 A 
ATOM     17  F   UNL     1      -1.011  12.018  23.322  0.00  0.00    +0.000 F 
ATOM     18  C   UNL     1       0.064  10.540  21.838  0.00  0.00    +0.000 A 
ENDBRANCH   8  11
ENDBRANCH   4   7
BRANCH   1  19
ATOM     19  O   UNL     1       4.992   4.290  17.679  0.00  0.00    +0.000 OA
BRANCH  19  20
ATOM     20  C   UNL     1       6.344   4.691  17.415  0.00  0.00    +0.000 C 
BRANCH  20  25
ATOM     21  C   UNL     1       6.539   3.703  12.583  0.00  0.00    +0.000 C 
ATOM     22  C   UNL     1       6.751   4.322  13.904  0.00  0.00    +0.000 A 
ATOM     23  N   UNL     1       7.580   5.356  14.097  0.00  0.00    +0.000 NA
ATOM     24  O   UNL     1       7.459   5.609  15.465  0.00  0.00    +0.000 OA
ATOM     25  C   UNL     1       6.562   4.698  15.949  0.00  0.00    +0.000 A 
ATOM     26  N   UNL     1       6.108   3.875  15.028  0.00  0.00    +0.000 NA
ENDBRANCH  20  25
ENDBRANCH  19  20
ENDBRANCH   1  19
TORSDOF 5
ENDMDL
