MODEL 1
REMARK VINA RESULT:      -8.8      0.000      0.000
REMARK  Name = 
REMARK  5 active torsions:
REMARK  status: ('A' for Active; 'I' for Inactive)
REMARK    1  A    between atoms: C_2  and  C_21
REMARK    2  A    between atoms: N_3  and  C_4
REMARK    3  A    between atoms: C_4  and  C_5
REMARK    4  A    between atoms: C_4  and  C_12
REMARK    5  A    between atoms: C_5  and  C_6
REMARK                            x       y       z     vdW  Elec       q    Type
REMARK                         _______ _______ _______ _____ _____    ______ ____
ROOT
ATOM      1  C   UNL     1       4.543   4.501  17.405  0.00  0.00    +0.000 C 
ENDROOT
BRANCH   1   2
ATOM      2  C   UNL     1       5.425   4.519  16.184  0.00  0.00    +0.000 A 
ATOM      3  N   UNL     1       6.436   5.305  15.856  0.00  0.00    +0.000 NA
ATOM      4  C   UNL     1       6.771   4.952  14.558  0.00  0.00    +0.000 A 
ATOM      5  C   UNL     1       7.743   5.464  13.684  0.00  0.00    +0.000 A 
ATOM      6  C   UNL     1       7.794   4.974  12.367  0.00  0.00    +0.000 A 
ATOM      7  C   UNL     1       6.903   3.991  11.928  0.00  0.00    +0.000 A 
ATOM      8  C   UNL     1       5.966   3.430  12.797  0.00  0.00    +0.000 A 
ATOM      9  C   UNL     1       5.948   3.931  14.099  0.00  0.00    +0.000 A 
ATOM     10  N   UNL     1       5.198   3.595  15.187  0.00  0.00    +0.000 N 
ATOM     11  H   UNL     1       4.508   2.859  15.219  0.00  0.00    +0.000 HD
ENDBRANCH   1   2
BRANCH   1  14
ATOM     12  O   UNL     1       4.173   5.995  19.656  0.00  0.00    +0.000 OA
ATOM     13  C   UNL     1       3.525   6.331  18.665  0.00  0.00    +0.000 C 
ATOM     14  N   UNL     1       3.645   5.647  17.468  0.00  0.00    +0.000 N 
ATOM     15  H   UNL     1       3.124   5.877  16.633  0.00  0.00    +0.000 HD
BRANCH  13  16
ATOM     16  C   UNL     1       2.610   7.507  18.775  0.00  0.00    +0.000 A 
ATOM     17  C   UNL     1       1.977   7.715  20.014  0.00  0.00    +0.000 A 
ATOM     18  C   UNL     1       1.106   8.791  20.212  0.00  0.00    +0.000 A 
ATOM     19  C   UNL     1       0.854   9.671  19.164  0.00  0.00    +0.000 A 
ATOM     20  C   UNL     1       1.460   9.466  17.927  0.00  0.00    +0.000 A 
ATOM     21  C   UNL     1       2.335   8.388  17.725  0.00  0.00    +0.000 A 
ENDBRANCH  13  16
ENDBRANCH   1  14
BRANCH   1  22
ATOM     22  C   UNL     1       3.814   3.139  17.576  0.00  0.00    +0.000 C 
BRANCH  22  23
ATOM     23  C   UNL     1       2.925   3.002  18.795  0.00  0.00    +0.000 A 
ATOM     24  C   UNL     1       1.530   3.115  18.696  0.00  0.00    +0.000 A 
ATOM     25  C   UNL     1       0.723   3.003  19.829  0.00  0.00    +0.000 A 
ATOM     26  C   UNL     1       1.301   2.765  21.074  0.00  0.00    +0.000 A 
ATOM     27  C   UNL     1       2.685   2.630  21.182  0.00  0.00    +0.000 A 
ATOM     28  C   UNL     1       3.493   2.749  20.050  0.00  0.00    +0.000 A 
ENDBRANCH  22  23
ENDBRANCH   1  22
TORSDOF 5
ENDMDL
MODEL 2
REMARK VINA RESULT:      -8.7      0.134      1.341
REMARK  Name = 
REMARK  5 active torsions:
REMARK  status: ('A' for Active; 'I' for Inactive)
REMARK    1  A    between atoms: C_2  and  C_21
REMARK    2  A    between atoms: N_3  and  C_4
REMARK    3  A    between atoms: C_4  and  C_5
REMARK    4  A    between atoms: C_4  and  C_12
REMARK    5  A    between atoms: C_5  and  C_6
REMARK                            x       y       z     vdW  Elec       q    Type
REMARK                         _______ _______ _______ _____ _____    ______ ____
ROOT
ATOM      1  C   UNL     1       4.635   4.439  17.438  0.00  0.00    +0.000 C 
ENDROOT
BRANCH   1   2
ATOM      2  C   UNL     1       5.487   4.467  16.196  0.00  0.00    +0.000 A 
ATOM      3  N   UNL     1       6.497   5.250  15.855  0.00  0.00    +0.000 NA
ATOM      4  C   UNL     1       6.797   4.913  14.544  0.00  0.00    +0.000 A 
ATOM      5  C   UNL     1       7.752   5.430  13.654  0.00  0.00    +0.000 A 
ATOM      6  C   UNL     1       7.767   4.960  12.329  0.00  0.00    +0.000 A 
ATOM      7  C   UNL     1       6.857   3.991  11.897  0.00  0.00    +0.000 A 
ATOM      8  C   UNL     1       5.936   3.425  12.781  0.00  0.00    +0.000 A 
ATOM      9  C   UNL     1       5.954   3.906  14.090  0.00  0.00    +0.000 A 
ATOM     10  N   UNL     1       5.227   3.561  15.191  0.00  0.00    +0.000 N 
ATOM     11  H   UNL     1       4.532   2.830  15.228  0.00  0.00    +0.000 HD
ENDBRANCH   1   2
BRANCH   1  14
ATOM     12  O   UNL     1       4.278   5.902  19.710  0.00  0.00    +0.000 OA
ATOM     13  C   UNL     1       3.616   6.245  18.730  0.00  0.00    +0.000 C 
ATOM     14  N   UNL     1       3.728   5.576  17.524  0.00  0.00    +0.000 N 
ATOM     15  H   UNL     1       3.195   5.811  16.698  0.00  0.00    +0.000 HD
BRANCH  13  16
ATOM     16  C   UNL     1       2.692   7.411  18.865  0.00  0.00    +0.000 A 
ATOM     17  C   UNL     1       2.583   8.276  17.762  0.00  0.00    +0.000 A 
ATOM     18  C   UNL     1       1.742   9.393  17.794  0.00  0.00    +0.000 A 
ATOM     19  C   UNL     1       1.001   9.659  18.942  0.00  0.00    +0.000 A 
ATOM     20  C   UNL     1       1.113   8.821  20.048  0.00  0.00    +0.000 A 
ATOM     21  C   UNL     1       1.956   7.699  20.018  0.00  0.00    +0.000 A 
ENDBRANCH  13  16
ENDBRANCH   1  14
BRANCH   1  22
ATOM     22  C   UNL     1       3.924   3.070  17.623  0.00  0.00    +0.000 C 
BRANCH  22  23
ATOM     23  C   UNL     1       3.008   2.947  18.823  0.00  0.00    +0.000 A 
ATOM     24  C   UNL     1       3.519   2.716  20.110  0.00  0.00    +0.000 A 
ATOM     25  C   UNL     1       2.663   2.587  21.204  0.00  0.00    +0.000 A 
ATOM     26  C   UNL     1       1.286   2.701  21.028  0.00  0.00    +0.000 A 
ATOM     27  C   UNL     1       0.767   2.950  19.758  0.00  0.00    +0.000 A 
ATOM     28  C   UNL     1       1.622   3.072  18.662  0.00  0.00    +0.000 A 
ENDBRANCH  22  23
ENDBRANCH   1  22
TORSDOF 5
ENDMDL
MODEL 3
REMARK VINA RESULT:      -8.3      0.256      1.774
REMARK  Name = 
REMARK  5 active torsions:
REMARK  status: ('A' for Active; 'I' for Inactive)
REMARK    1  A    between atoms: C_2  and  C_21
REMARK    2  A    between atoms: N_3  and  C_4
REMARK    3  A    between atoms: C_4  and  C_5
REMARK    4  A    between atoms: C_4  and  C_12
REMARK    5  A    between atoms: C_5  and  C_6
REMARK                            x       y       z     vdW  Elec       q    Type
REMARK                         _______ _______ _______ _____ _____    ______ ____
ROOT
ATOM      1  C   UNL     1       4.367   4.356  17.319  0.00  0.00    +0.000 C 
ENDROOT
BRANCH   1   2
ATOM      2  C   UNL     1       4.988   4.363  15.947  0.00  0.00    +0.000 A 
ATOM      3  N   UNL     1       4.785   3.583  14.898  0.00  0.00    +0.000 NA
ATOM      4  C   UNL     1       5.739   3.964  13.966  0.00  0.00    +0.000 A 
ATOM      5  C   UNL     1       6.024   3.469  12.684  0.00  0.00    +0.000 A 
ATOM      6  C   UNL     1       7.133   3.986  11.991  0.00  0.00    +0.000 A 
ATOM      7  C   UNL     1       7.939   4.978  12.556  0.00  0.00    +0.000 A 
ATOM      8  C   UNL     1       7.640   5.521  13.807  0.00  0.00    +0.000 A 
ATOM      9  C   UNL     1       6.528   4.994  14.464  0.00  0.00    +0.000 A 
ATOM     10  N   UNL     1       5.950   5.307  15.658  0.00  0.00    +0.000 N 
ATOM     11  H   UNL     1       6.252   6.043  16.280  0.00  0.00    +0.000 HD
ENDBRANCH   1   2
BRANCH   1  14
ATOM     12  O   UNL     1       4.441   5.987  19.503  0.00  0.00    +0.000 OA
ATOM     13  C   UNL     1       3.562   6.224  18.674  0.00  0.00    +0.000 C 
ATOM     14  N   UNL     1       3.442   5.463  17.524  0.00  0.00    +0.000 N 
ATOM     15  H   UNL     1       2.730   5.611  16.823  0.00  0.00    +0.000 HD
BRANCH  13  16
ATOM     16  C   UNL     1       2.630   7.364  18.927  0.00  0.00    +0.000 A 
ATOM     17  C   UNL     1       2.423   8.272  17.873  0.00  0.00    +0.000 A 
ATOM     18  C   UNL     1       1.566   9.367  18.017  0.00  0.00    +0.000 A 
ATOM     19  C   UNL     1       0.909   9.569  19.227  0.00  0.00    +0.000 A 
ATOM     20  C   UNL     1       1.119   8.688  20.285  0.00  0.00    +0.000 A 
ATOM     21  C   UNL     1       1.978   7.587  20.143  0.00  0.00    +0.000 A 
ENDBRANCH  13  16
ENDBRANCH   1  14
BRANCH   1  22
ATOM     22  C   UNL     1       3.757   2.972  17.674  0.00  0.00    +0.000 C 
BRANCH  22  23
ATOM     23  C   UNL     1       2.904   2.915  18.924  0.00  0.00    +0.000 A 
ATOM     24  C   UNL     1       3.481   2.748  20.193  0.00  0.00    +0.000 A 
ATOM     25  C   UNL     1       2.684   2.680  21.336  0.00  0.00    +0.000 A 
ATOM     26  C   UNL     1       1.299   2.791  21.225  0.00  0.00    +0.000 A 
ATOM     27  C   UNL     1       0.716   2.977  19.973  0.00  0.00    +0.000 A 
ATOM     28  C   UNL     1       1.513   3.038  18.829  0.00  0.00    +0.000 A 
ENDBRANCH  22  23
ENDBRANCH   1  22
TORSDOF 5
ENDMDL
MODEL 4
REMARK VINA RESULT:      -8.3      0.302      1.177
REMARK  Name = 
REMARK  5 active torsions:
REMARK  status: ('A' for Active; 'I' for Inactive)
REMARK    1  A    between atoms: C_2  and  C_21
REMARK    2  A    between atoms: N_3  and  C_4
REMARK    3  A    between atoms: C_4  and  C_5
REMARK    4  A    between atoms: C_4  and  C_12
REMARK    5  A    between atoms: C_5  and  C_6
REMARK                            x       y       z     vdW  Elec       q    Type
REMARK                         _______ _______ _______ _____ _____    ______ ____
ROOT
ATOM      1  C   UNL     1       4.408   4.339  17.301  0.00  0.00    +0.000 C 
ENDROOT
BRANCH   1   2
ATOM      2  C   UNL     1       5.014   4.344  15.921  0.00  0.00    +0.000 A 
ATOM      3  N   UNL     1       4.799   3.561  14.877  0.00  0.00    +0.000 NA
ATOM      4  C   UNL     1       5.742   3.940  13.934  0.00  0.00    +0.000 A 
ATOM      5  C   UNL     1       6.013   3.443  12.649  0.00  0.00    +0.000 A 
ATOM      6  C   UNL     1       7.113   3.960  11.942  0.00  0.00    +0.000 A 
ATOM      7  C   UNL     1       7.925   4.953  12.495  0.00  0.00    +0.000 A 
ATOM      8  C   UNL     1       7.639   5.499  13.748  0.00  0.00    +0.000 A 
ATOM      9  C   UNL     1       6.535   4.972  14.419  0.00  0.00    +0.000 A 
ATOM     10  N   UNL     1       5.972   5.288  15.620  0.00  0.00    +0.000 N 
ATOM     11  H   UNL     1       6.280   6.025  16.236  0.00  0.00    +0.000 HD
ENDBRANCH   1   2
BRANCH   1  14
ATOM     12  O   UNL     1       4.485   5.973  19.483  0.00  0.00    +0.000 OA
ATOM     13  C   UNL     1       3.600   6.203  18.659  0.00  0.00    +0.000 C 
ATOM     14  N   UNL     1       3.477   5.440  17.510  0.00  0.00    +0.000 N 
ATOM     15  H   UNL     1       2.759   5.582  16.814  0.00  0.00    +0.000 HD
BRANCH  13  16
ATOM     16  C   UNL     1       2.661   7.336  18.917  0.00  0.00    +0.000 A 
ATOM     17  C   UNL     1       2.060   7.397  20.187  0.00  0.00    +0.000 A 
ATOM     18  C   UNL     1       1.170   8.423  20.521  0.00  0.00    +0.000 A 
ATOM     19  C   UNL     1       0.867   9.400  19.579  0.00  0.00    +0.000 A 
ATOM     20  C   UNL     1       1.441   9.342  18.311  0.00  0.00    +0.000 A 
ATOM     21  C   UNL     1       2.335   8.315  17.973  0.00  0.00    +0.000 A 
ENDBRANCH  13  16
ENDBRANCH   1  14
BRANCH   1  22
ATOM     22  C   UNL     1       3.814   2.952  17.670  0.00  0.00    +0.000 C 
BRANCH  22  23
ATOM     23  C   UNL     1       2.921   2.909  18.893  0.00  0.00    +0.000 A 
ATOM     24  C   UNL     1       1.530   3.067  18.786  0.00  0.00    +0.000 A 
ATOM     25  C   UNL     1       0.721   3.042  19.923  0.00  0.00    +0.000 A 
ATOM     26  C   UNL     1       1.291   2.845  21.179  0.00  0.00    +0.000 A 
ATOM     27  C   UNL     1       2.668   2.667  21.295  0.00  0.00    +0.000 A 
ATOM     28  C   UNL     1       3.479   2.698  20.160  0.00  0.00    +0.000 A 
ENDBRANCH  22  23
ENDBRANCH   1  22
TORSDOF 5
ENDMDL
MODEL 5
REMARK VINA RESULT:      -8.1      1.103      1.262
REMARK  Name = 
REMARK  5 active torsions:
REMARK  status: ('A' for Active; 'I' for Inactive)
REMARK    1  A    between atoms: C_2  and  C_21
REMARK    2  A    between atoms: N_3  and  C_4
REMARK    3  A    between atoms: C_4  and  C_5
REMARK    4  A    between atoms: C_4  and  C_12
REMARK    5  A    between atoms: C_5  and  C_6
REMARK                            x       y       z     vdW  Elec       q    Type
REMARK                         _______ _______ _______ _____ _____    ______ ____
ROOT
ATOM      1  C   UNL     1       5.389   4.309  18.961  0.00  0.00    +0.000 C 
ENDROOT
BRANCH   1   2
ATOM      2  C   UNL     1       5.959   4.380  17.568  0.00  0.00    +0.000 A 
ATOM      3  N   UNL     1       6.848   5.202  17.035  0.00  0.00    +0.000 NA
ATOM      4  C   UNL     1       6.875   4.889  15.685  0.00  0.00    +0.000 A 
ATOM      5  C   UNL     1       7.603   5.448  14.623  0.00  0.00    +0.000 A 
ATOM      6  C   UNL     1       7.352   4.991  13.316  0.00  0.00    +0.000 A 
ATOM      7  C   UNL     1       6.403   3.996  13.069  0.00  0.00    +0.000 A 
ATOM      8  C   UNL     1       5.708   3.389  14.118  0.00  0.00    +0.000 A 
ATOM      9  C   UNL     1       5.988   3.858  15.402  0.00  0.00    +0.000 A 
ATOM     10  N   UNL     1       5.521   3.476  16.625  0.00  0.00    +0.000 N 
ATOM     11  H   UNL     1       4.874   2.720  16.795  0.00  0.00    +0.000 HD
ENDBRANCH   1   2
BRANCH   1  14
ATOM     12  O   UNL     1       3.594   5.413  17.231  0.00  0.00    +0.000 OA
ATOM     13  C   UNL     1       3.691   5.951  18.335  0.00  0.00    +0.000 C 
ATOM     14  N   UNL     1       4.565   5.465  19.292  0.00  0.00    +0.000 N 
ATOM     15  H   UNL     1       4.690   5.880  20.204  0.00  0.00    +0.000 HD
BRANCH  13  16
ATOM     16  C   UNL     1       2.833   7.138  18.629  0.00  0.00    +0.000 A 
ATOM     17  C   UNL     1       2.222   7.192  19.894  0.00  0.00    +0.000 A 
ATOM     18  C   UNL     1       1.404   8.266  20.260  0.00  0.00    +0.000 A 
ATOM     19  C   UNL     1       1.184   9.299  19.354  0.00  0.00    +0.000 A 
ATOM     20  C   UNL     1       1.768   9.249  18.091  0.00  0.00    +0.000 A 
ATOM     21  C   UNL     1       2.590   8.174  17.721  0.00  0.00    +0.000 A 
ENDBRANCH  13  16
ENDBRANCH   1  14
BRANCH   1  22
ATOM     22  C   UNL     1       4.682   2.952  19.231  0.00  0.00    +0.000 C 
BRANCH  22  23
ATOM     23  C   UNL     1       3.202   3.018  19.546  0.00  0.00    +0.000 A 
ATOM     24  C   UNL     1       2.236   2.697  18.579  0.00  0.00    +0.000 A 
ATOM     25  C   UNL     1       0.875   2.778  18.877  0.00  0.00    +0.000 A 
ATOM     26  C   UNL     1       0.464   3.169  20.149  0.00  0.00    +0.000 A 
ATOM     27  C   UNL     1       1.413   3.470  21.124  0.00  0.00    +0.000 A 
ATOM     28  C   UNL     1       2.775   3.396  20.825  0.00  0.00    +0.000 A 
ENDBRANCH  22  23
ENDBRANCH   1  22
TORSDOF 5
ENDMDL
MODEL 6
REMARK VINA RESULT:      -8.0      3.694      4.299
REMARK  Name = 
REMARK  5 active torsions:
REMARK  status: ('A' for Active; 'I' for Inactive)
REMARK    1  A    between atoms: C_2  and  C_21
REMARK    2  A    between atoms: N_3  and  C_4
REMARK    3  A    between atoms: C_4  and  C_5
REMARK    4  A    between atoms: C_4  and  C_12
REMARK    5  A    between atoms: C_5  and  C_6
REMARK                            x       y       z     vdW  Elec       q    Type
REMARK                         _______ _______ _______ _____ _____    ______ ____
ROOT
ATOM      1  C   UNL     1       6.094   6.304  17.265  0.00  0.00    +0.000 C 
ENDROOT
BRANCH   1   2
ATOM      2  C   UNL     1       6.403   5.606  15.967  0.00  0.00    +0.000 A 
ATOM      3  N   UNL     1       7.423   5.733  15.134  0.00  0.00    +0.000 NA
ATOM      4  C   UNL     1       7.103   4.947  14.038  0.00  0.00    +0.000 A 
ATOM      5  C   UNL     1       7.790   4.719  12.835  0.00  0.00    +0.000 A 
ATOM      6  C   UNL     1       7.171   3.941  11.840  0.00  0.00    +0.000 A 
ATOM      7  C   UNL     1       5.900   3.395  12.037  0.00  0.00    +0.000 A 
ATOM      8  C   UNL     1       5.225   3.565  13.247  0.00  0.00    +0.000 A 
ATOM      9  C   UNL     1       5.870   4.333  14.217  0.00  0.00    +0.000 A 
ATOM     10  N   UNL     1       5.515   4.666  15.490  0.00  0.00    +0.000 N 
ATOM     11  H   UNL     1       4.678   4.359  15.964  0.00  0.00    +0.000 HD
ENDBRANCH   1   2
BRANCH   1  14
ATOM     12  O   UNL     1       8.273   6.982  18.758  0.00  0.00    +0.000 OA
ATOM     13  C   UNL     1       7.744   7.892  18.119  0.00  0.00    +0.000 C 
ATOM     14  N   UNL     1       6.638   7.655  17.321  0.00  0.00    +0.000 N 
ATOM     15  H   UNL     1       6.162   8.371  16.791  0.00  0.00    +0.000 HD
BRANCH  13  16
ATOM     16  C   UNL     1       8.329   9.264  18.211  0.00  0.00    +0.000 A 
ATOM     17  C   UNL     1       9.304   9.481  19.200  0.00  0.00    +0.000 A 
ATOM     18  C   UNL     1       9.910  10.731  19.360  0.00  0.00    +0.000 A 
ATOM     19  C   UNL     1       9.538  11.784  18.530  0.00  0.00    +0.000 A 
ATOM     20  C   UNL     1       8.559  11.588  17.559  0.00  0.00    +0.000 A 
ATOM     21  C   UNL     1       7.951  10.334  17.395  0.00  0.00    +0.000 A 
ENDBRANCH  13  16
ENDBRANCH   1  14
BRANCH   1  22
ATOM     22  C   UNL     1       4.583   6.234  17.618  0.00  0.00    +0.000 C 
BRANCH  22  23
ATOM     23  C   UNL     1       4.084   4.919  18.179  0.00  0.00    +0.000 A 
ATOM     24  C   UNL     1       4.861   4.168  19.075  0.00  0.00    +0.000 A 
ATOM     25  C   UNL     1       4.398   2.949  19.572  0.00  0.00    +0.000 A 
ATOM     26  C   UNL     1       3.146   2.472  19.189  0.00  0.00    +0.000 A 
ATOM     27  C   UNL     1       2.356   3.219  18.316  0.00  0.00    +0.000 A 
ATOM     28  C   UNL     1       2.822   4.435  17.813  0.00  0.00    +0.000 A 
ENDBRANCH  22  23
ENDBRANCH   1  22
TORSDOF 5
ENDMDL
MODEL 7
REMARK VINA RESULT:      -8.0      1.064      1.420
REMARK  Name = 
REMARK  5 active torsions:
REMARK  status: ('A' for Active; 'I' for Inactive)
REMARK    1  A    between atoms: C_2  and  C_21
REMARK    2  A    between atoms: N_3  and  C_4
REMARK    3  A    between atoms: C_4  and  C_5
REMARK    4  A    between atoms: C_4  and  C_12
REMARK    5  A    between atoms: C_5  and  C_6
REMARK                            x       y       z     vdW  Elec       q    Type
REMARK                         _______ _______ _______ _____ _____    ______ ____
ROOT
ATOM      1  C   UNL     1       5.356   4.112  18.663  0.00  0.00    +0.000 C 
ENDROOT
BRANCH   1   2
ATOM      2  C   UNL     1       5.988   4.263  17.303  0.00  0.00    +0.000 A 
ATOM      3  N   UNL     1       6.908   5.104  16.863  0.00  0.00    +0.000 NA
ATOM      4  C   UNL     1       6.992   4.876  15.498  0.00  0.00    +0.000 A 
ATOM      5  C   UNL     1       7.772   5.491  14.506  0.00  0.00    +0.000 A 
ATOM      6  C   UNL     1       7.576   5.120  13.164  0.00  0.00    +0.000 A 
ATOM      7  C   UNL     1       6.629   4.154  12.814  0.00  0.00    +0.000 A 
ATOM      8  C   UNL     1       5.882   3.491  13.790  0.00  0.00    +0.000 A 
ATOM      9  C   UNL     1       6.108   3.875  15.112  0.00  0.00    +0.000 A 
ATOM     10  N   UNL     1       5.584   3.424  16.287  0.00  0.00    +0.000 N 
ATOM     11  H   UNL     1       4.923   2.668  16.381  0.00  0.00    +0.000 HD
ENDBRANCH   1   2
BRANCH   1  14
ATOM     12  O   UNL     1       3.513   5.309  17.049  0.00  0.00    +0.000 OA
ATOM     13  C   UNL     1       3.681   5.818  18.157  0.00  0.00    +0.000 C 
ATOM     14  N   UNL     1       4.586   5.284  19.058  0.00  0.00    +0.000 N 
ATOM     15  H   UNL     1       4.769   5.675  19.972  0.00  0.00    +0.000 HD
BRANCH  13  16
ATOM     16  C   UNL     1       2.877   7.024  18.519  0.00  0.00    +0.000 A 
ATOM     17  C   UNL     1       2.300   7.052  19.801  0.00  0.00    +0.000 A 
ATOM     18  C   UNL     1       1.533   8.140  20.229  0.00  0.00    +0.000 A 
ATOM     19  C   UNL     1       1.330   9.215  19.369  0.00  0.00    +0.000 A 
ATOM     20  C   UNL     1       1.879   9.192  18.089  0.00  0.00    +0.000 A 
ATOM     21  C   UNL     1       2.650   8.102  17.658  0.00  0.00    +0.000 A 
ENDBRANCH  13  16
ENDBRANCH   1  14
BRANCH   1  22
ATOM     22  C   UNL     1       4.561   2.783  18.790  0.00  0.00    +0.000 C 
BRANCH  22  23
ATOM     23  C   UNL     1       3.278   2.843  19.593  0.00  0.00    +0.000 A 
ATOM     24  C   UNL     1       3.298   2.932  20.994  0.00  0.00    +0.000 A 
ATOM     25  C   UNL     1       2.109   2.969  21.723  0.00  0.00    +0.000 A 
ATOM     26  C   UNL     1       0.885   2.931  21.059  0.00  0.00    +0.000 A 
ATOM     27  C   UNL     1       0.852   2.863  19.667  0.00  0.00    +0.000 A 
ATOM     28  C   UNL     1       2.041   2.819  18.938  0.00  0.00    +0.000 A 
ENDBRANCH  22  23
ENDBRANCH   1  22
TORSDOF 5
ENDMDL
MODEL 8
REMARK VINA RESULT:      -8.0      1.100      1.776
REMARK  Name = 
REMARK  5 active torsions:
REMARK  status: ('A' for Active; 'I' for Inactive)
REMARK    1  A    between atoms: C_2  and  C_21
REMARK    2  A    between atoms: N_3  and  C_4
REMARK    3  A    between atoms: C_4  and  C_5
REMARK    4  A    between atoms: C_4  and  C_12
REMARK    5  A    between atoms: C_5  and  C_6
REMARK                            x       y       z     vdW  Elec       q    Type
REMARK                         _______ _______ _______ _____ _____    ______ ____
ROOT
ATOM      1  C   UNL     1       5.392   4.367  19.062  0.00  0.00    +0.000 C 
ENDROOT
BRANCH   1   2
ATOM      2  C   UNL     1       5.951   4.428  17.665  0.00  0.00    +0.000 A 
ATOM      3  N   UNL     1       6.822   5.258  17.114  0.00  0.00    +0.000 NA
ATOM      4  C   UNL     1       6.846   4.925  15.768  0.00  0.00    +0.000 A 
ATOM      5  C   UNL     1       7.557   5.481  14.693  0.00  0.00    +0.000 A 
ATOM      6  C   UNL     1       7.307   5.001  13.395  0.00  0.00    +0.000 A 
ATOM      7  C   UNL     1       6.375   3.984  13.170  0.00  0.00    +0.000 A 
ATOM      8  C   UNL     1       5.699   3.380  14.231  0.00  0.00    +0.000 A 
ATOM      9  C   UNL     1       5.977   3.873  15.507  0.00  0.00    +0.000 A 
ATOM     10  N   UNL     1       5.525   3.501  16.738  0.00  0.00    +0.000 N 
ATOM     11  H   UNL     1       4.893   2.736  16.924  0.00  0.00    +0.000 HD
ENDBRANCH   1   2
BRANCH   1  14
ATOM     12  O   UNL     1       3.591   5.437  17.316  0.00  0.00    +0.000 OA
ATOM     13  C   UNL     1       3.675   5.982  18.418  0.00  0.00    +0.000 C 
ATOM     14  N   UNL     1       4.550   5.513  19.382  0.00  0.00    +0.000 N 
ATOM     15  H   UNL     1       4.664   5.936  20.292  0.00  0.00    +0.000 HD
BRANCH  13  16
ATOM     16  C   UNL     1       2.799   7.159  18.700  0.00  0.00    +0.000 A 
ATOM     17  C   UNL     1       2.645   8.107  17.672  0.00  0.00    +0.000 A 
ATOM     18  C   UNL     1       1.843   9.240  17.844  0.00  0.00    +0.000 A 
ATOM     19  C   UNL     1       1.189   9.439  19.055  0.00  0.00    +0.000 A 
ATOM     20  C   UNL     1       1.347   8.518  20.088  0.00  0.00    +0.000 A 
ATOM     21  C   UNL     1       2.150   7.379  19.918  0.00  0.00    +0.000 A 
ENDBRANCH  13  16
ENDBRANCH   1  14
BRANCH   1  22
ATOM     22  C   UNL     1       4.709   3.003  19.356  0.00  0.00    +0.000 C 
BRANCH  22  23
ATOM     23  C   UNL     1       3.214   3.038  19.597  0.00  0.00    +0.000 A 
ATOM     24  C   UNL     1       2.684   3.431  20.836  0.00  0.00    +0.000 A 
ATOM     25  C   UNL     1       1.306   3.443  21.050  0.00  0.00    +0.000 A 
ATOM     26  C   UNL     1       0.439   3.075  20.023  0.00  0.00    +0.000 A 
ATOM     27  C   UNL     1       0.953   2.702  18.782  0.00  0.00    +0.000 A 
ATOM     28  C   UNL     1       2.332   2.683  18.570  0.00  0.00    +0.000 A 
ENDBRANCH  22  23
ENDBRANCH   1  22
TORSDOF 5
ENDMDL
MODEL 9
REMARK VINA RESULT:      -7.9      1.023      1.406
REMARK  Name = 
REMARK  5 active torsions:
REMARK  status: ('A' for Active; 'I' for Inactive)
REMARK    1  A    between atoms: C_2  and  C_21
REMARK    2  A    between atoms: N_3  and  C_4
REMARK    3  A    between atoms: C_4  and  C_5
REMARK    4  A    between atoms: C_4  and  C_12
REMARK    5  A    between atoms: C_5  and  C_6
REMARK                            x       y       z     vdW  Elec       q    Type
REMARK                         _______ _______ _______ _____ _____    ______ ____
ROOT
ATOM      1  C   UNL     1       5.299   4.075  18.550  0.00  0.00    +0.000 C 
ENDROOT
BRANCH   1   2
ATOM      2  C   UNL     1       5.947   4.248  17.201  0.00  0.00    +0.000 A 
ATOM      3  N   UNL     1       6.862   5.107  16.783  0.00  0.00    +0.000 NA
ATOM      4  C   UNL     1       6.968   4.894  15.417  0.00  0.00    +0.000 A 
ATOM      5  C   UNL     1       7.754   5.530  14.443  0.00  0.00    +0.000 A 
ATOM      6  C   UNL     1       7.580   5.171  13.094  0.00  0.00    +0.000 A 
ATOM      7  C   UNL     1       6.651   4.197  12.720  0.00  0.00    +0.000 A 
ATOM      8  C   UNL     1       5.900   3.514  13.679  0.00  0.00    +0.000 A 
ATOM      9  C   UNL     1       6.103   3.887  15.008  0.00  0.00    +0.000 A 
ATOM     10  N   UNL     1       5.569   3.416  16.171  0.00  0.00    +0.000 N 
ATOM     11  H   UNL     1       4.916   2.650  16.248  0.00  0.00    +0.000 HD
ENDBRANCH   1   2
BRANCH   1  14
ATOM     12  O   UNL     1       3.348   5.252  17.052  0.00  0.00    +0.000 OA
ATOM     13  C   UNL     1       3.599   5.781  18.135  0.00  0.00    +0.000 C 
ATOM     14  N   UNL     1       4.565   5.259  18.978  0.00  0.00    +0.000 N 
ATOM     15  H   UNL     1       4.815   5.666  19.868  0.00  0.00    +0.000 HD
BRANCH  13  16
ATOM     16  C   UNL     1       2.829   6.998  18.531  0.00  0.00    +0.000 A 
ATOM     17  C   UNL     1       2.709   8.022  17.575  0.00  0.00    +0.000 A 
ATOM     18  C   UNL     1       2.004   9.197  17.853  0.00  0.00    +0.000 A 
ATOM     19  C   UNL     1       1.413   9.362  19.103  0.00  0.00    +0.000 A 
ATOM     20  C   UNL     1       1.540   8.363  20.066  0.00  0.00    +0.000 A 
ATOM     21  C   UNL     1       2.246   7.183  19.788  0.00  0.00    +0.000 A 
ENDBRANCH  13  16
ENDBRANCH   1  14
BRANCH   1  22
ATOM     22  C   UNL     1       4.459   2.770  18.628  0.00  0.00    +0.000 C 
BRANCH  22  23
ATOM     23  C   UNL     1       3.251   2.803  19.540  0.00  0.00    +0.000 A 
ATOM     24  C   UNL     1       1.948   2.882  19.022  0.00  0.00    +0.000 A 
ATOM     25  C   UNL     1       0.844   2.928  19.874  0.00  0.00    +0.000 A 
ATOM     26  C   UNL     1       1.028   2.884  21.254  0.00  0.00    +0.000 A 
ATOM     27  C   UNL     1       2.315   2.785  21.780  0.00  0.00    +0.000 A 
ATOM     28  C   UNL     1       3.420   2.745  20.929  0.00  0.00    +0.000 A 
ENDBRANCH  22  23
ENDBRANCH   1  22
TORSDOF 5
ENDMDL
