MODEL 1
REMARK VINA RESULT:      -9.6      0.000      0.000
REMARK  Name = 
REMARK  4 active torsions:
REMARK  status: ('A' for Active; 'I' for Inactive)
REMARK    1  A    between atoms: C_1  and  C_2
REMARK    2  A    between atoms: C_5  and  C_6
REMARK    3  A    between atoms: C_9  and  C_10
REMARK    4  A    between atoms: C_13  and  C_14
REMARK                            x       y       z     vdW  Elec       q    Type
REMARK                         _______ _______ _______ _____ _____    ______ ____
ROOT
ATOM      1  C   UNL     1       8.093   8.208  18.328  0.00  0.00    +0.000 A 
ATOM      2  C   UNL     1       8.379   6.949  18.879  0.00  0.00    +0.000 A 
ATOM      3  C   UNL     1       7.688   5.810  18.453  0.00  0.00    +0.000 A 
ATOM      4  C   UNL     1       6.744   5.909  17.435  0.00  0.00    +0.000 A 
ATOM      5  C   UNL     1       6.461   7.153  16.859  0.00  0.00    +0.000 A 
ATOM      6  C   UNL     1       7.133   8.293  17.306  0.00  0.00    +0.000 A 
ENDROOT
BRANCH   4   7
ATOM      7  C   UNL     1       5.992   4.736  16.936  0.00  0.00    +0.000 C 
ATOM      8  O   UNL     1       6.420   4.171  15.930  0.00  0.00    +0.000 OA
ATOM      9  N   UNL     1       4.868   4.285  17.642  0.00  0.00    +0.000 N 
ATOM     10  C   UNL     1       4.176   3.080  17.148  0.00  0.00    +0.000 C 
ATOM     11  C   UNL     1       3.779   2.150  18.296  0.00  0.00    +0.000 C 
ATOM     12  C   UNL     1       2.833   2.938  19.163  0.00  0.00    +0.000 A 
ATOM     13  C   UNL     1       1.557   2.498  19.505  0.00  0.00    +0.000 A 
ATOM     14  C   UNL     1       0.713   3.340  20.232  0.00  0.00    +0.000 A 
ATOM     15  C   UNL     1       1.151   4.602  20.641  0.00  0.00    +0.000 A 
ATOM     16  C   UNL     1       2.424   5.047  20.295  0.00  0.00    +0.000 A 
ATOM     17  C   UNL     1       3.256   4.229  19.528  0.00  0.00    +0.000 A 
ATOM     18  C   UNL     1       4.601   4.691  19.036  0.00  0.00    +0.000 C 
ENDBRANCH   4   7
BRANCH   1  22
ATOM     19  C   UNL     1       9.509  11.386  18.821  0.00  0.00    +0.000 A 
ATOM     20  N   UNL     1       9.697  10.935  20.045  0.00  0.00    +0.000 NA
ATOM     21  N   UNL     1       9.215   9.641  20.066  0.00  0.00    +0.000 NA
ATOM     22  C   UNL     1       8.757   9.393  18.855  0.00  0.00    +0.000 A 
ATOM     23  O   UNL     1       8.915  10.457  18.006  0.00  0.00    +0.000 OA
BRANCH  19  28
ATOM     24  C   UNL     1      10.968  16.547  16.663  0.00  0.00    +0.000 C 
ATOM     25  C   UNL     1      10.560  15.203  17.187  0.00  0.00    +0.000 A 
ATOM     26  C   UNL     1       9.391  15.042  17.938  0.00  0.00    +0.000 A 
ATOM     27  C   UNL     1       9.046  13.788  18.452  0.00  0.00    +0.000 A 
ATOM     28  C   UNL     1       9.860  12.669  18.228  0.00  0.00    +0.000 A 
ATOM     29  C   UNL     1      11.016  12.832  17.450  0.00  0.00    +0.000 A 
ATOM     30  C   UNL     1      11.363  14.085  16.936  0.00  0.00    +0.000 A 
ENDBRANCH  19  28
ENDBRANCH   1  22
TORSDOF 3
ENDMDL
MODEL 2
REMARK VINA RESULT:      -9.1      0.539      1.034
REMARK  Name = 
REMARK  4 active torsions:
REMARK  status: ('A' for Active; 'I' for Inactive)
REMARK    1  A    between atoms: C_1  and  C_2
REMARK    2  A    between atoms: C_5  and  C_6
REMARK    3  A    between atoms: C_9  and  C_10
REMARK    4  A    between atoms: C_13  and  C_14
REMARK                            x       y       z     vdW  Elec       q    Type
REMARK                         _______ _______ _______ _____ _____    ______ ____
ROOT
ATOM      1  C   UNL     1       8.244   8.696  18.464  0.00  0.00    +0.000 A 
ATOM      2  C   UNL     1       7.262   8.847  17.472  0.00  0.00    +0.000 A 
ATOM      3  C   UNL     1       6.597   7.732  16.951  0.00  0.00    +0.000 A 
ATOM      4  C   UNL     1       6.867   6.463  17.453  0.00  0.00    +0.000 A 
ATOM      5  C   UNL     1       7.828   6.296  18.458  0.00  0.00    +0.000 A 
ATOM      6  C   UNL     1       8.510   7.407  18.956  0.00  0.00    +0.000 A 
ENDROOT
BRANCH   4   7
ATOM      7  C   UNL     1       6.186   5.250  16.949  0.00  0.00    +0.000 C 
ATOM      8  O   UNL     1       6.663   4.698  15.958  0.00  0.00    +0.000 OA
ATOM      9  N   UNL     1       5.070   4.749  17.636  0.00  0.00    +0.000 N 
ATOM     10  C   UNL     1       4.450   3.507  17.140  0.00  0.00    +0.000 C 
ATOM     11  C   UNL     1       4.075   2.568  18.288  0.00  0.00    +0.000 C 
ATOM     12  C   UNL     1       3.073   3.315  19.127  0.00  0.00    +0.000 A 
ATOM     13  C   UNL     1       1.813   2.815  19.446  0.00  0.00    +0.000 A 
ATOM     14  C   UNL     1       0.913   3.620  20.146  0.00  0.00    +0.000 A 
ATOM     15  C   UNL     1       1.278   4.906  20.552  0.00  0.00    +0.000 A 
ATOM     16  C   UNL     1       2.534   5.411  20.229  0.00  0.00    +0.000 A 
ATOM     17  C   UNL     1       3.422   4.629  19.487  0.00  0.00    +0.000 A 
ATOM     18  C   UNL     1       4.753   5.153  19.020  0.00  0.00    +0.000 C 
ENDBRANCH   4   7
BRANCH   1  22
ATOM     19  C   UNL     1       9.699  11.868  18.867  0.00  0.00    +0.000 A 
ATOM     20  N   UNL     1      10.138  11.347  19.994  0.00  0.00    +0.000 NA
ATOM     21  N   UNL     1       9.683  10.043  20.028  0.00  0.00    +0.000 NA
ATOM     22  C   UNL     1       8.990   9.861  18.922  0.00  0.00    +0.000 A 
ATOM     23  O   UNL     1       8.960  10.978  18.130  0.00  0.00    +0.000 OA
BRANCH  19  28
ATOM     24  C   UNL     1      10.597  17.198  16.813  0.00  0.00    +0.000 C 
ATOM     25  C   UNL     1      10.334  15.808  17.311  0.00  0.00    +0.000 A 
ATOM     26  C   UNL     1       9.209  15.518  18.088  0.00  0.00    +0.000 A 
ATOM     27  C   UNL     1       8.999  14.224  18.576  0.00  0.00    +0.000 A 
ATOM     28  C   UNL     1       9.910  13.194  18.299  0.00  0.00    +0.000 A 
ATOM     29  C   UNL     1      11.022  13.486  17.496  0.00  0.00    +0.000 A 
ATOM     30  C   UNL     1      11.233  14.779  17.008  0.00  0.00    +0.000 A 
ENDBRANCH  19  28
ENDBRANCH   1  22
TORSDOF 3
ENDMDL
MODEL 3
REMARK VINA RESULT:      -9.0      2.116      2.821
REMARK  Name = 
REMARK  4 active torsions:
REMARK  status: ('A' for Active; 'I' for Inactive)
REMARK    1  A    between atoms: C_1  and  C_2
REMARK    2  A    between atoms: C_5  and  C_6
REMARK    3  A    between atoms: C_9  and  C_10
REMARK    4  A    between atoms: C_13  and  C_14
REMARK                            x       y       z     vdW  Elec       q    Type
REMARK                         _______ _______ _______ _____ _____    ______ ____
ROOT
ATOM      1  C   UNL     1       8.285   8.708  18.346  0.00  0.00    +0.000 A 
ATOM      2  C   UNL     1       7.325   8.635  17.324  0.00  0.00    +0.000 A 
ATOM      3  C   UNL     1       6.723   7.416  16.996  0.00  0.00    +0.000 A 
ATOM      4  C   UNL     1       7.032   6.270  17.721  0.00  0.00    +0.000 A 
ATOM      5  C   UNL     1       7.972   6.327  18.757  0.00  0.00    +0.000 A 
ATOM      6  C   UNL     1       8.593   7.540  19.064  0.00  0.00    +0.000 A 
ENDROOT
BRANCH   4   7
ATOM      7  C   UNL     1       6.417   4.956  17.427  0.00  0.00    +0.000 C 
ATOM      8  O   UNL     1       7.000   4.218  16.633  0.00  0.00    +0.000 OA
ATOM      9  N   UNL     1       5.240   4.581  18.091  0.00  0.00    +0.000 N 
ATOM     10  C   UNL     1       4.685   3.243  17.817  0.00  0.00    +0.000 C 
ATOM     11  C   UNL     1       4.199   2.563  19.098  0.00  0.00    +0.000 C 
ATOM     12  C   UNL     1       3.108   3.443  19.650  0.00  0.00    +0.000 A 
ATOM     13  C   UNL     1       1.826   2.985  19.942  0.00  0.00    +0.000 A 
ATOM     14  C   UNL     1       0.851   3.894  20.356  0.00  0.00    +0.000 A 
ATOM     15  C   UNL     1       1.162   5.248  20.507  0.00  0.00    +0.000 A 
ATOM     16  C   UNL     1       2.441   5.710  20.210  0.00  0.00    +0.000 A 
ATOM     17  C   UNL     1       3.408   4.813  19.749  0.00  0.00    +0.000 A 
ATOM     18  C   UNL     1       4.776   5.264  19.314  0.00  0.00    +0.000 C 
ENDBRANCH   4   7
BRANCH   1  22
ATOM     19  C   UNL     1       9.532  11.687  19.728  0.00  0.00    +0.000 A 
ATOM     20  N   UNL     1      10.228  11.726  18.610  0.00  0.00    +0.000 NA
ATOM     21  N   UNL     1       9.859  10.614  17.878  0.00  0.00    +0.000 NA
ATOM     22  C   UNL     1       8.968   9.968  18.604  0.00  0.00    +0.000 A 
ATOM     23  O   UNL     1       8.705  10.594  19.794  0.00  0.00    +0.000 OA
BRANCH  19  28
ATOM     24  C   UNL     1       9.230  15.519  24.047  0.00  0.00    +0.000 C 
ATOM     25  C   UNL     1       9.351  14.513  22.942  0.00  0.00    +0.000 A 
ATOM     26  C   UNL     1      10.053  14.806  21.769  0.00  0.00    +0.000 A 
ATOM     27  C   UNL     1      10.123  13.870  20.732  0.00  0.00    +0.000 A 
ATOM     28  C   UNL     1       9.492  12.623  20.845  0.00  0.00    +0.000 A 
ATOM     29  C   UNL     1       8.813  12.325  22.035  0.00  0.00    +0.000 A 
ATOM     30  C   UNL     1       8.742  13.260  23.072  0.00  0.00    +0.000 A 
ENDBRANCH  19  28
ENDBRANCH   1  22
TORSDOF 3
ENDMDL
MODEL 4
REMARK VINA RESULT:      -8.8      3.410     10.122
REMARK  Name = 
REMARK  4 active torsions:
REMARK  status: ('A' for Active; 'I' for Inactive)
REMARK    1  A    between atoms: C_1  and  C_2
REMARK    2  A    between atoms: C_5  and  C_6
REMARK    3  A    between atoms: C_9  and  C_10
REMARK    4  A    between atoms: C_13  and  C_14
REMARK                            x       y       z     vdW  Elec       q    Type
REMARK                         _______ _______ _______ _____ _____    ______ ____
ROOT
ATOM      1  C   UNL     1       8.221   9.276  18.043  0.00  0.00    +0.000 A 
ATOM      2  C   UNL     1       9.008   9.222  19.204  0.00  0.00    +0.000 A 
ATOM      3  C   UNL     1       9.627  10.374  19.700  0.00  0.00    +0.000 A 
ATOM      4  C   UNL     1       9.422  11.599  19.074  0.00  0.00    +0.000 A 
ATOM      5  C   UNL     1       8.623  11.676  17.928  0.00  0.00    +0.000 A 
ATOM      6  C   UNL     1       8.029  10.520  17.418  0.00  0.00    +0.000 A 
ENDROOT
BRANCH   4   7
ATOM      7  C   UNL     1      10.041  12.852  19.563  0.00  0.00    +0.000 C 
ATOM      8  O   UNL     1      10.765  13.471  18.784  0.00  0.00    +0.000 OA
ATOM      9  N   UNL     1       9.747  13.309  20.855  0.00  0.00    +0.000 N 
ATOM     10  C   UNL     1      10.335  14.589  21.289  0.00  0.00    +0.000 C 
ATOM     11  C   UNL     1       9.322  15.443  22.053  0.00  0.00    +0.000 C 
ATOM     12  C   UNL     1       8.935  14.644  23.269  0.00  0.00    +0.000 A 
ATOM     13  C   UNL     1       9.035  15.129  24.571  0.00  0.00    +0.000 A 
ATOM     14  C   UNL     1       8.747  14.282  25.642  0.00  0.00    +0.000 A 
ATOM     15  C   UNL     1       8.334  12.967  25.416  0.00  0.00    +0.000 A 
ATOM     16  C   UNL     1       8.240  12.477  24.116  0.00  0.00    +0.000 A 
ATOM     17  C   UNL     1       8.572  13.305  23.041  0.00  0.00    +0.000 A 
ATOM     18  C   UNL     1       8.590  12.806  21.622  0.00  0.00    +0.000 C 
ENDBRANCH   4   7
BRANCH   1  22
ATOM     19  C   UNL     1       6.183   6.557  17.152  0.00  0.00    +0.000 A 
ATOM     20  N   UNL     1       7.212   6.240  16.394  0.00  0.00    +0.000 NA
ATOM     21  N   UNL     1       8.176   7.204  16.617  0.00  0.00    +0.000 NA
ATOM     22  C   UNL     1       7.666   8.048  17.491  0.00  0.00    +0.000 A 
ATOM     23  O   UNL     1       6.400   7.698  17.882  0.00  0.00    +0.000 OA
BRANCH  19  28
ATOM     24  C   UNL     1       1.221   3.737  18.080  0.00  0.00    +0.000 C 
ATOM     25  C   UNL     1       2.495   4.475  17.795  0.00  0.00    +0.000 A 
ATOM     26  C   UNL     1       3.582   3.836  17.190  0.00  0.00    +0.000 A 
ATOM     27  C   UNL     1       4.776   4.529  16.967  0.00  0.00    +0.000 A 
ATOM     28  C   UNL     1       4.910   5.873  17.344  0.00  0.00    +0.000 A 
ATOM     29  C   UNL     1       3.806   6.515  17.924  0.00  0.00    +0.000 A 
ATOM     30  C   UNL     1       2.612   5.823  18.148  0.00  0.00    +0.000 A 
ENDBRANCH  19  28
ENDBRANCH   1  22
TORSDOF 3
ENDMDL
MODEL 5
REMARK VINA RESULT:      -8.7      6.141      9.272
REMARK  Name = 
REMARK  4 active torsions:
REMARK  status: ('A' for Active; 'I' for Inactive)
REMARK    1  A    between atoms: C_1  and  C_2
REMARK    2  A    between atoms: C_5  and  C_6
REMARK    3  A    between atoms: C_9  and  C_10
REMARK    4  A    between atoms: C_13  and  C_14
REMARK                            x       y       z     vdW  Elec       q    Type
REMARK                         _______ _______ _______ _____ _____    ______ ____
ROOT
ATOM      1  C   UNL     1       2.722   6.712  18.901  0.00  0.00    +0.000 A 
ATOM      2  C   UNL     1       2.583   7.927  18.211  0.00  0.00    +0.000 A 
ATOM      3  C   UNL     1       1.872   8.991  18.777  0.00  0.00    +0.000 A 
ATOM      4  C   UNL     1       1.340   8.870  20.056  0.00  0.00    +0.000 A 
ATOM      5  C   UNL     1       1.487   7.674  20.768  0.00  0.00    +0.000 A 
ATOM      6  C   UNL     1       2.173   6.603  20.190  0.00  0.00    +0.000 A 
ENDROOT
BRANCH   4   7
ATOM      7  C   UNL     1       0.589   9.967  20.709  0.00  0.00    +0.000 C 
ATOM      8  O   UNL     1       1.069  10.455  21.731  0.00  0.00    +0.000 OA
ATOM      9  N   UNL     1      -0.594  10.438  20.122  0.00  0.00    +0.000 N 
ATOM     10  C   UNL     1      -1.286  11.568  20.768  0.00  0.00    +0.000 C 
ATOM     11  C   UNL     1      -1.789  12.582  19.738  0.00  0.00    +0.000 C 
ATOM     12  C   UNL     1      -2.768  11.840  18.867  0.00  0.00    +0.000 A 
ATOM     13  C   UNL     1      -4.078  12.262  18.651  0.00  0.00    +0.000 A 
ATOM     14  C   UNL     1      -4.944  11.458  17.909  0.00  0.00    +0.000 A 
ATOM     15  C   UNL     1      -4.498  10.253  17.359  0.00  0.00    +0.000 A 
ATOM     16  C   UNL     1      -3.191   9.826  17.578  0.00  0.00    +0.000 A 
ATOM     17  C   UNL     1      -2.334  10.603  18.360  0.00  0.00    +0.000 A 
ATOM     18  C   UNL     1      -0.945  10.147  18.718  0.00  0.00    +0.000 C 
ENDBRANCH   4   7
BRANCH   1  22
ATOM     19  C   UNL     1       4.581   4.609  16.788  0.00  0.00    +0.000 A 
ATOM     20  N   UNL     1       4.269   3.698  17.687  0.00  0.00    +0.000 NA
ATOM     21  N   UNL     1       3.488   4.330  18.634  0.00  0.00    +0.000 NA
ATOM     22  C   UNL     1       3.384   5.588  18.253  0.00  0.00    +0.000 A 
ATOM     23  O   UNL     1       4.050   5.839  17.083  0.00  0.00    +0.000 OA
BRANCH  19  28
ATOM     24  C   UNL     1       7.508   4.289  11.812  0.00  0.00    +0.000 C 
ATOM     25  C   UNL     1       6.763   4.329  13.113  0.00  0.00    +0.000 A 
ATOM     26  C   UNL     1       5.506   3.732  13.247  0.00  0.00    +0.000 A 
ATOM     27  C   UNL     1       4.808   3.813  14.456  0.00  0.00    +0.000 A 
ATOM     28  C   UNL     1       5.352   4.491  15.557  0.00  0.00    +0.000 A 
ATOM     29  C   UNL     1       6.625   5.063  15.424  0.00  0.00    +0.000 A 
ATOM     30  C   UNL     1       7.323   4.984  14.215  0.00  0.00    +0.000 A 
ENDBRANCH  19  28
ENDBRANCH   1  22
TORSDOF 3
ENDMDL
MODEL 6
REMARK VINA RESULT:      -8.5      7.971     11.526
REMARK  Name = 
REMARK  4 active torsions:
REMARK  status: ('A' for Active; 'I' for Inactive)
REMARK    1  A    between atoms: C_1  and  C_2
REMARK    2  A    between atoms: C_5  and  C_6
REMARK    3  A    between atoms: C_9  and  C_10
REMARK    4  A    between atoms: C_13  and  C_14
REMARK                            x       y       z     vdW  Elec       q    Type
REMARK                         _______ _______ _______ _____ _____    ______ ____
ROOT
ATOM      1  C   UNL     1       0.762  10.217  19.833  0.00  0.00    +0.000 A 
ATOM      2  C   UNL     1       0.123   9.671  20.958  0.00  0.00    +0.000 A 
ATOM      3  C   UNL     1      -0.512  10.500  21.890  0.00  0.00    +0.000 A 
ATOM      4  C   UNL     1      -0.561  11.874  21.679  0.00  0.00    +0.000 A 
ATOM      5  C   UNL     1       0.052  12.434  20.553  0.00  0.00    +0.000 A 
ATOM      6  C   UNL     1       0.709  11.608  19.638  0.00  0.00    +0.000 A 
ENDROOT
BRANCH   4   7
ATOM      7  C   UNL     1      -1.229  12.797  22.625  0.00  0.00    +0.000 C 
ATOM      8  O   UNL     1      -0.537  13.314  23.500  0.00  0.00    +0.000 OA
ATOM      9  N   UNL     1      -2.591  13.086  22.461  0.00  0.00    +0.000 N 
ATOM     10  C   UNL     1      -3.211  14.053  23.385  0.00  0.00    +0.000 C 
ATOM     11  C   UNL     1      -4.151  15.010  22.650  0.00  0.00    +0.000 C 
ATOM     12  C   UNL     1      -5.229  14.152  22.042  0.00  0.00    +0.000 A 
ATOM     13  C   UNL     1      -6.589  14.354  22.264  0.00  0.00    +0.000 A 
ATOM     14  C   UNL     1      -7.511  13.448  21.739  0.00  0.00    +0.000 A 
ATOM     15  C   UNL     1      -7.082  12.362  20.971  0.00  0.00    +0.000 A 
ATOM     16  C   UNL     1      -5.723  12.154  20.753  0.00  0.00    +0.000 A 
ATOM     17  C   UNL     1      -4.792  13.030  21.316  0.00  0.00    +0.000 A 
ATOM     18  C   UNL     1      -3.309  12.802  21.203  0.00  0.00    +0.000 C 
ENDBRANCH   4   7
BRANCH   1  22
ATOM     19  C   UNL     1       2.291   7.502  18.211  0.00  0.00    +0.000 A 
ATOM     20  N   UNL     1       2.574   8.413  17.301  0.00  0.00    +0.000 NA
ATOM     21  N   UNL     1       2.064   9.608  17.769  0.00  0.00    +0.000 NA
ATOM     22  C   UNL     1       1.497   9.344  18.929  0.00  0.00    +0.000 A 
ATOM     23  O   UNL     1       1.606   8.023  19.279  0.00  0.00    +0.000 OA
BRANCH  19  28
ATOM     24  C   UNL     1       3.616   1.874  18.171  0.00  0.00    +0.000 C 
ATOM     25  C   UNL     1       3.251   3.328  18.222  0.00  0.00    +0.000 A 
ATOM     26  C   UNL     1       1.981   3.770  17.839  0.00  0.00    +0.000 A 
ATOM     27  C   UNL     1       1.670   5.133  17.856  0.00  0.00    +0.000 A 
ATOM     28  C   UNL     1       2.621   6.083  18.256  0.00  0.00    +0.000 A 
ATOM     29  C   UNL     1       3.884   5.631  18.665  0.00  0.00    +0.000 A 
ATOM     30  C   UNL     1       4.196   4.268  18.647  0.00  0.00    +0.000 A 
ENDBRANCH  19  28
ENDBRANCH   1  22
TORSDOF 3
ENDMDL
MODEL 7
REMARK VINA RESULT:      -8.5      7.620     10.895
REMARK  Name = 
REMARK  4 active torsions:
REMARK  status: ('A' for Active; 'I' for Inactive)
REMARK    1  A    between atoms: C_1  and  C_2
REMARK    2  A    between atoms: C_5  and  C_6
REMARK    3  A    between atoms: C_9  and  C_10
REMARK    4  A    between atoms: C_13  and  C_14
REMARK                            x       y       z     vdW  Elec       q    Type
REMARK                         _______ _______ _______ _____ _____    ______ ____
ROOT
ATOM      1  C   UNL     1       0.733   8.967  20.996  0.00  0.00    +0.000 A 
ATOM      2  C   UNL     1      -0.075   8.988  22.143  0.00  0.00    +0.000 A 
ATOM      3  C   UNL     1      -0.598  10.192  22.626  0.00  0.00    +0.000 A 
ATOM      4  C   UNL     1      -0.365  11.378  21.937  0.00  0.00    +0.000 A 
ATOM      5  C   UNL     1       0.421  11.374  20.779  0.00  0.00    +0.000 A 
ATOM      6  C   UNL     1       0.966  10.174  20.315  0.00  0.00    +0.000 A 
ENDROOT
BRANCH   4   7
ATOM      7  C   UNL     1      -0.903  12.679  22.394  0.00  0.00    +0.000 C 
ATOM      8  O   UNL     1      -0.201  13.353  23.147  0.00  0.00    +0.000 OA
ATOM      9  N   UNL     1      -2.149  13.115  21.921  0.00  0.00    +0.000 N 
ATOM     10  C   UNL     1      -2.630  14.440  22.352  0.00  0.00    +0.000 C 
ATOM     11  C   UNL     1      -3.267  15.211  21.194  0.00  0.00    +0.000 C 
ATOM     12  C   UNL     1      -4.442  14.386  20.741  0.00  0.00    +0.000 A 
ATOM     13  C   UNL     1      -5.741  14.882  20.654  0.00  0.00    +0.000 A 
ATOM     14  C   UNL     1      -6.784  14.018  20.319  0.00  0.00    +0.000 A 
ATOM     15  C   UNL     1      -6.529  12.672  20.042  0.00  0.00    +0.000 A 
ATOM     16  C   UNL     1      -5.233  12.172  20.134  0.00  0.00    +0.000 A 
ATOM     17  C   UNL     1      -4.192  13.021  20.515  0.00  0.00    +0.000 A 
ATOM     18  C   UNL     1      -2.790  12.521  20.731  0.00  0.00    +0.000 C 
ENDBRANCH   4   7
BRANCH   1  22
ATOM     19  C   UNL     1       2.555   6.451  19.355  0.00  0.00    +0.000 A 
ATOM     20  N   UNL     1       2.111   5.706  20.347  0.00  0.00    +0.000 NA
ATOM     21  N   UNL     1       1.322   6.525  21.131  0.00  0.00    +0.000 NA
ATOM     22  C   UNL     1       1.345   7.716  20.568  0.00  0.00    +0.000 A 
ATOM     23  O   UNL     1       2.106   7.745  19.429  0.00  0.00    +0.000 OA
BRANCH  19  28
ATOM     24  C   UNL     1       6.061   5.099  14.961  0.00  0.00    +0.000 C 
ATOM     25  C   UNL     1       5.118   5.459  16.070  0.00  0.00    +0.000 A 
ATOM     26  C   UNL     1       4.885   6.792  16.419  0.00  0.00    +0.000 A 
ATOM     27  C   UNL     1       4.032   7.108  17.481  0.00  0.00    +0.000 A 
ATOM     28  C   UNL     1       3.395   6.099  18.217  0.00  0.00    +0.000 A 
ATOM     29  C   UNL     1       3.610   4.764  17.843  0.00  0.00    +0.000 A 
ATOM     30  C   UNL     1       4.464   4.447  16.782  0.00  0.00    +0.000 A 
ENDBRANCH  19  28
ENDBRANCH   1  22
TORSDOF 3
ENDMDL
MODEL 8
REMARK VINA RESULT:      -8.5      6.114      9.215
REMARK  Name = 
REMARK  4 active torsions:
REMARK  status: ('A' for Active; 'I' for Inactive)
REMARK    1  A    between atoms: C_1  and  C_2
REMARK    2  A    between atoms: C_5  and  C_6
REMARK    3  A    between atoms: C_9  and  C_10
REMARK    4  A    between atoms: C_13  and  C_14
REMARK                            x       y       z     vdW  Elec       q    Type
REMARK                         _______ _______ _______ _____ _____    ______ ____
ROOT
ATOM      1  C   UNL     1       2.748   6.696  18.885  0.00  0.00    +0.000 A 
ATOM      2  C   UNL     1       2.185   6.503  20.157  0.00  0.00    +0.000 A 
ATOM      3  C   UNL     1       1.502   7.541  20.800  0.00  0.00    +0.000 A 
ATOM      4  C   UNL     1       1.327   8.762  20.157  0.00  0.00    +0.000 A 
ATOM      5  C   UNL     1       1.863   8.966  18.880  0.00  0.00    +0.000 A 
ATOM      6  C   UNL     1       2.569   7.938  18.252  0.00  0.00    +0.000 A 
ENDROOT
BRANCH   4   7
ATOM      7  C   UNL     1       0.602   9.891  20.783  0.00  0.00    +0.000 C 
ATOM      8  O   UNL     1       1.084  10.380  21.804  0.00  0.00    +0.000 OA
ATOM      9  N   UNL     1      -0.559  10.388  20.175  0.00  0.00    +0.000 N 
ATOM     10  C   UNL     1      -1.224  11.549  20.795  0.00  0.00    +0.000 C 
ATOM     11  C   UNL     1      -1.683  12.561  19.743  0.00  0.00    +0.000 C 
ATOM     12  C   UNL     1      -2.674  11.835  18.872  0.00  0.00    +0.000 A 
ATOM     13  C   UNL     1      -3.968  12.293  18.633  0.00  0.00    +0.000 A 
ATOM     14  C   UNL     1      -4.849  11.505  17.893  0.00  0.00    +0.000 A 
ATOM     15  C   UNL     1      -4.433  10.278  17.367  0.00  0.00    +0.000 A 
ATOM     16  C   UNL     1      -3.143   9.815  17.608  0.00  0.00    +0.000 A 
ATOM     17  C   UNL     1      -2.271  10.578  18.389  0.00  0.00    +0.000 A 
ATOM     18  C   UNL     1      -0.902  10.086  18.771  0.00  0.00    +0.000 C 
ENDBRANCH   4   7
BRANCH   1  22
ATOM     19  C   UNL     1       4.742   4.707  16.786  0.00  0.00    +0.000 A 
ATOM     20  N   UNL     1       4.690   3.867  17.800  0.00  0.00    +0.000 NA
ATOM     21  N   UNL     1       3.903   4.464  18.765  0.00  0.00    +0.000 NA
ATOM     22  C   UNL     1       3.536   5.632  18.278  0.00  0.00    +0.000 A 
ATOM     23  O   UNL     1       4.029   5.855  17.019  0.00  0.00    +0.000 OA
BRANCH  19  28
ATOM     24  C   UNL     1       7.474   4.044  11.734  0.00  0.00    +0.000 C 
ATOM     25  C   UNL     1       6.753   4.259  13.031  0.00  0.00    +0.000 A 
ATOM     26  C   UNL     1       7.349   4.962  14.082  0.00  0.00    +0.000 A 
ATOM     27  C   UNL     1       6.677   5.120  15.299  0.00  0.00    +0.000 A 
ATOM     28  C   UNL     1       5.398   4.578  15.491  0.00  0.00    +0.000 A 
ATOM     29  C   UNL     1       4.795   3.899  14.422  0.00  0.00    +0.000 A 
ATOM     30  C   UNL     1       5.466   3.740  13.206  0.00  0.00    +0.000 A 
ENDBRANCH  19  28
ENDBRANCH   1  22
TORSDOF 3
ENDMDL
MODEL 9
REMARK VINA RESULT:      -8.5      6.066     10.501
REMARK  Name = 
REMARK  4 active torsions:
REMARK  status: ('A' for Active; 'I' for Inactive)
REMARK    1  A    between atoms: C_1  and  C_2
REMARK    2  A    between atoms: C_5  and  C_6
REMARK    3  A    between atoms: C_9  and  C_10
REMARK    4  A    between atoms: C_13  and  C_14
REMARK                            x       y       z     vdW  Elec       q    Type
REMARK                         _______ _______ _______ _____ _____    ______ ____
ROOT
ATOM      1  C   UNL     1       1.478   8.578  19.506  0.00  0.00    +0.000 A 
ATOM      2  C   UNL     1       1.172   9.020  20.803  0.00  0.00    +0.000 A 
ATOM      3  C   UNL     1       0.504  10.233  21.004  0.00  0.00    +0.000 A 
ATOM      4  C   UNL     1       0.089  10.988  19.912  0.00  0.00    +0.000 A 
ATOM      5  C   UNL     1       0.367  10.552  18.611  0.00  0.00    +0.000 A 
ATOM      6  C   UNL     1       1.058   9.355  18.413  0.00  0.00    +0.000 A 
ENDROOT
BRANCH   4   7
ATOM      7  C   UNL     1      -0.631  12.273  20.064  0.00  0.00    +0.000 C 
ATOM      8  O   UNL     1      -1.755  12.239  20.565  0.00  0.00    +0.000 OA
ATOM      9  N   UNL     1      -0.001  13.467  19.687  0.00  0.00    +0.000 N 
ATOM     10  C   UNL     1      -0.725  14.732  19.905  0.00  0.00    +0.000 C 
ATOM     11  C   UNL     1       0.199  15.821  20.453  0.00  0.00    +0.000 C 
ATOM     12  C   UNL     1       1.258  16.036  19.404  0.00  0.00    +0.000 A 
ATOM     13  C   UNL     1       1.543  17.279  18.843  0.00  0.00    +0.000 A 
ATOM     14  C   UNL     1       2.473  17.366  17.806  0.00  0.00    +0.000 A 
ATOM     15  C   UNL     1       3.138  16.224  17.351  0.00  0.00    +0.000 A 
ATOM     16  C   UNL     1       2.851  14.980  17.906  0.00  0.00    +0.000 A 
ATOM     17  C   UNL     1       1.886  14.879  18.911  0.00  0.00    +0.000 A 
ATOM     18  C   UNL     1       1.458  13.553  19.479  0.00  0.00    +0.000 C 
ENDBRANCH   4   7
BRANCH   1  22
ATOM     19  C   UNL     1       3.558   6.008  18.319  0.00  0.00    +0.000 A 
ATOM     20  N   UNL     1       3.338   5.497  19.513  0.00  0.00    +0.000 NA
ATOM     21  N   UNL     1       2.490   6.371  20.165  0.00  0.00    +0.000 NA
ATOM     22  C   UNL     1       2.257   7.360  19.326  0.00  0.00    +0.000 A 
ATOM     23  O   UNL     1       2.900   7.196  18.128  0.00  0.00    +0.000 OA
BRANCH  19  28
ATOM     24  C   UNL     1       6.487   3.898  13.802  0.00  0.00    +0.000 C 
ATOM     25  C   UNL     1       5.765   4.440  15.000  0.00  0.00    +0.000 A 
ATOM     26  C   UNL     1       5.213   3.586  15.960  0.00  0.00    +0.000 A 
ATOM     27  C   UNL     1       4.509   4.108  17.051  0.00  0.00    +0.000 A 
ATOM     28  C   UNL     1       4.343   5.492  17.205  0.00  0.00    +0.000 A 
ATOM     29  C   UNL     1       4.924   6.343  16.253  0.00  0.00    +0.000 A 
ATOM     30  C   UNL     1       5.627   5.822  15.162  0.00  0.00    +0.000 A 
ENDBRANCH  19  28
ENDBRANCH   1  22
TORSDOF 3
ENDMDL
