MODEL 1
REMARK VINA RESULT:      -8.9      0.000      0.000
REMARK  Name = 
REMARK  3 active torsions:
REMARK  status: ('A' for Active; 'I' for Inactive)
REMARK    1  A    between atoms: C_2  and  C_4
REMARK    2  A    between atoms: C_8  and  N_9
REMARK    3  A    between atoms: C_10  and  C_12
REMARK                            x       y       z     vdW  Elec       q    Type
REMARK                         _______ _______ _______ _____ _____    ______ ____
ROOT
ATOM      1  C   UNL     1       7.239   6.285  17.088  0.00  0.00    +0.000 C 
ATOM      2  C   UNL     1       6.204   6.894  16.134  0.00  0.00    +0.000 C 
ATOM      3  C   UNL     1       4.830   7.012  16.765  0.00  0.00    +0.000 C 
ATOM      4  C   UNL     1       4.430   5.681  17.353  0.00  0.00    +0.000 C 
ATOM      5  N   UNL     1       5.389   5.271  18.427  0.00  0.00    +0.000 N 
ATOM      6  C   UNL     1       4.858   4.222  19.187  0.00  0.00    +0.000 C 
ATOM      7  N   UNL     1       5.218   2.980  19.050  0.00  0.00    +0.000 NA
ATOM      8  S   UNL     1       4.023   1.991  19.594  0.00  0.00    +0.000 S 
ATOM      9  O   UNL     1       4.424   1.336  20.829  0.00  0.00    +0.000 OA
ATOM     10  O   UNL     1       3.442   1.270  18.486  0.00  0.00    +0.000 OA
ATOM     11  C   UNL     1       2.918   3.264  20.017  0.00  0.00    +0.000 A 
ATOM     12  C   UNL     1       1.548   3.237  20.157  0.00  0.00    +0.000 A 
ATOM     13  C   UNL     1       0.909   4.459  20.407  0.00  0.00    +0.000 A 
ATOM     14  C   UNL     1       1.650   5.651  20.538  0.00  0.00    +0.000 A 
ATOM     15  C   UNL     1       3.024   5.656  20.301  0.00  0.00    +0.000 A 
ATOM     16  C   UNL     1       3.613   4.449  19.962  0.00  0.00    +0.000 A 
ATOM     17  C   UNL     1       6.741   5.051  17.846  0.00  0.00    +0.000 C 
ENDROOT
BRANCH   1  19
ATOM     18  N   UNL     1       7.933   8.626  17.434  0.00  0.00    +0.000 N 
ATOM     19  C   UNL     1       7.844   7.360  17.982  0.00  0.00    +0.000 C 
ATOM     20  O   UNL     1       8.265   7.024  19.088  0.00  0.00    +0.000 OA
ATOM     21  H   UNL     1       7.510   8.760  16.519  0.00  0.00    +0.000 HD
BRANCH  18  26
ATOM     22  C   UNL     1       8.540  12.213  18.187  0.00  0.00    +0.000 A 
ATOM     23  C   UNL     1       9.374  12.141  19.306  0.00  0.00    +0.000 A 
ATOM     24  C   UNL     1       9.771  10.899  19.787  0.00  0.00    +0.000 A 
ATOM     25  C   UNL     1       9.318   9.731  19.168  0.00  0.00    +0.000 A 
ATOM     26  C   UNL     1       8.455   9.780  18.069  0.00  0.00    +0.000 A 
ATOM     27  C   UNL     1       8.075  11.034  17.576  0.00  0.00    +0.000 A 
BRANCH  22  29
ATOM     28  N   UNL     1       9.067  14.449  17.353  0.00  0.00    +0.000 N 
ATOM     29  C   UNL     1       8.100  13.520  17.634  0.00  0.00    +0.000 C 
ATOM     30  O   UNL     1       6.921  13.754  17.405  0.00  0.00    +0.000 OA
ATOM     31  H   UNL     1       8.757  15.301  16.904  0.00  0.00    +0.000 HD
ATOM     32  H   UNL     1      10.049  14.224  17.304  0.00  0.00    +0.000 HD
ENDBRANCH  22  29
ENDBRANCH  18  26
ENDBRANCH   1  19
TORSDOF 3
ENDMDL
MODEL 2
REMARK VINA RESULT:      -8.1      1.567      1.956
REMARK  Name = 
REMARK  3 active torsions:
REMARK  status: ('A' for Active; 'I' for Inactive)
REMARK    1  A    between atoms: C_2  and  C_4
REMARK    2  A    between atoms: C_8  and  N_9
REMARK    3  A    between atoms: C_10  and  C_12
REMARK                            x       y       z     vdW  Elec       q    Type
REMARK                         _______ _______ _______ _____ _____    ______ ____
ROOT
ATOM      1  C   UNL     1       7.321   6.412  17.046  0.00  0.00    +0.000 C 
ATOM      2  C   UNL     1       6.293   6.808  15.980  0.00  0.00    +0.000 C 
ATOM      3  C   UNL     1       4.884   6.896  16.535  0.00  0.00    +0.000 C 
ATOM      4  C   UNL     1       4.555   5.625  17.279  0.00  0.00    +0.000 C 
ATOM      5  N   UNL     1       5.487   5.435  18.435  0.00  0.00    +0.000 N 
ATOM      6  C   UNL     1       4.998   4.456  19.306  0.00  0.00    +0.000 C 
ATOM      7  N   UNL     1       5.456   3.238  19.350  0.00  0.00    +0.000 NA
ATOM      8  S   UNL     1       4.311   2.237  19.973  0.00  0.00    +0.000 S 
ATOM      9  O   UNL     1       4.698   1.781  21.300  0.00  0.00    +0.000 OA
ATOM     10  O   UNL     1       3.841   1.334  18.949  0.00  0.00    +0.000 OA
ATOM     11  C   UNL     1       3.096   3.461  20.179  0.00  0.00    +0.000 A 
ATOM     12  C   UNL     1       1.726   3.343  20.268  0.00  0.00    +0.000 A 
ATOM     13  C   UNL     1       0.988   4.533  20.327  0.00  0.00    +0.000 A 
ATOM     14  C   UNL     1       1.631   5.787  20.327  0.00  0.00    +0.000 A 
ATOM     15  C   UNL     1       3.010   5.871  20.146  0.00  0.00    +0.000 A 
ATOM     16  C   UNL     1       3.703   4.681  19.994  0.00  0.00    +0.000 A 
ATOM     17  C   UNL     1       6.879   5.251  17.942  0.00  0.00    +0.000 C 
ENDROOT
BRANCH   1  19
ATOM     18  N   UNL     1       7.727   8.843  17.138  0.00  0.00    +0.000 N 
ATOM     19  C   UNL     1       7.801   7.638  17.813  0.00  0.00    +0.000 C 
ATOM     20  O   UNL     1       8.273   7.472  18.936  0.00  0.00    +0.000 OA
ATOM     21  H   UNL     1       7.279   8.829  16.224  0.00  0.00    +0.000 HD
BRANCH  18  26
ATOM     22  C   UNL     1       9.354  11.382  19.307  0.00  0.00    +0.000 A 
ATOM     23  C   UNL     1       8.995  12.578  18.679  0.00  0.00    +0.000 A 
ATOM     24  C   UNL     1       8.176  12.545  17.557  0.00  0.00    +0.000 A 
ATOM     25  C   UNL     1       7.734  11.320  17.048  0.00  0.00    +0.000 A 
ATOM     26  C   UNL     1       8.110  10.111  17.640  0.00  0.00    +0.000 A 
ATOM     27  C   UNL     1       8.919  10.151  18.782  0.00  0.00    +0.000 A 
BRANCH  22  29
ATOM     28  N   UNL     1       9.604  11.337  21.737  0.00  0.00    +0.000 N 
ATOM     29  C   UNL     1      10.220  11.372  20.515  0.00  0.00    +0.000 C 
ATOM     30  O   UNL     1      11.440  11.365  20.427  0.00  0.00    +0.000 OA
ATOM     31  H   UNL     1      10.208  11.250  22.545  0.00  0.00    +0.000 HD
ATOM     32  H   UNL     1       8.629  11.109  21.856  0.00  0.00    +0.000 HD
ENDBRANCH  22  29
ENDBRANCH  18  26
ENDBRANCH   1  19
TORSDOF 3
ENDMDL
MODEL 3
REMARK VINA RESULT:      -8.0      1.263      1.263
REMARK  Name = 
REMARK  3 active torsions:
REMARK  status: ('A' for Active; 'I' for Inactive)
REMARK    1  A    between atoms: C_2  and  C_4
REMARK    2  A    between atoms: C_8  and  N_9
REMARK    3  A    between atoms: C_10  and  C_12
REMARK                            x       y       z     vdW  Elec       q    Type
REMARK                         _______ _______ _______ _____ _____    ______ ____
ROOT
ATOM      1  C   UNL     1       6.950   6.550  16.844  0.00  0.00    +0.000 C 
ATOM      2  C   UNL     1       5.881   7.412  16.163  0.00  0.00    +0.000 C 
ATOM      3  C   UNL     1       4.595   7.486  16.964  0.00  0.00    +0.000 C 
ATOM      4  C   UNL     1       4.141   6.091  17.317  0.00  0.00    +0.000 C 
ATOM      5  N   UNL     1       5.165   5.402  18.164  0.00  0.00    +0.000 N 
ATOM      6  C   UNL     1       4.624   4.256  18.756  0.00  0.00    +0.000 C 
ATOM      7  N   UNL     1       4.855   3.048  18.331  0.00  0.00    +0.000 NA
ATOM      8  S   UNL     1       3.639   2.050  18.805  0.00  0.00    +0.000 S 
ATOM      9  O   UNL     1       4.105   1.125  19.826  0.00  0.00    +0.000 OA
ATOM     10  O   UNL     1       2.884   1.617  17.652  0.00  0.00    +0.000 OA
ATOM     11  C   UNL     1       2.702   3.276  19.603  0.00  0.00    +0.000 A 
ATOM     12  C   UNL     1       1.357   3.311  19.898  0.00  0.00    +0.000 A 
ATOM     13  C   UNL     1       0.860   4.493  20.463  0.00  0.00    +0.000 A 
ATOM     14  C   UNL     1       1.714   5.580  20.740  0.00  0.00    +0.000 A 
ATOM     15  C   UNL     1       3.051   5.543  20.347  0.00  0.00    +0.000 A 
ATOM     16  C   UNL     1       3.491   4.398  19.704  0.00  0.00    +0.000 A 
ATOM     17  C   UNL     1       6.425   5.220  17.393  0.00  0.00    +0.000 C 
ENDROOT
BRANCH   1  19
ATOM     18  N   UNL     1       8.018   8.676  17.495  0.00  0.00    +0.000 N 
ATOM     19  C   UNL     1       7.739   7.371  17.857  0.00  0.00    +0.000 C 
ATOM     20  O   UNL     1       8.124   6.811  18.883  0.00  0.00    +0.000 OA
ATOM     21  H   UNL     1       7.601   9.009  16.629  0.00  0.00    +0.000 HD
BRANCH  18  26
ATOM     22  C   UNL     1      10.123  11.626  18.308  0.00  0.00    +0.000 A 
ATOM     23  C   UNL     1      10.119  11.613  19.706  0.00  0.00    +0.000 A 
ATOM     24  C   UNL     1       9.451  10.598  20.381  0.00  0.00    +0.000 A 
ATOM     25  C   UNL     1       8.769   9.611  19.664  0.00  0.00    +0.000 A 
ATOM     26  C   UNL     1       8.731   9.626  18.266  0.00  0.00    +0.000 A 
ATOM     27  C   UNL     1       9.422  10.639  17.591  0.00  0.00    +0.000 A 
BRANCH  22  29
ATOM     28  N   UNL     1      12.103  12.415  17.113  0.00  0.00    +0.000 N 
ATOM     29  C   UNL     1      10.833  12.687  17.547  0.00  0.00    +0.000 C 
ATOM     30  O   UNL     1      10.297  13.755  17.287  0.00  0.00    +0.000 OA
ATOM     31  H   UNL     1      12.541  13.117  16.529  0.00  0.00    +0.000 HD
ATOM     32  H   UNL     1      12.493  11.485  17.099  0.00  0.00    +0.000 HD
ENDBRANCH  22  29
ENDBRANCH  18  26
ENDBRANCH   1  19
TORSDOF 3
ENDMDL
MODEL 4
REMARK VINA RESULT:      -7.9      5.860     10.578
REMARK  Name = 
REMARK  3 active torsions:
REMARK  status: ('A' for Active; 'I' for Inactive)
REMARK    1  A    between atoms: C_2  and  C_4
REMARK    2  A    between atoms: C_8  and  N_9
REMARK    3  A    between atoms: C_10  and  C_12
REMARK                            x       y       z     vdW  Elec       q    Type
REMARK                         _______ _______ _______ _____ _____    ______ ____
ROOT
ATOM      1  C   UNL     1      -0.109  10.824  20.420  0.00  0.00    +0.000 C 
ATOM      2  C   UNL     1      -1.127  11.531  19.518  0.00  0.00    +0.000 C 
ATOM      3  C   UNL     1      -0.480  12.547  18.595  0.00  0.00    +0.000 C 
ATOM      4  C   UNL     1       0.391  13.478  19.403  0.00  0.00    +0.000 C 
ATOM      5  N   UNL     1       1.487  12.717  20.080  0.00  0.00    +0.000 N 
ATOM      6  C   UNL     1       2.472  13.590  20.556  0.00  0.00    +0.000 C 
ATOM      7  N   UNL     1       2.586  13.936  21.805  0.00  0.00    +0.000 NA
ATOM      8  S   UNL     1       3.373  15.374  21.914  0.00  0.00    +0.000 S 
ATOM      9  O   UNL     1       4.702  15.188  22.477  0.00  0.00    +0.000 OA
ATOM     10  O   UNL     1       2.467  16.395  22.385  0.00  0.00    +0.000 OA
ATOM     11  C   UNL     1       3.562  15.604  20.202  0.00  0.00    +0.000 A 
ATOM     12  C   UNL     1       3.761  16.761  19.480  0.00  0.00    +0.000 A 
ATOM     13  C   UNL     1       3.773  16.645  18.084  0.00  0.00    +0.000 A 
ATOM     14  C   UNL     1       3.619  15.392  17.458  0.00  0.00    +0.000 A 
ATOM     15  C   UNL     1       3.332  14.257  18.215  0.00  0.00    +0.000 A 
ATOM     16  C   UNL     1       3.231  14.419  19.587  0.00  0.00    +0.000 A 
ATOM     17  C   UNL     1       0.912  11.765  21.069  0.00  0.00    +0.000 C 
ENDROOT
BRANCH   1  19
ATOM     18  N   UNL     1       1.125   8.690  20.505  0.00  0.00    +0.000 N 
ATOM     19  C   UNL     1       0.513   9.635  19.701  0.00  0.00    +0.000 C 
ATOM     20  O   UNL     1       0.488   9.623  18.471  0.00  0.00    +0.000 OA
ATOM     21  H   UNL     1       1.033   8.818  21.510  0.00  0.00    +0.000 HD
BRANCH  18  26
ATOM     22  C   UNL     1       2.055   5.099  20.321  0.00  0.00    +0.000 A 
ATOM     23  C   UNL     1       2.930   5.078  19.231  0.00  0.00    +0.000 A 
ATOM     24  C   UNL     1       3.245   6.265  18.581  0.00  0.00    +0.000 A 
ATOM     25  C   UNL     1       2.671   7.468  19.003  0.00  0.00    +0.000 A 
ATOM     26  C   UNL     1       1.767   7.506  20.068  0.00  0.00    +0.000 A 
ATOM     27  C   UNL     1       1.468   6.310  20.732  0.00  0.00    +0.000 A 
BRANCH  22  29
ATOM     28  N   UNL     1       0.693   3.082  20.533  0.00  0.00    +0.000 N 
ATOM     29  C   UNL     1       1.699   3.854  21.050  0.00  0.00    +0.000 C 
ATOM     30  O   UNL     1       2.298   3.509  22.059  0.00  0.00    +0.000 OA
ATOM     31  H   UNL     1       0.518   2.199  20.997  0.00  0.00    +0.000 HD
ATOM     32  H   UNL     1       0.335   3.198  19.597  0.00  0.00    +0.000 HD
ENDBRANCH  22  29
ENDBRANCH  18  26
ENDBRANCH   1  19
TORSDOF 3
ENDMDL
MODEL 5
REMARK VINA RESULT:      -7.9      7.095     10.862
REMARK  Name = 
REMARK  3 active torsions:
REMARK  status: ('A' for Active; 'I' for Inactive)
REMARK    1  A    between atoms: C_2  and  C_4
REMARK    2  A    between atoms: C_8  and  N_9
REMARK    3  A    between atoms: C_10  and  C_12
REMARK                            x       y       z     vdW  Elec       q    Type
REMARK                         _______ _______ _______ _____ _____    ______ ____
ROOT
ATOM      1  C   UNL     1       1.279   9.956  21.845  0.00  0.00    +0.000 C 
ATOM      2  C   UNL     1       0.416   9.517  23.034  0.00  0.00    +0.000 C 
ATOM      3  C   UNL     1      -1.036   9.932  22.884  0.00  0.00    +0.000 C 
ATOM      4  C   UNL     1      -1.109  11.406  22.569  0.00  0.00    +0.000 C 
ATOM      5  N   UNL     1      -0.416  11.703  21.276  0.00  0.00    +0.000 N 
ATOM      6  C   UNL     1      -0.751  12.983  20.820  0.00  0.00    +0.000 C 
ATOM      7  N   UNL     1       0.034  14.015  20.929  0.00  0.00    +0.000 NA
ATOM      8  S   UNL     1      -0.857  15.396  20.891  0.00  0.00    +0.000 S 
ATOM      9  O   UNL     1      -0.626  16.118  19.649  0.00  0.00    +0.000 OA
ATOM     10  O   UNL     1      -0.816  16.040  22.182  0.00  0.00    +0.000 OA
ATOM     11  C   UNL     1      -2.400  14.610  20.755  0.00  0.00    +0.000 A 
ATOM     12  C   UNL     1      -3.659  15.068  21.076  0.00  0.00    +0.000 A 
ATOM     13  C   UNL     1      -4.718  14.159  20.954  0.00  0.00    +0.000 A 
ATOM     14  C   UNL     1      -4.497  12.846  20.492  0.00  0.00    +0.000 A 
ATOM     15  C   UNL     1      -3.200  12.389  20.261  0.00  0.00    +0.000 A 
ATOM     16  C   UNL     1      -2.164  13.282  20.483  0.00  0.00    +0.000 A 
ATOM     17  C   UNL     1       1.037  11.400  21.394  0.00  0.00    +0.000 C 
ENDROOT
BRANCH   1  19
ATOM     18  N   UNL     1       1.958   7.788  20.884  0.00  0.00    +0.000 N 
ATOM     19  C   UNL     1       1.201   8.934  20.718  0.00  0.00    +0.000 C 
ATOM     20  O   UNL     1       0.534   9.216  19.724  0.00  0.00    +0.000 OA
ATOM     21  H   UNL     1       2.432   7.679  21.778  0.00  0.00    +0.000 HD
BRANCH  18  26
ATOM     22  C   UNL     1       1.519   4.374  19.489  0.00  0.00    +0.000 A 
ATOM     23  C   UNL     1       2.097   4.498  18.222  0.00  0.00    +0.000 A 
ATOM     24  C   UNL     1       2.672   5.706  17.846  0.00  0.00    +0.000 A 
ATOM     25  C   UNL     1       2.650   6.795  18.721  0.00  0.00    +0.000 A 
ATOM     26  C   UNL     1       2.046   6.703  19.979  0.00  0.00    +0.000 A 
ATOM     27  C   UNL     1       1.485   5.477  20.361  0.00  0.00    +0.000 A 
BRANCH  22  29
ATOM     28  N   UNL     1       0.982   2.785  21.266  0.00  0.00    +0.000 N 
ATOM     29  C   UNL     1       0.901   3.098  19.935  0.00  0.00    +0.000 C 
ATOM     30  O   UNL     1       0.313   2.364  19.153  0.00  0.00    +0.000 OA
ATOM     31  H   UNL     1       0.489   1.953  21.565  0.00  0.00    +0.000 HD
ATOM     32  H   UNL     1       1.245   3.453  21.973  0.00  0.00    +0.000 HD
ENDBRANCH  22  29
ENDBRANCH  18  26
ENDBRANCH   1  19
TORSDOF 3
ENDMDL
MODEL 6
REMARK VINA RESULT:      -7.8      1.880      2.222
REMARK  Name = 
REMARK  3 active torsions:
REMARK  status: ('A' for Active; 'I' for Inactive)
REMARK    1  A    between atoms: C_2  and  C_4
REMARK    2  A    between atoms: C_8  and  N_9
REMARK    3  A    between atoms: C_10  and  C_12
REMARK                            x       y       z     vdW  Elec       q    Type
REMARK                         _______ _______ _______ _____ _____    ______ ____
ROOT
ATOM      1  C   UNL     1       7.546   6.107  17.247  0.00  0.00    +0.000 C 
ATOM      2  C   UNL     1       7.177   5.782  15.794  0.00  0.00    +0.000 C 
ATOM      3  C   UNL     1       5.694   5.521  15.615  0.00  0.00    +0.000 C 
ATOM      4  C   UNL     1       5.238   4.491  16.619  0.00  0.00    +0.000 C 
ATOM      5  N   UNL     1       5.445   4.991  18.016  0.00  0.00    +0.000 N 
ATOM      6  C   UNL     1       4.742   4.200  18.931  0.00  0.00    +0.000 C 
ATOM      7  N   UNL     1       5.301   3.295  19.679  0.00  0.00    +0.000 NA
ATOM      8  S   UNL     1       4.182   2.179  20.132  0.00  0.00    +0.000 S 
ATOM      9  O   UNL     1       3.887   2.298  21.552  0.00  0.00    +0.000 OA
ATOM     10  O   UNL     1       4.471   0.912  19.503  0.00  0.00    +0.000 OA
ATOM     11  C   UNL     1       2.857   2.894  19.265  0.00  0.00    +0.000 A 
ATOM     12  C   UNL     1       1.683   2.328  18.817  0.00  0.00    +0.000 A 
ATOM     13  C   UNL     1       0.840   3.139  18.047  0.00  0.00    +0.000 A 
ATOM     14  C   UNL     1       1.172   4.482  17.775  0.00  0.00    +0.000 A 
ATOM     15  C   UNL     1       2.407   4.995  18.169  0.00  0.00    +0.000 A 
ATOM     16  C   UNL     1       3.262   4.140  18.846  0.00  0.00    +0.000 A 
ATOM     17  C   UNL     1       6.898   5.179  18.279  0.00  0.00    +0.000 C 
ENDROOT
BRANCH   1  19
ATOM     18  N   UNL     1       8.492   8.318  17.795  0.00  0.00    +0.000 N 
ATOM     19  C   UNL     1       7.345   7.590  17.535  0.00  0.00    +0.000 C 
ATOM     20  O   UNL     1       6.194   8.021  17.579  0.00  0.00    +0.000 OA
ATOM     21  H   UNL     1       9.378   7.830  17.686  0.00  0.00    +0.000 HD
BRANCH  18  26
ATOM     22  C   UNL     1       9.473  11.478  19.483  0.00  0.00    +0.000 A 
ATOM     23  C   UNL     1       8.820  12.440  18.706  0.00  0.00    +0.000 A 
ATOM     24  C   UNL     1       8.019  12.037  17.646  0.00  0.00    +0.000 A 
ATOM     25  C   UNL     1       7.885  10.679  17.344  0.00  0.00    +0.000 A 
ATOM     26  C   UNL     1       8.557   9.702  18.086  0.00  0.00    +0.000 A 
ATOM     27  C   UNL     1       9.348  10.113  19.166  0.00  0.00    +0.000 A 
BRANCH  22  29
ATOM     28  N   UNL     1      11.682  11.951  20.414  0.00  0.00    +0.000 N 
ATOM     29  C   UNL     1      10.332  11.865  20.632  0.00  0.00    +0.000 C 
ATOM     30  O   UNL     1       9.856  12.129  21.726  0.00  0.00    +0.000 OA
ATOM     31  H   UNL     1      12.243  12.292  21.184  0.00  0.00    +0.000 HD
ATOM     32  H   UNL     1      12.091  11.972  19.492  0.00  0.00    +0.000 HD
ENDBRANCH  22  29
ENDBRANCH  18  26
ENDBRANCH   1  19
TORSDOF 3
ENDMDL
MODEL 7
REMARK VINA RESULT:      -7.7      5.815     10.024
REMARK  Name = 
REMARK  3 active torsions:
REMARK  status: ('A' for Active; 'I' for Inactive)
REMARK    1  A    between atoms: C_2  and  C_4
REMARK    2  A    between atoms: C_8  and  N_9
REMARK    3  A    between atoms: C_10  and  C_12
REMARK                            x       y       z     vdW  Elec       q    Type
REMARK                         _______ _______ _______ _____ _____    ______ ____
ROOT
ATOM      1  C   UNL     1       0.489   9.909  19.328  0.00  0.00    +0.000 C 
ATOM      2  C   UNL     1      -0.691  10.455  18.514  0.00  0.00    +0.000 C 
ATOM      3  C   UNL     1      -0.386  11.796  17.874  0.00  0.00    +0.000 C 
ATOM      4  C   UNL     1       0.142  12.746  18.921  0.00  0.00    +0.000 C 
ATOM      5  N   UNL     1       1.416  12.223  19.510  0.00  0.00    +0.000 N 
ATOM      6  C   UNL     1       2.073  13.227  20.230  0.00  0.00    +0.000 C 
ATOM      7  N   UNL     1       2.061  13.307  21.529  0.00  0.00    +0.000 NA
ATOM      8  S   UNL     1       2.358  14.855  21.993  0.00  0.00    +0.000 S 
ATOM      9  O   UNL     1       3.673  14.962  22.607  0.00  0.00    +0.000 OA
ATOM     10  O   UNL     1       1.173  15.422  22.593  0.00  0.00    +0.000 OA
ATOM     11  C   UNL     1       2.482  15.503  20.386  0.00  0.00    +0.000 A 
ATOM     12  C   UNL     1       2.315  16.794  19.936  0.00  0.00    +0.000 A 
ATOM     13  C   UNL     1       2.376  16.998  18.551  0.00  0.00    +0.000 A 
ATOM     14  C   UNL     1       2.628  15.927  17.670  0.00  0.00    +0.000 A 
ATOM     15  C   UNL     1       2.703  14.622  18.152  0.00  0.00    +0.000 A 
ATOM     16  C   UNL     1       2.543  14.439  19.516  0.00  0.00    +0.000 A 
ATOM     17  C   UNL     1       1.158  10.948  20.233  0.00  0.00    +0.000 C 
ENDROOT
BRANCH   1  19
ATOM     18  N   UNL     1       1.888   7.925  18.895  0.00  0.00    +0.000 N 
ATOM     19  C   UNL     1       1.459   9.154  18.428  0.00  0.00    +0.000 C 
ATOM     20  O   UNL     1       1.840   9.704  17.396  0.00  0.00    +0.000 OA
ATOM     21  H   UNL     1       1.457   7.585  19.752  0.00  0.00    +0.000 HD
BRANCH  18  26
ATOM     22  C   UNL     1       3.335   4.759  17.599  0.00  0.00    +0.000 A 
ATOM     23  C   UNL     1       4.458   5.213  16.901  0.00  0.00    +0.000 A 
ATOM     24  C   UNL     1       4.759   6.570  16.895  0.00  0.00    +0.000 A 
ATOM     25  C   UNL     1       3.931   7.474  17.565  0.00  0.00    +0.000 A 
ATOM     26  C   UNL     1       2.784   7.045  18.240  0.00  0.00    +0.000 A 
ATOM     27  C   UNL     1       2.495   5.675  18.259  0.00  0.00    +0.000 A 
BRANCH  22  29
ATOM     28  N   UNL     1       3.996   2.419  17.846  0.00  0.00    +0.000 N 
ATOM     29  C   UNL     1       2.981   3.316  17.639  0.00  0.00    +0.000 C 
ATOM     30  O   UNL     1       1.825   2.937  17.523  0.00  0.00    +0.000 OA
ATOM     31  H   UNL     1       3.727   1.449  17.950  0.00  0.00    +0.000 HD
ATOM     32  H   UNL     1       4.911   2.689  18.174  0.00  0.00    +0.000 HD
ENDBRANCH  22  29
ENDBRANCH  18  26
ENDBRANCH   1  19
TORSDOF 3
ENDMDL
MODEL 8
REMARK VINA RESULT:      -7.7      4.966      7.156
REMARK  Name = 
REMARK  3 active torsions:
REMARK  status: ('A' for Active; 'I' for Inactive)
REMARK    1  A    between atoms: C_2  and  C_4
REMARK    2  A    between atoms: C_8  and  N_9
REMARK    3  A    between atoms: C_10  and  C_12
REMARK                            x       y       z     vdW  Elec       q    Type
REMARK                         _______ _______ _______ _____ _____    ______ ____
ROOT
ATOM      1  C   UNL     1       3.442   3.900  19.240  0.00  0.00    +0.000 C 
ATOM      2  C   UNL     1       2.253   3.423  18.397  0.00  0.00    +0.000 C 
ATOM      3  C   UNL     1       1.519   4.568  17.725  0.00  0.00    +0.000 C 
ATOM      4  C   UNL     1       1.174   5.617  18.754  0.00  0.00    +0.000 C 
ATOM      5  N   UNL     1       2.418   6.176  19.373  0.00  0.00    +0.000 N 
ATOM      6  C   UNL     1       2.133   7.353  20.074  0.00  0.00    +0.000 C 
ATOM      7  N   UNL     1       2.031   7.412  21.370  0.00  0.00    +0.000 NA
ATOM      8  S   UNL     1       1.111   8.706  21.796  0.00  0.00    +0.000 S 
ATOM      9  O   UNL     1       1.930   9.731  22.424  0.00  0.00    +0.000 OA
ATOM     10  O   UNL     1      -0.137   8.253  22.366  0.00  0.00    +0.000 OA
ATOM     11  C   UNL     1       0.776   9.229  20.174  0.00  0.00    +0.000 A 
ATOM     12  C   UNL     1      -0.256  10.002  19.687  0.00  0.00    +0.000 A 
ATOM     13  C   UNL     1      -0.321  10.175  18.299  0.00  0.00    +0.000 A 
ATOM     14  C   UNL     1       0.648   9.604  17.450  0.00  0.00    +0.000 A 
ATOM     15  C   UNL     1       1.626   8.755  17.967  0.00  0.00    +0.000 A 
ATOM     16  C   UNL     1       1.608   8.526  19.334  0.00  0.00    +0.000 A 
ATOM     17  C   UNL     1       3.135   5.112  20.126  0.00  0.00    +0.000 C 
ENDROOT
BRANCH   1  19
ATOM     18  N   UNL     1       4.463   4.216  17.017  0.00  0.00    +0.000 N 
ATOM     19  C   UNL     1       4.684   4.065  18.374  0.00  0.00    +0.000 C 
ATOM     20  O   UNL     1       5.785   3.990  18.918  0.00  0.00    +0.000 OA
ATOM     21  H   UNL     1       3.493   4.295  16.718  0.00  0.00    +0.000 HD
BRANCH  18  26
ATOM     22  C   UNL     1       6.172   3.960  13.729  0.00  0.00    +0.000 A 
ATOM     23  C   UNL     1       7.324   4.724  13.937  0.00  0.00    +0.000 A 
ATOM     24  C   UNL     1       7.555   5.291  15.185  0.00  0.00    +0.000 A 
ATOM     25  C   UNL     1       6.629   5.116  16.216  0.00  0.00    +0.000 A 
ATOM     26  C   UNL     1       5.453   4.385  16.019  0.00  0.00    +0.000 A 
ATOM     27  C   UNL     1       5.235   3.800  14.766  0.00  0.00    +0.000 A 
BRANCH  22  29
ATOM     28  N   UNL     1       6.888   2.585  11.841  0.00  0.00    +0.000 N 
ATOM     29  C   UNL     1       5.891   3.328  12.414  0.00  0.00    +0.000 C 
ATOM     30  O   UNL     1       4.800   3.438  11.872  0.00  0.00    +0.000 OA
ATOM     31  H   UNL     1       6.653   2.098  10.985  0.00  0.00    +0.000 HD
ATOM     32  H   UNL     1       7.705   2.277  12.346  0.00  0.00    +0.000 HD
ENDBRANCH  22  29
ENDBRANCH  18  26
ENDBRANCH   1  19
TORSDOF 3
ENDMDL
MODEL 9
REMARK VINA RESULT:      -7.7      5.930      9.592
REMARK  Name = 
REMARK  3 active torsions:
REMARK  status: ('A' for Active; 'I' for Inactive)
REMARK    1  A    between atoms: C_2  and  C_4
REMARK    2  A    between atoms: C_8  and  N_9
REMARK    3  A    between atoms: C_10  and  C_12
REMARK                            x       y       z     vdW  Elec       q    Type
REMARK                         _______ _______ _______ _____ _____    ______ ____
ROOT
ATOM      1  C   UNL     1       0.028   9.809  20.542  0.00  0.00    +0.000 C 
ATOM      2  C   UNL     1      -0.600   9.957  19.151  0.00  0.00    +0.000 C 
ATOM      3  C   UNL     1       0.141  10.955  18.281  0.00  0.00    +0.000 C 
ATOM      4  C   UNL     1       0.306  12.253  19.033  0.00  0.00    +0.000 C 
ATOM      5  N   UNL     1       1.117  12.043  20.274  0.00  0.00    +0.000 N 
ATOM      6  C   UNL     1       1.545  13.269  20.797  0.00  0.00    +0.000 C 
ATOM      7  N   UNL     1       0.994  13.845  21.825  0.00  0.00    +0.000 NA
ATOM      8  S   UNL     1       1.288  15.461  21.780  0.00  0.00    +0.000 S 
ATOM      9  O   UNL     1       2.217  15.841  22.833  0.00  0.00    +0.000 OA
ATOM     10  O   UNL     1       0.057  16.176  21.535  0.00  0.00    +0.000 OA
ATOM     11  C   UNL     1       2.176  15.439  20.287  0.00  0.00    +0.000 A 
ATOM     12  C   UNL     1       2.408  16.449  19.379  0.00  0.00    +0.000 A 
ATOM     13  C   UNL     1       3.081  16.103  18.200  0.00  0.00    +0.000 A 
ATOM     14  C   UNL     1       3.524  14.783  17.978  0.00  0.00    +0.000 A 
ATOM     15  C   UNL     1       3.195  13.770  18.876  0.00  0.00    +0.000 A 
ATOM     16  C   UNL     1       2.446  14.124  19.986  0.00  0.00    +0.000 A 
ATOM     17  C   UNL     1       0.393  11.139  21.209  0.00  0.00    +0.000 C 
ENDROOT
BRANCH   1  19
ATOM     18  N   UNL     1       1.409   8.190  19.295  0.00  0.00    +0.000 N 
ATOM     19  C   UNL     1       1.167   8.797  20.514  0.00  0.00    +0.000 C 
ATOM     20  O   UNL     1       1.744   8.544  21.570  0.00  0.00    +0.000 OA
ATOM     21  H   UNL     1       0.871   8.528  18.501  0.00  0.00    +0.000 HD
BRANCH  18  26
ATOM     22  C   UNL     1       4.356   6.580  17.708  0.00  0.00    +0.000 A 
ATOM     23  C   UNL     1       4.484   5.403  18.451  0.00  0.00    +0.000 A 
ATOM     24  C   UNL     1       3.564   5.123  19.454  0.00  0.00    +0.000 A 
ATOM     25  C   UNL     1       2.533   6.024  19.732  0.00  0.00    +0.000 A 
ATOM     26  C   UNL     1       2.408   7.223  19.024  0.00  0.00    +0.000 A 
ATOM     27  C   UNL     1       3.325   7.492  18.001  0.00  0.00    +0.000 A 
BRANCH  22  29
ATOM     28  N   UNL     1       6.580   7.285  16.981  0.00  0.00    +0.000 N 
ATOM     29  C   UNL     1       5.312   6.915  16.620  0.00  0.00    +0.000 C 
ATOM     30  O   UNL     1       4.994   6.834  15.442  0.00  0.00    +0.000 OA
ATOM     31  H   UNL     1       7.240   7.432  16.228  0.00  0.00    +0.000 HD
ATOM     32  H   UNL     1       6.952   7.144  17.908  0.00  0.00    +0.000 HD
ENDBRANCH  22  29
ENDBRANCH  18  26
ENDBRANCH   1  19
TORSDOF 3
ENDMDL
