MODEL 1
REMARK VINA RESULT:      -9.7      0.000      0.000
REMARK  Name = 
REMARK  4 active torsions:
REMARK  status: ('A' for Active; 'I' for Inactive)
REMARK    1  A    between atoms: C_1  and  C_2
REMARK    2  A    between atoms: C_5  and  C_6
REMARK    3  A    between atoms: C_8  and  C_9
REMARK    4  A    between atoms: C_15  and  C_16
REMARK                            x       y       z     vdW  Elec       q    Type
REMARK                         _______ _______ _______ _____ _____    ______ ____
ROOT
ATOM      1  C   UNL     1       4.438   4.971  17.421  0.00  0.00    +0.000 A 
ATOM      2  C   UNL     1       3.848   6.143  17.851  0.00  0.00    +0.000 A 
ATOM      3  C   UNL     1       2.836   6.073  18.822  0.00  0.00    +0.000 A 
ATOM      4  C   UNL     1       2.432   4.812  19.344  0.00  0.00    +0.000 A 
ATOM      5  C   UNL     1       1.387   4.568  20.279  0.00  0.00    +0.000 A 
ATOM      6  C   UNL     1       1.090   3.275  20.720  0.00  0.00    +0.000 A 
ATOM      7  C   UNL     1       1.800   2.196  20.221  0.00  0.00    +0.000 A 
ATOM      8  C   UNL     1       2.805   2.417  19.282  0.00  0.00    +0.000 A 
ATOM      9  C   UNL     1       3.131   3.687  18.843  0.00  0.00    +0.000 A 
ATOM     10  N   UNL     1       4.097   3.764  17.920  0.00  0.00    +0.000 NA
ENDROOT
BRANCH   3  11
ATOM     11  C   UNL     1       2.197   7.386  19.147  0.00  0.00    +0.000 C 
ATOM     12  O   UNL     1       2.039   8.170  18.217  0.00  0.00    +0.000 OA
ATOM     13  N   UNL     1       1.909   7.626  20.470  0.00  0.00    +0.000 N 
ATOM     14  C   UNL     1       1.325   8.769  20.979  0.00  0.00    +0.000 A 
ATOM     15  N   UNL     1       1.173   8.960  22.272  0.00  0.00    +0.000 NA
ATOM     16  N   UNL     1       0.600  10.187  22.557  0.00  0.00    +0.000 NA
ATOM     17  C   UNL     1       0.324  10.862  21.460  0.00  0.00    +0.000 A 
ATOM     18  S   UNL     1       0.715  10.039  20.014  0.00  0.00    +0.000 S 
ATOM     19  H   UNL     1       2.208   6.978  21.185  0.00  0.00    +0.000 HD
BRANCH  17  20
ATOM     20  C   UNL     1      -0.283  12.268  21.477  0.00  0.00    +0.000 C 
ATOM     21  C   UNL     1      -1.792  12.396  21.382  0.00  0.00    +0.000 C 
ATOM     22  C   UNL     1      -0.950  12.793  20.221  0.00  0.00    +0.000 C 
ENDBRANCH  17  20
ENDBRANCH   3  11
BRANCH   1  27
ATOM     23  C   UNL     1       6.060   3.664  13.075  0.00  0.00    +0.000 C 
ATOM     24  C   UNL     1       6.200   4.314  14.392  0.00  0.00    +0.000 A 
ATOM     25  C   UNL     1       7.231   4.988  15.009  0.00  0.00    +0.000 A 
ATOM     26  C   UNL     1       6.743   5.378  16.278  0.00  0.00    +0.000 A 
ATOM     27  C   UNL     1       5.444   4.916  16.369  0.00  0.00    +0.000 A 
ATOM     28  O   UNL     1       5.110   4.267  15.211  0.00  0.00    +0.000 OA
ENDBRANCH   1  27
TORSDOF 3
ENDMDL
MODEL 2
REMARK VINA RESULT:      -8.6      1.450      1.608
REMARK  Name = 
REMARK  4 active torsions:
REMARK  status: ('A' for Active; 'I' for Inactive)
REMARK    1  A    between atoms: C_1  and  C_2
REMARK    2  A    between atoms: C_5  and  C_6
REMARK    3  A    between atoms: C_8  and  C_9
REMARK    4  A    between atoms: C_15  and  C_16
REMARK                            x       y       z     vdW  Elec       q    Type
REMARK                         _______ _______ _______ _____ _____    ______ ____
ROOT
ATOM      1  C   UNL     1       4.280   5.105  17.808  0.00  0.00    +0.000 A 
ATOM      2  C   UNL     1       3.674   6.212  18.368  0.00  0.00    +0.000 A 
ATOM      3  C   UNL     1       2.681   6.018  19.342  0.00  0.00    +0.000 A 
ATOM      4  C   UNL     1       2.313   4.700  19.735  0.00  0.00    +0.000 A 
ATOM      5  C   UNL     1       1.290   4.336  20.656  0.00  0.00    +0.000 A 
ATOM      6  C   UNL     1       1.027   2.999  20.963  0.00  0.00    +0.000 A 
ATOM      7  C   UNL     1       1.749   1.994  20.341  0.00  0.00    +0.000 A 
ATOM      8  C   UNL     1       2.733   2.334  19.416  0.00  0.00    +0.000 A 
ATOM      9  C   UNL     1       3.025   3.650  19.107  0.00  0.00    +0.000 A 
ATOM     10  N   UNL     1       3.972   3.845  18.182  0.00  0.00    +0.000 NA
ENDROOT
BRANCH   3  11
ATOM     11  C   UNL     1       2.023   7.275  19.814  0.00  0.00    +0.000 C 
ATOM     12  O   UNL     1       1.590   7.276  20.962  0.00  0.00    +0.000 OA
ATOM     13  N   UNL     1       1.896   8.293  18.899  0.00  0.00    +0.000 N 
ATOM     14  C   UNL     1       1.320   9.526  19.129  0.00  0.00    +0.000 A 
ATOM     15  N   UNL     1       1.149  10.409  18.169  0.00  0.00    +0.000 NA
ATOM     16  N   UNL     1       0.521  11.558  18.618  0.00  0.00    +0.000 NA
ATOM     17  C   UNL     1       0.262  11.499  19.908  0.00  0.00    +0.000 A 
ATOM     18  S   UNL     1       0.791  10.059  20.664  0.00  0.00    +0.000 S 
ATOM     19  H   UNL     1       2.153   8.147  17.933  0.00  0.00    +0.000 HD
BRANCH  17  20
ATOM     20  C   UNL     1      -0.461  12.615  20.665  0.00  0.00    +0.000 C 
ATOM     21  C   UNL     1       0.366  13.536  21.544  0.00  0.00    +0.000 C 
ATOM     22  C   UNL     1      -0.543  12.542  22.178  0.00  0.00    +0.000 C 
ENDBRANCH  17  20
ENDBRANCH   3  11
BRANCH   1  27
ATOM     23  C   UNL     1       6.104   3.852  13.527  0.00  0.00    +0.000 C 
ATOM     24  C   UNL     1       6.117   4.609  14.793  0.00  0.00    +0.000 A 
ATOM     25  C   UNL     1       6.991   5.523  15.339  0.00  0.00    +0.000 A 
ATOM     26  C   UNL     1       6.443   5.894  16.589  0.00  0.00    +0.000 A 
ATOM     27  C   UNL     1       5.268   5.183  16.740  0.00  0.00    +0.000 A 
ATOM     28  O   UNL     1       5.066   4.398  15.637  0.00  0.00    +0.000 OA
ENDBRANCH   1  27
TORSDOF 3
ENDMDL
MODEL 3
REMARK VINA RESULT:      -8.5      4.920      6.405
REMARK  Name = 
REMARK  4 active torsions:
REMARK  status: ('A' for Active; 'I' for Inactive)
REMARK    1  A    between atoms: C_1  and  C_2
REMARK    2  A    between atoms: C_5  and  C_6
REMARK    3  A    between atoms: C_8  and  C_9
REMARK    4  A    between atoms: C_15  and  C_16
REMARK                            x       y       z     vdW  Elec       q    Type
REMARK                         _______ _______ _______ _____ _____    ______ ____
ROOT
ATOM      1  C   UNL     1       6.315   4.874  15.336  0.00  0.00    +0.000 A 
ATOM      2  C   UNL     1       7.081   5.787  16.033  0.00  0.00    +0.000 A 
ATOM      3  C   UNL     1       6.692   6.141  17.334  0.00  0.00    +0.000 A 
ATOM      4  C   UNL     1       5.527   5.564  17.914  0.00  0.00    +0.000 A 
ATOM      5  C   UNL     1       4.969   5.862  19.190  0.00  0.00    +0.000 A 
ATOM      6  C   UNL     1       3.816   5.220  19.650  0.00  0.00    +0.000 A 
ATOM      7  C   UNL     1       3.176   4.293  18.844  0.00  0.00    +0.000 A 
ATOM      8  C   UNL     1       3.694   4.013  17.582  0.00  0.00    +0.000 A 
ATOM      9  C   UNL     1       4.842   4.622  17.110  0.00  0.00    +0.000 A 
ATOM     10  N   UNL     1       5.222   4.288  15.871  0.00  0.00    +0.000 NA
ENDROOT
BRANCH   3  11
ATOM     11  C   UNL     1       7.532   7.206  17.964  0.00  0.00    +0.000 C 
ATOM     12  O   UNL     1       8.197   6.881  18.943  0.00  0.00    +0.000 OA
ATOM     13  N   UNL     1       7.432   8.472  17.435  0.00  0.00    +0.000 N 
ATOM     14  C   UNL     1       8.115   9.590  17.869  0.00  0.00    +0.000 A 
ATOM     15  N   UNL     1       7.887  10.786  17.371  0.00  0.00    +0.000 NA
ATOM     16  N   UNL     1       8.657  11.763  17.977  0.00  0.00    +0.000 NA
ATOM     17  C   UNL     1       9.451  11.255  18.897  0.00  0.00    +0.000 A 
ATOM     18  S   UNL     1       9.335   9.558  19.063  0.00  0.00    +0.000 S 
ATOM     19  H   UNL     1       6.748   8.674  16.720  0.00  0.00    +0.000 HD
BRANCH  17  20
ATOM     20  C   UNL     1      10.389  12.111  19.753  0.00  0.00    +0.000 C 
ATOM     21  C   UNL     1      11.453  12.931  19.047  0.00  0.00    +0.000 C 
ATOM     22  C   UNL     1      11.856  11.734  19.835  0.00  0.00    +0.000 C 
ENDBRANCH  17  20
ENDBRANCH   3  11
BRANCH   1  27
ATOM     23  C   UNL     1       5.621   2.165  11.411  0.00  0.00    +0.000 C 
ATOM     24  C   UNL     1       6.281   3.249  12.163  0.00  0.00    +0.000 A 
ATOM     25  C   UNL     1       7.282   4.143  11.850  0.00  0.00    +0.000 A 
ATOM     26  C   UNL     1       7.471   4.941  13.002  0.00  0.00    +0.000 A 
ATOM     27  C   UNL     1       6.580   4.488  13.956  0.00  0.00    +0.000 A 
ATOM     28  O   UNL     1       5.848   3.453  13.440  0.00  0.00    +0.000 OA
ENDBRANCH   1  27
TORSDOF 3
ENDMDL
MODEL 4
REMARK VINA RESULT:      -8.3      7.371     11.103
REMARK  Name = 
REMARK  4 active torsions:
REMARK  status: ('A' for Active; 'I' for Inactive)
REMARK    1  A    between atoms: C_1  and  C_2
REMARK    2  A    between atoms: C_5  and  C_6
REMARK    3  A    between atoms: C_8  and  C_9
REMARK    4  A    between atoms: C_15  and  C_16
REMARK                            x       y       z     vdW  Elec       q    Type
REMARK                         _______ _______ _______ _____ _____    ______ ____
ROOT
ATOM      1  C   UNL     1       9.277  11.962  21.551  0.00  0.00    +0.000 A 
ATOM      2  C   UNL     1       8.803  10.923  20.775  0.00  0.00    +0.000 A 
ATOM      3  C   UNL     1       9.336  10.742  19.489  0.00  0.00    +0.000 A 
ATOM      4  C   UNL     1      10.345  11.620  19.003  0.00  0.00    +0.000 A 
ATOM      5  C   UNL     1      10.939  11.609  17.709  0.00  0.00    +0.000 A 
ATOM      6  C   UNL     1      11.930  12.528  17.354  0.00  0.00    +0.000 A 
ATOM      7  C   UNL     1      12.330  13.495  18.260  0.00  0.00    +0.000 A 
ATOM      8  C   UNL     1      11.737  13.538  19.519  0.00  0.00    +0.000 A 
ATOM      9  C   UNL     1      10.766  12.630  19.902  0.00  0.00    +0.000 A 
ATOM     10  N   UNL     1      10.255  12.792  21.128  0.00  0.00    +0.000 NA
ENDROOT
BRANCH   3  11
ATOM     11  C   UNL     1       8.687   9.651  18.697  0.00  0.00    +0.000 C 
ATOM     12  O   UNL     1       8.097   9.985  17.675  0.00  0.00    +0.000 OA
ATOM     13  N   UNL     1       8.749   8.381  19.220  0.00  0.00    +0.000 N 
ATOM     14  C   UNL     1       8.216   7.242  18.652  0.00  0.00    +0.000 A 
ATOM     15  N   UNL     1       8.234   6.079  19.268  0.00  0.00    +0.000 NA
ATOM     16  N   UNL     1       7.613   5.086  18.531  0.00  0.00    +0.000 NA
ATOM     17  C   UNL     1       7.170   5.540  17.377  0.00  0.00    +0.000 A 
ATOM     18  S   UNL     1       7.504   7.194  17.100  0.00  0.00    +0.000 S 
ATOM     19  H   UNL     1       9.133   8.226  20.142  0.00  0.00    +0.000 HD
BRANCH  17  20
ATOM     20  C   UNL     1       6.409   4.668  16.375  0.00  0.00    +0.000 C 
ATOM     21  C   UNL     1       6.867   4.677  14.928  0.00  0.00    +0.000 C 
ATOM     22  C   UNL     1       5.586   5.342  15.293  0.00  0.00    +0.000 C 
ENDBRANCH  17  20
ENDBRANCH   3  11
BRANCH   1  27
ATOM     23  C   UNL     1       8.382  14.970  25.208  0.00  0.00    +0.000 C 
ATOM     24  C   UNL     1       8.346  13.650  24.549  0.00  0.00    +0.000 A 
ATOM     25  C   UNL     1       7.875  12.414  24.934  0.00  0.00    +0.000 A 
ATOM     26  C   UNL     1       8.131  11.540  23.851  0.00  0.00    +0.000 A 
ATOM     27  C   UNL     1       8.748  12.289  22.868  0.00  0.00    +0.000 A 
ATOM     28  O   UNL     1       8.877  13.583  23.294  0.00  0.00    +0.000 OA
ENDBRANCH   1  27
TORSDOF 3
ENDMDL
MODEL 5
REMARK VINA RESULT:      -8.2      1.617      1.698
REMARK  Name = 
REMARK  4 active torsions:
REMARK  status: ('A' for Active; 'I' for Inactive)
REMARK    1  A    between atoms: C_1  and  C_2
REMARK    2  A    between atoms: C_5  and  C_6
REMARK    3  A    between atoms: C_8  and  C_9
REMARK    4  A    between atoms: C_15  and  C_16
REMARK                            x       y       z     vdW  Elec       q    Type
REMARK                         _______ _______ _______ _____ _____    ______ ____
ROOT
ATOM      1  C   UNL     1       4.628   4.904  17.877  0.00  0.00    +0.000 A 
ATOM      2  C   UNL     1       3.898   5.995  18.306  0.00  0.00    +0.000 A 
ATOM      3  C   UNL     1       3.065   5.851  19.427  0.00  0.00    +0.000 A 
ATOM      4  C   UNL     1       2.980   4.599  20.099  0.00  0.00    +0.000 A 
ATOM      5  C   UNL     1       2.141   4.276  21.203  0.00  0.00    +0.000 A 
ATOM      6  C   UNL     1       2.154   3.004  21.781  0.00  0.00    +0.000 A 
ATOM      7  C   UNL     1       2.973   2.017  21.257  0.00  0.00    +0.000 A 
ATOM      8  C   UNL     1       3.777   2.310  20.158  0.00  0.00    +0.000 A 
ATOM      9  C   UNL     1       3.796   3.566  19.579  0.00  0.00    +0.000 A 
ATOM     10  N   UNL     1       4.590   3.713  18.512  0.00  0.00    +0.000 NA
ENDROOT
BRANCH   3  11
ATOM     11  C   UNL     1       2.248   7.061  19.751  0.00  0.00    +0.000 C 
ATOM     12  O   UNL     1       1.542   7.001  20.752  0.00  0.00    +0.000 OA
ATOM     13  N   UNL     1       2.305   8.107  18.860  0.00  0.00    +0.000 N 
ATOM     14  C   UNL     1       1.629   9.306  18.970  0.00  0.00    +0.000 A 
ATOM     15  N   UNL     1       1.662  10.218  18.022  0.00  0.00    +0.000 NA
ATOM     16  N   UNL     1       0.886  11.321  18.328  0.00  0.00    +0.000 NA
ATOM     17  C   UNL     1       0.315  11.203  19.509  0.00  0.00    +0.000 A 
ATOM     18  S   UNL     1       0.707   9.758  20.335  0.00  0.00    +0.000 S 
ATOM     19  H   UNL     1       2.803   8.009  17.987  0.00  0.00    +0.000 HD
BRANCH  17  20
ATOM     20  C   UNL     1      -0.629  12.260  20.088  0.00  0.00    +0.000 C 
ATOM     21  C   UNL     1      -2.089  12.218  19.674  0.00  0.00    +0.000 C 
ATOM     22  C   UNL     1      -1.215  13.307  19.160  0.00  0.00    +0.000 C 
ENDBRANCH  17  20
ENDBRANCH   3  11
BRANCH   1  27
ATOM     23  C   UNL     1       5.642   3.746  13.310  0.00  0.00    +0.000 C 
ATOM     24  C   UNL     1       5.946   4.382  14.606  0.00  0.00    +0.000 A 
ATOM     25  C   UNL     1       7.025   5.098  15.078  0.00  0.00    +0.000 A 
ATOM     26  C   UNL     1       6.714   5.444  16.414  0.00  0.00    +0.000 A 
ATOM     27  C   UNL     1       5.467   4.916  16.686  0.00  0.00    +0.000 A 
ATOM     28  O   UNL     1       4.994   4.268  15.577  0.00  0.00    +0.000 OA
ENDBRANCH   1  27
TORSDOF 3
ENDMDL
MODEL 6
REMARK VINA RESULT:      -8.2      2.629      8.196
REMARK  Name = 
REMARK  4 active torsions:
REMARK  status: ('A' for Active; 'I' for Inactive)
REMARK    1  A    between atoms: C_1  and  C_2
REMARK    2  A    between atoms: C_5  and  C_6
REMARK    3  A    between atoms: C_8  and  C_9
REMARK    4  A    between atoms: C_15  and  C_16
REMARK                            x       y       z     vdW  Elec       q    Type
REMARK                         _______ _______ _______ _____ _____    ______ ____
ROOT
ATOM      1  C   UNL     1       1.979   6.773  19.731  0.00  0.00    +0.000 A 
ATOM      2  C   UNL     1       2.628   6.391  18.575  0.00  0.00    +0.000 A 
ATOM      3  C   UNL     1       3.108   5.076  18.472  0.00  0.00    +0.000 A 
ATOM      4  C   UNL     1       2.924   4.162  19.548  0.00  0.00    +0.000 A 
ATOM      5  C   UNL     1       3.402   2.822  19.624  0.00  0.00    +0.000 A 
ATOM      6  C   UNL     1       3.150   2.020  20.740  0.00  0.00    +0.000 A 
ATOM      7  C   UNL     1       2.447   2.537  21.815  0.00  0.00    +0.000 A 
ATOM      8  C   UNL     1       1.999   3.855  21.768  0.00  0.00    +0.000 A 
ATOM      9  C   UNL     1       2.220   4.664  20.668  0.00  0.00    +0.000 A 
ATOM     10  N   UNL     1       1.764   5.919  20.755  0.00  0.00    +0.000 NA
ENDROOT
BRANCH   3  11
ATOM     11  C   UNL     1       3.879   4.793  17.222  0.00  0.00    +0.000 C 
ATOM     12  O   UNL     1       3.404   3.962  16.455  0.00  0.00    +0.000 OA
ATOM     13  N   UNL     1       5.085   5.435  17.076  0.00  0.00    +0.000 N 
ATOM     14  C   UNL     1       5.948   5.312  16.004  0.00  0.00    +0.000 A 
ATOM     15  N   UNL     1       7.131   5.887  15.988  0.00  0.00    +0.000 NA
ATOM     16  N   UNL     1       7.838   5.600  14.835  0.00  0.00    +0.000 NA
ATOM     17  C   UNL     1       7.146   4.833  14.017  0.00  0.00    +0.000 A 
ATOM     18  S   UNL     1       5.583   4.437  14.584  0.00  0.00    +0.000 S 
ATOM     19  H   UNL     1       5.463   5.993  17.829  0.00  0.00    +0.000 HD
BRANCH  17  20
ATOM     20  C   UNL     1       7.698   4.328  12.681  0.00  0.00    +0.000 C 
ATOM     21  C   UNL     1       7.118   4.908  11.404  0.00  0.00    +0.000 C 
ATOM     22  C   UNL     1       6.797   3.504  11.781  0.00  0.00    +0.000 C 
ENDBRANCH  17  20
ENDBRANCH   3  11
BRANCH   1  27
ATOM     23  C   UNL     1      -0.065  10.196  22.439  0.00  0.00    +0.000 C 
ATOM     24  C   UNL     1       0.562   9.695  21.200  0.00  0.00    +0.000 A 
ATOM     25  C   UNL     1       0.848  10.276  19.985  0.00  0.00    +0.000 A 
ATOM     26  C   UNL     1       1.458   9.269  19.201  0.00  0.00    +0.000 A 
ATOM     27  C   UNL     1       1.505   8.128  19.978  0.00  0.00    +0.000 A 
ATOM     28  O   UNL     1       0.959   8.390  21.205  0.00  0.00    +0.000 OA
ENDBRANCH   1  27
TORSDOF 3
ENDMDL
MODEL 7
REMARK VINA RESULT:      -8.1      0.798      1.108
REMARK  Name = 
REMARK  4 active torsions:
REMARK  status: ('A' for Active; 'I' for Inactive)
REMARK    1  A    between atoms: C_1  and  C_2
REMARK    2  A    between atoms: C_5  and  C_6
REMARK    3  A    between atoms: C_8  and  C_9
REMARK    4  A    between atoms: C_15  and  C_16
REMARK                            x       y       z     vdW  Elec       q    Type
REMARK                         _______ _______ _______ _____ _____    ______ ____
ROOT
ATOM      1  C   UNL     1       4.412   4.694  17.342  0.00  0.00    +0.000 A 
ATOM      2  C   UNL     1       3.804   5.890  17.664  0.00  0.00    +0.000 A 
ATOM      3  C   UNL     1       3.061   5.973  18.853  0.00  0.00    +0.000 A 
ATOM      4  C   UNL     1       2.943   4.837  19.702  0.00  0.00    +0.000 A 
ATOM      5  C   UNL     1       2.181   4.741  20.901  0.00  0.00    +0.000 A 
ATOM      6  C   UNL     1       2.150   3.563  21.653  0.00  0.00    +0.000 A 
ATOM      7  C   UNL     1       2.847   2.449  21.217  0.00  0.00    +0.000 A 
ATOM      8  C   UNL     1       3.573   2.519  20.030  0.00  0.00    +0.000 A 
ATOM      9  C   UNL     1       3.633   3.677  19.277  0.00  0.00    +0.000 A 
ATOM     10  N   UNL     1       4.342   3.609  18.144  0.00  0.00    +0.000 NA
ENDROOT
BRANCH   3  11
ATOM     11  C   UNL     1       2.365   7.281  19.059  0.00  0.00    +0.000 C 
ATOM     12  O   UNL     1       2.191   7.978  18.065  0.00  0.00    +0.000 OA
ATOM     13  N   UNL     1       2.045   7.618  20.353  0.00  0.00    +0.000 N 
ATOM     14  C   UNL     1       1.407   8.774  20.758  0.00  0.00    +0.000 A 
ATOM     15  N   UNL     1       1.226   9.065  22.028  0.00  0.00    +0.000 NA
ATOM     16  N   UNL     1       0.600  10.286  22.201  0.00  0.00    +0.000 NA
ATOM     17  C   UNL     1       0.315  10.857  21.049  0.00  0.00    +0.000 A 
ATOM     18  S   UNL     1       0.764   9.933  19.681  0.00  0.00    +0.000 S 
ATOM     19  H   UNL     1       2.358   7.044  21.123  0.00  0.00    +0.000 HD
BRANCH  17  20
ATOM     20  C   UNL     1      -0.348  12.232  20.940  0.00  0.00    +0.000 C 
ATOM     21  C   UNL     1      -1.858  12.289  20.796  0.00  0.00    +0.000 C 
ATOM     22  C   UNL     1      -0.999  12.631  19.630  0.00  0.00    +0.000 C 
ENDBRANCH  17  20
ENDBRANCH   3  11
BRANCH   1  27
ATOM     23  C   UNL     1       7.918   5.652  14.178  0.00  0.00    +0.000 C 
ATOM     24  C   UNL     1       6.733   4.908  14.645  0.00  0.00    +0.000 A 
ATOM     25  C   UNL     1       5.988   3.882  14.106  0.00  0.00    +0.000 A 
ATOM     26  C   UNL     1       4.969   3.599  15.045  0.00  0.00    +0.000 A 
ATOM     27  C   UNL     1       5.144   4.471  16.103  0.00  0.00    +0.000 A 
ATOM     28  O   UNL     1       6.228   5.270  15.860  0.00  0.00    +0.000 OA
ENDBRANCH   1  27
TORSDOF 3
ENDMDL
MODEL 8
REMARK VINA RESULT:      -8.1      2.585      8.006
REMARK  Name = 
REMARK  4 active torsions:
REMARK  status: ('A' for Active; 'I' for Inactive)
REMARK    1  A    between atoms: C_1  and  C_2
REMARK    2  A    between atoms: C_5  and  C_6
REMARK    3  A    between atoms: C_8  and  C_9
REMARK    4  A    between atoms: C_15  and  C_16
REMARK                            x       y       z     vdW  Elec       q    Type
REMARK                         _______ _______ _______ _____ _____    ______ ____
ROOT
ATOM      1  C   UNL     1       1.976   6.757  19.814  0.00  0.00    +0.000 A 
ATOM      2  C   UNL     1       2.626   6.389  18.653  0.00  0.00    +0.000 A 
ATOM      3  C   UNL     1       3.083   5.068  18.524  0.00  0.00    +0.000 A 
ATOM      4  C   UNL     1       2.875   4.133  19.577  0.00  0.00    +0.000 A 
ATOM      5  C   UNL     1       3.328   2.784  19.626  0.00  0.00    +0.000 A 
ATOM      6  C   UNL     1       3.053   1.962  20.722  0.00  0.00    +0.000 A 
ATOM      7  C   UNL     1       2.352   2.467  21.804  0.00  0.00    +0.000 A 
ATOM      8  C   UNL     1       1.929   3.794  21.784  0.00  0.00    +0.000 A 
ATOM      9  C   UNL     1       2.173   4.624  20.704  0.00  0.00    +0.000 A 
ATOM     10  N   UNL     1       1.738   5.884  20.817  0.00  0.00    +0.000 NA
ENDROOT
BRANCH   3  11
ATOM     11  C   UNL     1       3.857   4.799  17.272  0.00  0.00    +0.000 C 
ATOM     12  O   UNL     1       3.379   3.983  16.491  0.00  0.00    +0.000 OA
ATOM     13  N   UNL     1       5.068   5.436  17.141  0.00  0.00    +0.000 N 
ATOM     14  C   UNL     1       5.934   5.324  16.071  0.00  0.00    +0.000 A 
ATOM     15  N   UNL     1       7.121   5.891  16.069  0.00  0.00    +0.000 NA
ATOM     16  N   UNL     1       7.831   5.617  14.914  0.00  0.00    +0.000 NA
ATOM     17  C   UNL     1       7.138   4.867  14.082  0.00  0.00    +0.000 A 
ATOM     18  S   UNL     1       5.569   4.473  14.636  0.00  0.00    +0.000 S 
ATOM     19  H   UNL     1       5.446   5.980  17.904  0.00  0.00    +0.000 HD
BRANCH  17  20
ATOM     20  C   UNL     1       7.691   4.380  12.741  0.00  0.00    +0.000 C 
ATOM     21  C   UNL     1       7.152   5.013  11.471  0.00  0.00    +0.000 C 
ATOM     22  C   UNL     1       6.776   3.613  11.805  0.00  0.00    +0.000 C 
ENDBRANCH  17  20
ENDBRANCH   3  11
BRANCH   1  27
ATOM     23  C   UNL     1       1.081  11.330  18.585  0.00  0.00    +0.000 C 
ATOM     24  C   UNL     1       1.125  10.208  19.542  0.00  0.00    +0.000 A 
ATOM     25  C   UNL     1       0.813  10.093  20.879  0.00  0.00    +0.000 A 
ATOM     26  C   UNL     1       1.066   8.746  21.228  0.00  0.00    +0.000 A 
ATOM     27  C   UNL     1       1.524   8.114  20.088  0.00  0.00    +0.000 A 
ATOM     28  O   UNL     1       1.557   9.009  19.053  0.00  0.00    +0.000 OA
ENDBRANCH   1  27
TORSDOF 3
ENDMDL
MODEL 9
REMARK VINA RESULT:      -8.1      1.332      1.639
REMARK  Name = 
REMARK  4 active torsions:
REMARK  status: ('A' for Active; 'I' for Inactive)
REMARK    1  A    between atoms: C_1  and  C_2
REMARK    2  A    between atoms: C_5  and  C_6
REMARK    3  A    between atoms: C_8  and  C_9
REMARK    4  A    between atoms: C_15  and  C_16
REMARK                            x       y       z     vdW  Elec       q    Type
REMARK                         _______ _______ _______ _____ _____    ______ ____
ROOT
ATOM      1  C   UNL     1       4.853   4.847  16.459  0.00  0.00    +0.000 A 
ATOM      2  C   UNL     1       4.251   6.056  16.747  0.00  0.00    +0.000 A 
ATOM      3  C   UNL     1       3.514   6.177  17.935  0.00  0.00    +0.000 A 
ATOM      4  C   UNL     1       3.395   5.068  18.819  0.00  0.00    +0.000 A 
ATOM      5  C   UNL     1       2.638   5.011  20.024  0.00  0.00    +0.000 A 
ATOM      6  C   UNL     1       2.607   3.857  20.811  0.00  0.00    +0.000 A 
ATOM      7  C   UNL     1       3.298   2.727  20.407  0.00  0.00    +0.000 A 
ATOM      8  C   UNL     1       4.018   2.758  19.215  0.00  0.00    +0.000 A 
ATOM      9  C   UNL     1       4.080   3.893  18.426  0.00  0.00    +0.000 A 
ATOM     10  N   UNL     1       4.783   3.788  17.293  0.00  0.00    +0.000 NA
ENDROOT
BRANCH   3  11
ATOM     11  C   UNL     1       2.824   7.493  18.105  0.00  0.00    +0.000 C 
ATOM     12  O   UNL     1       2.924   8.294  17.181  0.00  0.00    +0.000 OA
ATOM     13  N   UNL     1       2.197   7.717  19.308  0.00  0.00    +0.000 N 
ATOM     14  C   UNL     1       1.509   8.859  19.666  0.00  0.00    +0.000 A 
ATOM     15  N   UNL     1       1.022   9.032  20.876  0.00  0.00    +0.000 NA
ATOM     16  N   UNL     1       0.404  10.262  21.022  0.00  0.00    +0.000 NA
ATOM     17  C   UNL     1       0.435  10.958  19.904  0.00  0.00    +0.000 A 
ATOM     18  S   UNL     1       1.188  10.152  18.597  0.00  0.00    +0.000 S 
ATOM     19  H   UNL     1       2.291   7.054  20.064  0.00  0.00    +0.000 HD
BRANCH  17  20
ATOM     20  C   UNL     1      -0.142  12.371  19.786  0.00  0.00    +0.000 C 
ATOM     21  C   UNL     1      -1.558  12.524  19.260  0.00  0.00    +0.000 C 
ATOM     22  C   UNL     1      -0.413  12.940  18.406  0.00  0.00    +0.000 C 
ENDBRANCH  17  20
ENDBRANCH   3  11
BRANCH   1  27
ATOM     23  C   UNL     1       8.301   5.744  13.214  0.00  0.00    +0.000 C 
ATOM     24  C   UNL     1       7.141   4.992  13.729  0.00  0.00    +0.000 A 
ATOM     25  C   UNL     1       6.419   3.922  13.248  0.00  0.00    +0.000 A 
ATOM     26  C   UNL     1       5.417   3.658  14.211  0.00  0.00    +0.000 A 
ATOM     27  C   UNL     1       5.579   4.584  15.224  0.00  0.00    +0.000 A 
ATOM     28  O   UNL     1       6.639   5.400  14.930  0.00  0.00    +0.000 OA
ENDBRANCH   1  27
TORSDOF 3
ENDMDL
