MODEL 1
REMARK VINA RESULT:      -9.1      0.000      0.000
REMARK  Name = 
REMARK  6 active torsions:
REMARK  status: ('A' for Active; 'I' for Inactive)
REMARK    1  A    between atoms: C_1  and  C_2
REMARK    2  A    between atoms: C_6  and  C_7
REMARK    3  A    between atoms: C_7  and  N_8
REMARK    4  A    between atoms: C_12  and  C_13
REMARK    5  A    between atoms: C_13  and  C_14
REMARK    6  A    between atoms: C_14  and  C_15
REMARK                            x       y       z     vdW  Elec       q    Type
REMARK                         _______ _______ _______ _____ _____    ______ ____
ROOT
ATOM      1  C   UNL     1       5.030   3.931  18.837  0.00  0.00    +0.000 C 
ENDROOT
BRANCH   1   7
ATOM      2  C   UNL     1       6.761   3.924  12.233  0.00  0.00    +0.000 C 
ATOM      3  C   UNL     1       6.490   4.148  13.692  0.00  0.00    +0.000 A 
ATOM      4  C   UNL     1       5.547   3.385  14.382  0.00  0.00    +0.000 A 
ATOM      5  C   UNL     1       5.319   3.584  15.758  0.00  0.00    +0.000 A 
ATOM      6  C   UNL     1       6.041   4.538  16.482  0.00  0.00    +0.000 A 
ATOM      7  C   UNL     1       5.918   4.764  17.938  0.00  0.00    +0.000 A 
ATOM      8  C   UNL     1       6.577   5.816  18.451  0.00  0.00    +0.000 A 
ATOM      9  C   UNL     1       7.448   6.711  17.673  0.00  0.00    +0.000 A 
ATOM     10  O   UNL     1       7.981   7.677  18.207  0.00  0.00    +0.000 OA
ATOM     11  O   UNL     1       7.647   6.387  16.349  0.00  0.00    +0.000 OA
ATOM     12  C   UNL     1       6.934   5.330  15.752  0.00  0.00    +0.000 A 
ATOM     13  C   UNL     1       7.170   5.149  14.384  0.00  0.00    +0.000 A 
ENDBRANCH   1   7
BRANCH   1  14
ATOM     14  N   UNL     1       3.652   3.760  18.399  0.00  0.00    +0.000 N 
ATOM     15  N   UNL     1       3.212   2.521  18.106  0.00  0.00    +0.000 NA
ATOM     16  N   UNL     1       2.020   2.680  17.563  0.00  0.00    +0.000 NA
ATOM     17  N   UNL     1       1.708   4.006  17.458  0.00  0.00    +0.000 NA
ATOM     18  C   UNL     1       2.722   4.680  17.968  0.00  0.00    +0.000 A 
BRANCH  18  19
ATOM     19  C   UNL     1       2.840   6.165  18.016  0.00  0.00    +0.000 C 
BRANCH  19  20
ATOM     20  C   UNL     1       2.668   6.681  19.457  0.00  0.00    +0.000 C 
BRANCH  20  21
ATOM     21  C   UNL     1       1.913   7.984  19.538  0.00  0.00    +0.000 A 
ATOM     22  C   UNL     1       1.800   8.815  18.414  0.00  0.00    +0.000 A 
ATOM     23  C   UNL     1       1.080  10.011  18.487  0.00  0.00    +0.000 A 
ATOM     24  C   UNL     1       0.472  10.388  19.681  0.00  0.00    +0.000 A 
ATOM     25  C   UNL     1       0.579   9.571  20.805  0.00  0.00    +0.000 A 
ATOM     26  C   UNL     1       1.296   8.375  20.734  0.00  0.00    +0.000 A 
ENDBRANCH  20  21
ENDBRANCH  19  20
ENDBRANCH  18  19
ENDBRANCH   1  14
TORSDOF 5
ENDMDL
MODEL 2
REMARK VINA RESULT:      -9.0      1.369      1.774
REMARK  Name = 
REMARK  6 active torsions:
REMARK  status: ('A' for Active; 'I' for Inactive)
REMARK    1  A    between atoms: C_1  and  C_2
REMARK    2  A    between atoms: C_6  and  C_7
REMARK    3  A    between atoms: C_7  and  N_8
REMARK    4  A    between atoms: C_12  and  C_13
REMARK    5  A    between atoms: C_13  and  C_14
REMARK    6  A    between atoms: C_14  and  C_15
REMARK                            x       y       z     vdW  Elec       q    Type
REMARK                         _______ _______ _______ _____ _____    ______ ____
ROOT
ATOM      1  C   UNL     1       3.687   2.918  17.818  0.00  0.00    +0.000 C 
ENDROOT
BRANCH   1   7
ATOM      2  C   UNL     1       7.791   5.171  12.848  0.00  0.00    +0.000 C 
ATOM      3  C   UNL     1       7.018   4.829  14.088  0.00  0.00    +0.000 A 
ATOM      4  C   UNL     1       5.786   4.176  14.019  0.00  0.00    +0.000 A 
ATOM      5  C   UNL     1       5.079   3.834  15.189  0.00  0.00    +0.000 A 
ATOM      6  C   UNL     1       5.596   4.121  16.457  0.00  0.00    +0.000 A 
ATOM      7  C   UNL     1       4.959   3.735  17.735  0.00  0.00    +0.000 A 
ATOM      8  C   UNL     1       5.512   4.213  18.863  0.00  0.00    +0.000 A 
ATOM      9  C   UNL     1       6.730   5.037  18.905  0.00  0.00    +0.000 A 
ATOM     10  O   UNL     1       7.147   5.472  19.973  0.00  0.00    +0.000 OA
ATOM     11  O   UNL     1       7.372   5.259  17.707  0.00  0.00    +0.000 OA
ATOM     12  C   UNL     1       6.802   4.830  16.495  0.00  0.00    +0.000 A 
ATOM     13  C   UNL     1       7.514   5.181  15.343  0.00  0.00    +0.000 A 
ENDBRANCH   1   7
BRANCH   1  14
ATOM     14  N   UNL     1       2.735   3.314  18.844  0.00  0.00    +0.000 N 
ATOM     15  N   UNL     1       2.393   2.420  19.794  0.00  0.00    +0.000 NA
ATOM     16  N   UNL     1       1.393   2.966  20.460  0.00  0.00    +0.000 NA
ATOM     17  N   UNL     1       1.055   4.175  19.923  0.00  0.00    +0.000 NA
ATOM     18  C   UNL     1       1.880   4.391  18.915  0.00  0.00    +0.000 A 
BRANCH  18  19
ATOM     19  C   UNL     1       1.845   5.569  18.003  0.00  0.00    +0.000 C 
BRANCH  19  20
ATOM     20  C   UNL     1       2.771   6.687  18.517  0.00  0.00    +0.000 C 
BRANCH  20  21
ATOM     21  C   UNL     1       2.026   7.925  18.952  0.00  0.00    +0.000 A 
ATOM     22  C   UNL     1       1.656   8.102  20.293  0.00  0.00    +0.000 A 
ATOM     23  C   UNL     1       0.987   9.260  20.696  0.00  0.00    +0.000 A 
ATOM     24  C   UNL     1       0.679  10.249  19.765  0.00  0.00    +0.000 A 
ATOM     25  C   UNL     1       1.041  10.083  18.429  0.00  0.00    +0.000 A 
ATOM     26  C   UNL     1       1.711   8.927  18.025  0.00  0.00    +0.000 A 
ENDBRANCH  20  21
ENDBRANCH  19  20
ENDBRANCH  18  19
ENDBRANCH   1  14
TORSDOF 5
ENDMDL
MODEL 3
REMARK VINA RESULT:      -8.9      1.653      1.931
REMARK  Name = 
REMARK  6 active torsions:
REMARK  status: ('A' for Active; 'I' for Inactive)
REMARK    1  A    between atoms: C_1  and  C_2
REMARK    2  A    between atoms: C_6  and  C_7
REMARK    3  A    between atoms: C_7  and  N_8
REMARK    4  A    between atoms: C_12  and  C_13
REMARK    5  A    between atoms: C_13  and  C_14
REMARK    6  A    between atoms: C_14  and  C_15
REMARK                            x       y       z     vdW  Elec       q    Type
REMARK                         _______ _______ _______ _____ _____    ______ ____
ROOT
ATOM      1  C   UNL     1       3.395   3.863  18.592  0.00  0.00    +0.000 C 
ENDROOT
BRANCH   1   7
ATOM      2  C   UNL     1       7.295   4.611  13.037  0.00  0.00    +0.000 C 
ATOM      3  C   UNL     1       6.617   4.573  14.376  0.00  0.00    +0.000 A 
ATOM      4  C   UNL     1       5.264   4.249  14.496  0.00  0.00    +0.000 A 
ATOM      5  C   UNL     1       4.642   4.190  15.759  0.00  0.00    +0.000 A 
ATOM      6  C   UNL     1       5.360   4.434  16.933  0.00  0.00    +0.000 A 
ATOM      7  C   UNL     1       4.807   4.323  18.300  0.00  0.00    +0.000 A 
ATOM      8  C   UNL     1       5.592   4.732  19.312  0.00  0.00    +0.000 A 
ATOM      9  C   UNL     1       6.969   5.223  19.149  0.00  0.00    +0.000 A 
ATOM     10  O   UNL     1       7.604   5.620  20.120  0.00  0.00    +0.000 OA
ATOM     11  O   UNL     1       7.496   5.181  17.878  0.00  0.00    +0.000 OA
ATOM     12  C   UNL     1       6.698   4.816  16.778  0.00  0.00    +0.000 A 
ATOM     13  C   UNL     1       7.331   4.885  15.532  0.00  0.00    +0.000 A 
ENDBRANCH   1   7
BRANCH   1  14
ATOM     14  N   UNL     1       3.085   3.584  19.986  0.00  0.00    +0.000 N 
ATOM     15  N   UNL     1       3.391   2.373  20.492  0.00  0.00    +0.000 NA
ATOM     16  N   UNL     1       2.836   2.330  21.688  0.00  0.00    +0.000 NA
ATOM     17  N   UNL     1       2.136   3.476  21.939  0.00  0.00    +0.000 NA
ATOM     18  C   UNL     1       2.281   4.254  20.883  0.00  0.00    +0.000 A 
BRANCH  18  19
ATOM     19  C   UNL     1       1.644   5.587  20.694  0.00  0.00    +0.000 C 
BRANCH  19  20
ATOM     20  C   UNL     1       2.490   6.470  19.758  0.00  0.00    +0.000 C 
BRANCH  20  21
ATOM     21  C   UNL     1       1.905   7.845  19.544  0.00  0.00    +0.000 A 
ATOM     22  C   UNL     1       1.976   8.463  18.289  0.00  0.00    +0.000 A 
ATOM     23  C   UNL     1       1.412   9.727  18.089  0.00  0.00    +0.000 A 
ATOM     24  C   UNL     1       0.779  10.383  19.141  0.00  0.00    +0.000 A 
ATOM     25  C   UNL     1       0.705   9.778  20.394  0.00  0.00    +0.000 A 
ATOM     26  C   UNL     1       1.265   8.515  20.595  0.00  0.00    +0.000 A 
ENDBRANCH  20  21
ENDBRANCH  19  20
ENDBRANCH  18  19
ENDBRANCH   1  14
TORSDOF 5
ENDMDL
MODEL 4
REMARK VINA RESULT:      -8.9      1.382      3.067
REMARK  Name = 
REMARK  6 active torsions:
REMARK  status: ('A' for Active; 'I' for Inactive)
REMARK    1  A    between atoms: C_1  and  C_2
REMARK    2  A    between atoms: C_6  and  C_7
REMARK    3  A    between atoms: C_7  and  N_8
REMARK    4  A    between atoms: C_12  and  C_13
REMARK    5  A    between atoms: C_13  and  C_14
REMARK    6  A    between atoms: C_14  and  C_15
REMARK                            x       y       z     vdW  Elec       q    Type
REMARK                         _______ _______ _______ _____ _____    ______ ____
ROOT
ATOM      1  C   UNL     1       4.667   3.002  18.315  0.00  0.00    +0.000 C 
ENDROOT
BRANCH   1   7
ATOM      2  C   UNL     1       8.663   8.537  18.437  0.00  0.00    +0.000 C 
ATOM      3  C   UNL     1       7.825   7.322  18.165  0.00  0.00    +0.000 A 
ATOM      4  C   UNL     1       7.443   6.459  19.193  0.00  0.00    +0.000 A 
ATOM      5  C   UNL     1       6.633   5.335  18.933  0.00  0.00    +0.000 A 
ATOM      6  C   UNL     1       6.173   5.057  17.642  0.00  0.00    +0.000 A 
ATOM      7  C   UNL     1       5.263   3.944  17.291  0.00  0.00    +0.000 A 
ATOM      8  C   UNL     1       5.034   3.731  15.984  0.00  0.00    +0.000 A 
ATOM      9  C   UNL     1       5.578   4.562  14.899  0.00  0.00    +0.000 A 
ATOM     10  O   UNL     1       5.357   4.275  13.728  0.00  0.00    +0.000 OA
ATOM     11  O   UNL     1       6.306   5.670  15.271  0.00  0.00    +0.000 OA
ATOM     12  C   UNL     1       6.623   5.903  16.623  0.00  0.00    +0.000 A 
ATOM     13  C   UNL     1       7.430   7.021  16.862  0.00  0.00    +0.000 A 
ENDBRANCH   1   7
BRANCH   1  14
ATOM     14  N   UNL     1       3.236   3.130  18.549  0.00  0.00    +0.000 N 
ATOM     15  N   UNL     1       2.407   2.202  18.031  0.00  0.00    +0.000 NA
ATOM     16  N   UNL     1       1.186   2.660  18.226  0.00  0.00    +0.000 NA
ATOM     17  N   UNL     1       1.218   3.891  18.818  0.00  0.00    +0.000 NA
ATOM     18  C   UNL     1       2.489   4.190  19.012  0.00  0.00    +0.000 A 
BRANCH  18  19
ATOM     19  C   UNL     1       3.001   5.466  19.586  0.00  0.00    +0.000 C 
BRANCH  19  20
ATOM     20  C   UNL     1       3.043   6.570  18.513  0.00  0.00    +0.000 C 
BRANCH  20  21
ATOM     21  C   UNL     1       2.220   7.782  18.873  0.00  0.00    +0.000 A 
ATOM     22  C   UNL     1       1.904   8.744  17.903  0.00  0.00    +0.000 A 
ATOM     23  C   UNL     1       1.122   9.854  18.234  0.00  0.00    +0.000 A 
ATOM     24  C   UNL     1       0.653  10.014  19.536  0.00  0.00    +0.000 A 
ATOM     25  C   UNL     1       0.962   9.065  20.508  0.00  0.00    +0.000 A 
ATOM     26  C   UNL     1       1.742   7.955  20.179  0.00  0.00    +0.000 A 
ENDBRANCH  20  21
ENDBRANCH  19  20
ENDBRANCH  18  19
ENDBRANCH   1  14
TORSDOF 5
ENDMDL
MODEL 5
REMARK VINA RESULT:      -8.9      2.886      7.453
REMARK  Name = 
REMARK  6 active torsions:
REMARK  status: ('A' for Active; 'I' for Inactive)
REMARK    1  A    between atoms: C_1  and  C_2
REMARK    2  A    between atoms: C_6  and  C_7
REMARK    3  A    between atoms: C_7  and  N_8
REMARK    4  A    between atoms: C_12  and  C_13
REMARK    5  A    between atoms: C_13  and  C_14
REMARK    6  A    between atoms: C_14  and  C_15
REMARK                            x       y       z     vdW  Elec       q    Type
REMARK                         _______ _______ _______ _____ _____    ______ ____
ROOT
ATOM      1  C   UNL     1       4.397   3.652  17.856  0.00  0.00    +0.000 C 
ENDROOT
BRANCH   1   7
ATOM      2  C   UNL     1       1.509   9.719  19.061  0.00  0.00    +0.000 C 
ATOM      3  C   UNL     1       2.004   8.304  18.986  0.00  0.00    +0.000 A 
ATOM      4  C   UNL     1       2.677   7.830  17.859  0.00  0.00    +0.000 A 
ATOM      5  C   UNL     1       3.163   6.508  17.807  0.00  0.00    +0.000 A 
ATOM      6  C   UNL     1       3.004   5.635  18.888  0.00  0.00    +0.000 A 
ATOM      7  C   UNL     1       3.544   4.259  18.948  0.00  0.00    +0.000 A 
ATOM      8  C   UNL     1       3.178   3.504  19.998  0.00  0.00    +0.000 A 
ATOM      9  C   UNL     1       2.332   3.976  21.106  0.00  0.00    +0.000 A 
ATOM     10  O   UNL     1       2.006   3.211  22.007  0.00  0.00    +0.000 OA
ATOM     11  O   UNL     1       1.964   5.303  21.084  0.00  0.00    +0.000 OA
ATOM     12  C   UNL     1       2.272   6.118  19.979  0.00  0.00    +0.000 A 
ATOM     13  C   UNL     1       1.779   7.426  20.045  0.00  0.00    +0.000 A 
ENDBRANCH   1   7
BRANCH   1  14
ATOM     14  N   UNL     1       5.740   4.196  17.712  0.00  0.00    +0.000 N 
ATOM     15  N   UNL     1       6.521   4.299  18.806  0.00  0.00    +0.000 NA
ATOM     16  N   UNL     1       7.581   4.987  18.429  0.00  0.00    +0.000 NA
ATOM     17  N   UNL     1       7.471   5.371  17.122  0.00  0.00    +0.000 NA
ATOM     18  C   UNL     1       6.326   4.889  16.676  0.00  0.00    +0.000 A 
BRANCH  18  19
ATOM     19  C   UNL     1       5.766   5.107  15.313  0.00  0.00    +0.000 C 
BRANCH  19  20
ATOM     20  C   UNL     1       6.811   4.770  14.232  0.00  0.00    +0.000 C 
BRANCH  20  21
ATOM     21  C   UNL     1       6.271   3.885  13.136  0.00  0.00    +0.000 A 
ATOM     22  C   UNL     1       4.905   3.889  12.823  0.00  0.00    +0.000 A 
ATOM     23  C   UNL     1       4.412   3.085  11.792  0.00  0.00    +0.000 A 
ATOM     24  C   UNL     1       5.278   2.267  11.069  0.00  0.00    +0.000 A 
ATOM     25  C   UNL     1       6.637   2.254  11.374  0.00  0.00    +0.000 A 
ATOM     26  C   UNL     1       7.132   3.058  12.403  0.00  0.00    +0.000 A 
ENDBRANCH  20  21
ENDBRANCH  19  20
ENDBRANCH  18  19
ENDBRANCH   1  14
TORSDOF 5
ENDMDL
MODEL 6
REMARK VINA RESULT:      -8.8      3.008      6.833
REMARK  Name = 
REMARK  6 active torsions:
REMARK  status: ('A' for Active; 'I' for Inactive)
REMARK    1  A    between atoms: C_1  and  C_2
REMARK    2  A    between atoms: C_6  and  C_7
REMARK    3  A    between atoms: C_7  and  N_8
REMARK    4  A    between atoms: C_12  and  C_13
REMARK    5  A    between atoms: C_13  and  C_14
REMARK    6  A    between atoms: C_14  and  C_15
REMARK                            x       y       z     vdW  Elec       q    Type
REMARK                         _______ _______ _______ _____ _____    ______ ____
ROOT
ATOM      1  C   UNL     1       4.098   7.313  16.860  0.00  0.00    +0.000 C 
ENDROOT
BRANCH   1   7
ATOM      2  C   UNL     1      -0.425  11.228  20.150  0.00  0.00    +0.000 C 
ATOM      3  C   UNL     1       0.503  10.191  19.589  0.00  0.00    +0.000 A 
ATOM      4  C   UNL     1       1.080  10.339  18.327  0.00  0.00    +0.000 A 
ATOM      5  C   UNL     1       1.971   9.373  17.819  0.00  0.00    +0.000 A 
ATOM      6  C   UNL     1       2.322   8.245  18.568  0.00  0.00    +0.000 A 
ATOM      7  C   UNL     1       3.302   7.222  18.145  0.00  0.00    +0.000 A 
ATOM      8  C   UNL     1       3.416   6.128  18.917  0.00  0.00    +0.000 A 
ATOM      9  C   UNL     1       2.677   5.917  20.172  0.00  0.00    +0.000 A 
ATOM     10  O   UNL     1       2.804   4.870  20.797  0.00  0.00    +0.000 OA
ATOM     11  O   UNL     1       1.879   6.952  20.603  0.00  0.00    +0.000 OA
ATOM     12  C   UNL     1       1.682   8.092  19.803  0.00  0.00    +0.000 A 
ATOM     13  C   UNL     1       0.791   9.039  20.321  0.00  0.00    +0.000 A 
ENDBRANCH   1   7
BRANCH   1  14
ATOM     14  N   UNL     1       5.408   6.679  16.869  0.00  0.00    +0.000 N 
ATOM     15  N   UNL     1       6.495   7.437  17.114  0.00  0.00    +0.000 NA
ATOM     16  N   UNL     1       7.536   6.663  16.873  0.00  0.00    +0.000 NA
ATOM     17  N   UNL     1       7.135   5.434  16.431  0.00  0.00    +0.000 NA
ATOM     18  C   UNL     1       5.815   5.443  16.419  0.00  0.00    +0.000 A 
BRANCH  18  19
ATOM     19  C   UNL     1       4.945   4.326  15.954  0.00  0.00    +0.000 C 
BRANCH  19  20
ATOM     20  C   UNL     1       4.922   3.184  16.988  0.00  0.00    +0.000 C 
BRANCH  20  21
ATOM     21  C   UNL     1       3.563   2.968  17.607  0.00  0.00    +0.000 A 
ATOM     22  C   UNL     1       3.392   2.048  18.650  0.00  0.00    +0.000 A 
ATOM     23  C   UNL     1       2.136   1.868  19.237  0.00  0.00    +0.000 A 
ATOM     24  C   UNL     1       1.042   2.601  18.784  0.00  0.00    +0.000 A 
ATOM     25  C   UNL     1       1.201   3.517  17.746  0.00  0.00    +0.000 A 
ATOM     26  C   UNL     1       2.455   3.700  17.159  0.00  0.00    +0.000 A 
ENDBRANCH  20  21
ENDBRANCH  19  20
ENDBRANCH  18  19
ENDBRANCH   1  14
TORSDOF 5
ENDMDL
MODEL 7
REMARK VINA RESULT:      -8.7      1.197      1.580
REMARK  Name = 
REMARK  6 active torsions:
REMARK  status: ('A' for Active; 'I' for Inactive)
REMARK    1  A    between atoms: C_1  and  C_2
REMARK    2  A    between atoms: C_6  and  C_7
REMARK    3  A    between atoms: C_7  and  N_8
REMARK    4  A    between atoms: C_12  and  C_13
REMARK    5  A    between atoms: C_13  and  C_14
REMARK    6  A    between atoms: C_14  and  C_15
REMARK                            x       y       z     vdW  Elec       q    Type
REMARK                         _______ _______ _______ _____ _____    ______ ____
ROOT
ATOM      1  C   UNL     1       3.651   4.440  17.515  0.00  0.00    +0.000 C 
ENDROOT
BRANCH   1   7
ATOM      2  C   UNL     1       7.310   3.943  11.772  0.00  0.00    +0.000 C 
ATOM      3  C   UNL     1       6.667   4.231  13.098  0.00  0.00    +0.000 A 
ATOM      4  C   UNL     1       5.376   3.788  13.390  0.00  0.00    +0.000 A 
ATOM      5  C   UNL     1       4.790   4.039  14.646  0.00  0.00    +0.000 A 
ATOM      6  C   UNL     1       5.487   4.723  15.648  0.00  0.00    +0.000 A 
ATOM      7  C   UNL     1       4.979   4.967  17.015  0.00  0.00    +0.000 A 
ATOM      8  C   UNL     1       5.714   5.765  17.808  0.00  0.00    +0.000 A 
ATOM      9  C   UNL     1       7.006   6.355  17.423  0.00  0.00    +0.000 A 
ATOM     10  O   UNL     1       7.595   7.109  18.189  0.00  0.00    +0.000 OA
ATOM     11  O   UNL     1       7.512   5.993  16.194  0.00  0.00    +0.000 OA
ATOM     12  C   UNL     1       6.754   5.208  15.305  0.00  0.00    +0.000 A 
ATOM     13  C   UNL     1       7.350   4.972  14.061  0.00  0.00    +0.000 A 
ENDBRANCH   1   7
BRANCH   1  14
ATOM     14  N   UNL     1       3.658   3.829  18.836  0.00  0.00    +0.000 N 
ATOM     15  N   UNL     1       4.438   2.750  19.049  0.00  0.00    +0.000 NA
ATOM     16  N   UNL     1       4.108   2.296  20.243  0.00  0.00    +0.000 NA
ATOM     17  N   UNL     1       3.094   3.038  20.781  0.00  0.00    +0.000 NA
ATOM     18  C   UNL     1       2.806   3.984  19.907  0.00  0.00    +0.000 A 
BRANCH  18  19
ATOM     19  C   UNL     1       1.723   4.997  20.051  0.00  0.00    +0.000 C 
BRANCH  19  20
ATOM     20  C   UNL     1       2.269   6.299  20.665  0.00  0.00    +0.000 C 
BRANCH  20  21
ATOM     21  C   UNL     1       1.981   7.520  19.826  0.00  0.00    +0.000 A 
ATOM     22  C   UNL     1       2.468   7.618  18.516  0.00  0.00    +0.000 A 
ATOM     23  C   UNL     1       2.179   8.740  17.734  0.00  0.00    +0.000 A 
ATOM     24  C   UNL     1       1.407   9.775  18.257  0.00  0.00    +0.000 A 
ATOM     25  C   UNL     1       0.919   9.689  19.559  0.00  0.00    +0.000 A 
ATOM     26  C   UNL     1       1.205   8.568  20.341  0.00  0.00    +0.000 A 
ENDBRANCH  20  21
ENDBRANCH  19  20
ENDBRANCH  18  19
ENDBRANCH   1  14
TORSDOF 5
ENDMDL
MODEL 8
REMARK VINA RESULT:      -8.7      2.234      4.050
REMARK  Name = 
REMARK  6 active torsions:
REMARK  status: ('A' for Active; 'I' for Inactive)
REMARK    1  A    between atoms: C_1  and  C_2
REMARK    2  A    between atoms: C_6  and  C_7
REMARK    3  A    between atoms: C_7  and  N_8
REMARK    4  A    between atoms: C_12  and  C_13
REMARK    5  A    between atoms: C_13  and  C_14
REMARK    6  A    between atoms: C_14  and  C_15
REMARK                            x       y       z     vdW  Elec       q    Type
REMARK                         _______ _______ _______ _____ _____    ______ ____
ROOT
ATOM      1  C   UNL     1       4.490   5.508  18.923  0.00  0.00    +0.000 C 
ENDROOT
BRANCH   1   7
ATOM      2  C   UNL     1       6.408   3.481  12.692  0.00  0.00    +0.000 C 
ATOM      3  C   UNL     1       6.151   4.111  14.030  0.00  0.00    +0.000 A 
ATOM      4  C   UNL     1       5.016   3.790  14.777  0.00  0.00    +0.000 A 
ATOM      5  C   UNL     1       4.795   4.366  16.044  0.00  0.00    +0.000 A 
ATOM      6  C   UNL     1       5.712   5.262  16.602  0.00  0.00    +0.000 A 
ATOM      7  C   UNL     1       5.598   5.856  17.952  0.00  0.00    +0.000 A 
ATOM      8  C   UNL     1       6.488   6.808  18.278  0.00  0.00    +0.000 A 
ATOM      9  C   UNL     1       7.590   7.248  17.409  0.00  0.00    +0.000 A 
ATOM     10  O   UNL     1       8.335   8.155  17.762  0.00  0.00    +0.000 OA
ATOM     11  O   UNL     1       7.747   6.575  16.218  0.00  0.00    +0.000 OA
ATOM     12  C   UNL     1       6.808   5.611  15.805  0.00  0.00    +0.000 A 
ATOM     13  C   UNL     1       7.041   5.053  14.543  0.00  0.00    +0.000 A 
ENDBRANCH   1   7
BRANCH   1  14
ATOM     14  N   UNL     1       3.326   6.381  18.910  0.00  0.00    +0.000 N 
ATOM     15  N   UNL     1       3.315   7.437  18.072  0.00  0.00    +0.000 NA
ATOM     16  N   UNL     1       2.254   8.148  18.402  0.00  0.00    +0.000 NA
ATOM     17  N   UNL     1       1.610   7.592  19.470  0.00  0.00    +0.000 NA
ATOM     18  C   UNL     1       2.277   6.500  19.794  0.00  0.00    +0.000 A 
BRANCH  18  19
ATOM     19  C   UNL     1       1.963   5.599  20.939  0.00  0.00    +0.000 C 
BRANCH  19  20
ATOM     20  C   UNL     1       1.148   4.380  20.469  0.00  0.00    +0.000 C 
BRANCH  20  21
ATOM     21  C   UNL     1       1.962   3.390  19.674  0.00  0.00    +0.000 A 
ATOM     22  C   UNL     1       1.634   3.100  18.343  0.00  0.00    +0.000 A 
ATOM     23  C   UNL     1       2.404   2.200  17.602  0.00  0.00    +0.000 A 
ATOM     24  C   UNL     1       3.505   1.578  18.186  0.00  0.00    +0.000 A 
ATOM     25  C   UNL     1       3.840   1.857  19.510  0.00  0.00    +0.000 A 
ATOM     26  C   UNL     1       3.072   2.758  20.251  0.00  0.00    +0.000 A 
ENDBRANCH  20  21
ENDBRANCH  19  20
ENDBRANCH  18  19
ENDBRANCH   1  14
TORSDOF 5
ENDMDL
MODEL 9
REMARK VINA RESULT:      -8.7      2.983      7.344
REMARK  Name = 
REMARK  6 active torsions:
REMARK  status: ('A' for Active; 'I' for Inactive)
REMARK    1  A    between atoms: C_1  and  C_2
REMARK    2  A    between atoms: C_6  and  C_7
REMARK    3  A    between atoms: C_7  and  N_8
REMARK    4  A    between atoms: C_12  and  C_13
REMARK    5  A    between atoms: C_13  and  C_14
REMARK    6  A    between atoms: C_14  and  C_15
REMARK                            x       y       z     vdW  Elec       q    Type
REMARK                         _______ _______ _______ _____ _____    ______ ____
ROOT
ATOM      1  C   UNL     1       4.748   3.922  18.323  0.00  0.00    +0.000 C 
ENDROOT
BRANCH   1   7
ATOM      2  C   UNL     1       0.929   9.331  19.986  0.00  0.00    +0.000 C 
ATOM      3  C   UNL     1       1.622   8.016  19.777  0.00  0.00    +0.000 A 
ATOM      4  C   UNL     1       2.474   7.809  18.692  0.00  0.00    +0.000 A 
ATOM      5  C   UNL     1       3.142   6.581  18.517  0.00  0.00    +0.000 A 
ATOM      6  C   UNL     1       2.987   5.535  19.434  0.00  0.00    +0.000 A 
ATOM      7  C   UNL     1       3.702   4.242  19.369  0.00  0.00    +0.000 A 
ATOM      8  C   UNL     1       3.330   3.293  20.245  0.00  0.00    +0.000 A 
ATOM      9  C   UNL     1       2.309   3.480  21.288  0.00  0.00    +0.000 A 
ATOM     10  O   UNL     1       1.995   2.549  22.021  0.00  0.00    +0.000 OA
ATOM     11  O   UNL     1       1.766   4.739  21.406  0.00  0.00    +0.000 OA
ATOM     12  C   UNL     1       2.079   5.749  20.477  0.00  0.00    +0.000 A 
ATOM     13  C   UNL     1       1.404   6.961  20.663  0.00  0.00    +0.000 A 
ENDBRANCH   1   7
BRANCH   1  14
ATOM     14  N   UNL     1       5.978   4.697  18.385  0.00  0.00    +0.000 N 
ATOM     15  N   UNL     1       6.685   4.702  19.533  0.00  0.00    +0.000 NA
ATOM     16  N   UNL     1       7.622   5.618  19.374  0.00  0.00    +0.000 NA
ATOM     17  N   UNL     1       7.498   6.235  18.162  0.00  0.00    +0.000 NA
ATOM     18  C   UNL     1       6.474   5.672  17.549  0.00  0.00    +0.000 A 
BRANCH  18  19
ATOM     19  C   UNL     1       5.939   6.067  16.215  0.00  0.00    +0.000 C 
BRANCH  19  20
ATOM     20  C   UNL     1       5.267   4.869  15.519  0.00  0.00    +0.000 C 
BRANCH  20  21
ATOM     21  C   UNL     1       5.916   4.501  14.207  0.00  0.00    +0.000 A 
ATOM     22  C   UNL     1       5.309   3.579  13.344  0.00  0.00    +0.000 A 
ATOM     23  C   UNL     1       5.901   3.258  12.119  0.00  0.00    +0.000 A 
ATOM     24  C   UNL     1       7.106   3.852  11.750  0.00  0.00    +0.000 A 
ATOM     25  C   UNL     1       7.719   4.768  12.601  0.00  0.00    +0.000 A 
ATOM     26  C   UNL     1       7.128   5.091  13.824  0.00  0.00    +0.000 A 
ENDBRANCH  20  21
ENDBRANCH  19  20
ENDBRANCH  18  19
ENDBRANCH   1  14
TORSDOF 5
ENDMDL
