MODEL 1
REMARK VINA RESULT:      -9.5      0.000      0.000
REMARK  Name = 
REMARK  4 active torsions:
REMARK  status: ('A' for Active; 'I' for Inactive)
REMARK    1  A    between atoms: C_1  and  C_2
REMARK    2  A    between atoms: C_9  and  C_10
REMARK    3  A    between atoms: N_12  and  C_13
REMARK    4  A    between atoms: C_20  and  C_21
REMARK                            x       y       z     vdW  Elec       q    Type
REMARK                         _______ _______ _______ _____ _____    ______ ____
ROOT
ATOM      1  C   UNL     1       2.059   8.581  18.241  0.00  0.00    +0.000 C 
ATOM      2  O   UNL     1       2.167   9.006  17.094  0.00  0.00    +0.000 OA
ATOM      3  N   UNL     1       2.600   7.407  18.728  0.00  0.00    +0.000 N 
ATOM      4  H   UNL     1       2.280   7.034  19.619  0.00  0.00    +0.000 HD
ENDROOT
BRANCH   1  13
ATOM      5  C   UNL     1      -2.702  12.579  23.386  0.00  0.00    +0.000 C 
ATOM      6  C   UNL     1      -2.110  12.210  22.043  0.00  0.00    +0.000 C 
ATOM      7  O   UNL     1      -2.424  12.850  21.042  0.00  0.00    +0.000 OA
ATOM      8  N   UNL     1      -1.209  11.161  22.070  0.00  0.00    +0.000 N 
ATOM      9  C   UNL     1      -0.924  10.312  23.241  0.00  0.00    +0.000 C 
ATOM     10  C   UNL     1       0.195   9.345  22.851  0.00  0.00    +0.000 C 
ATOM     11  C   UNL     1       0.327   9.605  21.387  0.00  0.00    +0.000 A 
ATOM     12  C   UNL     1       1.152   8.937  20.498  0.00  0.00    +0.000 A 
ATOM     13  C   UNL     1       1.201   9.367  19.164  0.00  0.00    +0.000 A 
ATOM     14  C   UNL     1       0.408  10.451  18.744  0.00  0.00    +0.000 A 
ATOM     15  C   UNL     1      -0.437  11.107  19.657  0.00  0.00    +0.000 A 
ATOM     16  C   UNL     1      -0.468  10.673  20.977  0.00  0.00    +0.000 A 
ENDBRANCH   1  13
BRANCH   3  17
ATOM     17  C   UNL     1       3.416   6.498  17.987  0.00  0.00    +0.000 A 
ATOM     18  C   UNL     1       4.487   6.941  17.197  0.00  0.00    +0.000 A 
ATOM     19  C   UNL     1       5.253   6.042  16.462  0.00  0.00    +0.000 A 
ATOM     20  C   UNL     1       4.962   4.687  16.521  0.00  0.00    +0.000 A 
ATOM     21  C   UNL     1       3.904   4.227  17.318  0.00  0.00    +0.000 A 
ATOM     22  C   UNL     1       3.610   2.862  17.372  0.00  0.00    +0.000 A 
ATOM     23  C   UNL     1       2.547   2.419  18.145  0.00  0.00    +0.000 A 
ATOM     24  C   UNL     1       1.803   3.350  18.852  0.00  0.00    +0.000 A 
ATOM     25  C   UNL     1       0.631   2.911  19.678  0.00  0.00    +0.000 C 
ATOM     26  N   UNL     1       2.076   4.682  18.828  0.00  0.00    +0.000 NA
ATOM     27  C   UNL     1       3.110   5.126  18.072  0.00  0.00    +0.000 A 
ENDBRANCH   3  17
TORSDOF 2
ENDMDL
MODEL 2
REMARK VINA RESULT:      -9.3      0.868      1.719
REMARK  Name = 
REMARK  4 active torsions:
REMARK  status: ('A' for Active; 'I' for Inactive)
REMARK    1  A    between atoms: C_1  and  C_2
REMARK    2  A    between atoms: C_9  and  C_10
REMARK    3  A    between atoms: N_12  and  C_13
REMARK    4  A    between atoms: C_20  and  C_21
REMARK                            x       y       z     vdW  Elec       q    Type
REMARK                         _______ _______ _______ _____ _____    ______ ____
ROOT
ATOM      1  C   UNL     1       2.097   8.446  18.206  0.00  0.00    +0.000 C 
ATOM      2  O   UNL     1       2.247   8.915  17.081  0.00  0.00    +0.000 OA
ATOM      3  N   UNL     1       2.637   7.263  18.673  0.00  0.00    +0.000 N 
ATOM      4  H   UNL     1       2.287   6.853  19.536  0.00  0.00    +0.000 HD
ENDROOT
BRANCH   1  13
ATOM      5  C   UNL     1      -2.760  12.730  23.020  0.00  0.00    +0.000 C 
ATOM      6  C   UNL     1      -1.673  11.735  22.675  0.00  0.00    +0.000 C 
ATOM      7  O   UNL     1      -1.146  11.074  23.567  0.00  0.00    +0.000 OA
ATOM      8  N   UNL     1      -1.381  11.634  21.327  0.00  0.00    +0.000 N 
ATOM      9  C   UNL     1      -1.920  12.508  20.270  0.00  0.00    +0.000 C 
ATOM     10  C   UNL     1      -1.408  11.983  18.927  0.00  0.00    +0.000 C 
ATOM     11  C   UNL     1      -0.437  10.935  19.361  0.00  0.00    +0.000 A 
ATOM     12  C   UNL     1       0.389  10.182  18.544  0.00  0.00    +0.000 A 
ATOM     13  C   UNL     1       1.189   9.185  19.120  0.00  0.00    +0.000 A 
ATOM     14  C   UNL     1       1.156   8.973  20.511  0.00  0.00    +0.000 A 
ATOM     15  C   UNL     1       0.323   9.758  21.328  0.00  0.00    +0.000 A 
ATOM     16  C   UNL     1      -0.468  10.737  20.739  0.00  0.00    +0.000 A 
ENDBRANCH   1  13
BRANCH   3  17
ATOM     17  C   UNL     1       3.499   6.395  17.936  0.00  0.00    +0.000 A 
ATOM     18  C   UNL     1       4.608   6.880  17.228  0.00  0.00    +0.000 A 
ATOM     19  C   UNL     1       5.419   6.021  16.493  0.00  0.00    +0.000 A 
ATOM     20  C   UNL     1       5.135   4.664  16.471  0.00  0.00    +0.000 A 
ATOM     21  C   UNL     1       4.039   4.161  17.186  0.00  0.00    +0.000 A 
ATOM     22  C   UNL     1       3.752   2.794  17.159  0.00  0.00    +0.000 A 
ATOM     23  C   UNL     1       2.652   2.309  17.850  0.00  0.00    +0.000 A 
ATOM     24  C   UNL     1       1.864   3.201  18.559  0.00  0.00    +0.000 A 
ATOM     25  C   UNL     1       0.652   2.718  19.298  0.00  0.00    +0.000 C 
ATOM     26  N   UNL     1       2.128   4.534  18.614  0.00  0.00    +0.000 NA
ATOM     27  C   UNL     1       3.199   5.019  17.938  0.00  0.00    +0.000 A 
ENDBRANCH   3  17
TORSDOF 2
ENDMDL
MODEL 3
REMARK VINA RESULT:      -8.8      5.641      7.719
REMARK  Name = 
REMARK  4 active torsions:
REMARK  status: ('A' for Active; 'I' for Inactive)
REMARK    1  A    between atoms: C_1  and  C_2
REMARK    2  A    between atoms: C_9  and  C_10
REMARK    3  A    between atoms: N_12  and  C_13
REMARK    4  A    between atoms: C_20  and  C_21
REMARK                            x       y       z     vdW  Elec       q    Type
REMARK                         _______ _______ _______ _____ _____    ______ ____
ROOT
ATOM      1  C   UNL     1       7.913   8.014  18.054  0.00  0.00    +0.000 C 
ATOM      2  O   UNL     1       8.463   7.199  18.789  0.00  0.00    +0.000 OA
ATOM      3  N   UNL     1       6.979   7.729  17.077  0.00  0.00    +0.000 N 
ATOM      4  H   UNL     1       6.743   8.433  16.381  0.00  0.00    +0.000 HD
ENDROOT
BRANCH   1  13
ATOM      5  C   UNL     1      10.292  15.660  19.055  0.00  0.00    +0.000 C 
ATOM      6  C   UNL     1       9.455  14.528  18.501  0.00  0.00    +0.000 C 
ATOM      7  O   UNL     1       8.607  14.761  17.641  0.00  0.00    +0.000 OA
ATOM      8  N   UNL     1       9.752  13.278  19.011  0.00  0.00    +0.000 N 
ATOM      9  C   UNL     1      10.677  13.010  20.127  0.00  0.00    +0.000 C 
ATOM     10  C   UNL     1      10.775  11.493  20.295  0.00  0.00    +0.000 C 
ATOM     11  C   UNL     1       9.718  11.014  19.356  0.00  0.00    +0.000 A 
ATOM     12  C   UNL     1       9.314   9.704  19.163  0.00  0.00    +0.000 A 
ATOM     13  C   UNL     1       8.353   9.428  18.179  0.00  0.00    +0.000 A 
ATOM     14  C   UNL     1       7.804  10.476  17.418  0.00  0.00    +0.000 A 
ATOM     15  C   UNL     1       8.215  11.803  17.638  0.00  0.00    +0.000 A 
ATOM     16  C   UNL     1       9.173  12.058  18.612  0.00  0.00    +0.000 A 
ENDBRANCH   1  13
BRANCH   3  17
ATOM     17  C   UNL     1       6.462   6.432  16.776  0.00  0.00    +0.000 A 
ATOM     18  C   UNL     1       7.222   5.472  16.091  0.00  0.00    +0.000 A 
ATOM     19  C   UNL     1       6.689   4.224  15.784  0.00  0.00    +0.000 A 
ATOM     20  C   UNL     1       5.394   3.919  16.172  0.00  0.00    +0.000 A 
ATOM     21  C   UNL     1       4.626   4.861  16.871  0.00  0.00    +0.000 A 
ATOM     22  C   UNL     1       3.320   4.553  17.257  0.00  0.00    +0.000 A 
ATOM     23  C   UNL     1       2.560   5.500  17.928  0.00  0.00    +0.000 A 
ATOM     24  C   UNL     1       3.125   6.735  18.203  0.00  0.00    +0.000 A 
ATOM     25  C   UNL     1       2.327   7.793  18.904  0.00  0.00    +0.000 C 
ATOM     26  N   UNL     1       4.399   7.056  17.851  0.00  0.00    +0.000 NA
ATOM     27  C   UNL     1       5.148   6.139  17.191  0.00  0.00    +0.000 A 
ENDBRANCH   3  17
TORSDOF 2
ENDMDL
MODEL 4
REMARK VINA RESULT:      -8.8      1.731      3.152
REMARK  Name = 
REMARK  4 active torsions:
REMARK  status: ('A' for Active; 'I' for Inactive)
REMARK    1  A    between atoms: C_1  and  C_2
REMARK    2  A    between atoms: C_9  and  C_10
REMARK    3  A    between atoms: N_12  and  C_13
REMARK    4  A    between atoms: C_20  and  C_21
REMARK                            x       y       z     vdW  Elec       q    Type
REMARK                         _______ _______ _______ _____ _____    ______ ____
ROOT
ATOM      1  C   UNL     1       2.105   6.829  19.736  0.00  0.00    +0.000 C 
ATOM      2  O   UNL     1       2.222   5.997  20.631  0.00  0.00    +0.000 OA
ATOM      3  N   UNL     1       2.524   6.682  18.428  0.00  0.00    +0.000 N 
ATOM      4  H   UNL     1       2.580   7.496  17.819  0.00  0.00    +0.000 HD
ENDROOT
BRANCH   1  13
ATOM      5  C   UNL     1      -1.283  13.813  21.945  0.00  0.00    +0.000 C 
ATOM      6  C   UNL     1      -0.623  12.825  21.007  0.00  0.00    +0.000 C 
ATOM      7  O   UNL     1      -0.328  13.172  19.865  0.00  0.00    +0.000 OA
ATOM      8  N   UNL     1      -0.374  11.579  21.552  0.00  0.00    +0.000 N 
ATOM      9  C   UNL     1      -0.835  11.119  22.874  0.00  0.00    +0.000 C 
ATOM     10  C   UNL     1      -0.259   9.722  23.107  0.00  0.00    +0.000 C 
ATOM     11  C   UNL     1       0.345   9.416  21.776  0.00  0.00    +0.000 A 
ATOM     12  C   UNL     1       0.944   8.228  21.391  0.00  0.00    +0.000 A 
ATOM     13  C   UNL     1       1.527   8.143  20.119  0.00  0.00    +0.000 A 
ATOM     14  C   UNL     1       1.484   9.249  19.249  0.00  0.00    +0.000 A 
ATOM     15  C   UNL     1       0.858  10.442  19.651  0.00  0.00    +0.000 A 
ATOM     16  C   UNL     1       0.291  10.512  20.918  0.00  0.00    +0.000 A 
ENDBRANCH   1  13
BRANCH   3  17
ATOM     17  C   UNL     1       3.136   5.514  17.878  0.00  0.00    +0.000 A 
ATOM     18  C   UNL     1       2.425   4.318  17.705  0.00  0.00    +0.000 A 
ATOM     19  C   UNL     1       3.046   3.183  17.193  0.00  0.00    +0.000 A 
ATOM     20  C   UNL     1       4.385   3.239  16.837  0.00  0.00    +0.000 A 
ATOM     21  C   UNL     1       5.107   4.432  16.989  0.00  0.00    +0.000 A 
ATOM     22  C   UNL     1       6.457   4.485  16.634  0.00  0.00    +0.000 A 
ATOM     23  C   UNL     1       7.168   5.662  16.810  0.00  0.00    +0.000 A 
ATOM     24  C   UNL     1       6.513   6.764  17.335  0.00  0.00    +0.000 A 
ATOM     25  C   UNL     1       7.254   8.047  17.563  0.00  0.00    +0.000 C 
ATOM     26  N   UNL     1       5.196   6.745  17.676  0.00  0.00    +0.000 NA
ATOM     27  C   UNL     1       4.494   5.597  17.512  0.00  0.00    +0.000 A 
ENDBRANCH   3  17
TORSDOF 2
ENDMDL
MODEL 5
REMARK VINA RESULT:      -8.7      2.378      8.452
REMARK  Name = 
REMARK  4 active torsions:
REMARK  status: ('A' for Active; 'I' for Inactive)
REMARK    1  A    between atoms: C_1  and  C_2
REMARK    2  A    between atoms: C_9  and  C_10
REMARK    3  A    between atoms: N_12  and  C_13
REMARK    4  A    between atoms: C_20  and  C_21
REMARK                            x       y       z     vdW  Elec       q    Type
REMARK                         _______ _______ _______ _____ _____    ______ ____
ROOT
ATOM      1  C   UNL     1       1.378   8.619  19.947  0.00  0.00    +0.000 C 
ATOM      2  O   UNL     1       1.054   8.162  21.040  0.00  0.00    +0.000 OA
ATOM      3  N   UNL     1       0.961   9.823  19.413  0.00  0.00    +0.000 N 
ATOM      4  H   UNL     1       1.108  10.016  18.425  0.00  0.00    +0.000 HD
ENDROOT
BRANCH   1  13
ATOM      5  C   UNL     1       6.198   3.851  15.571  0.00  0.00    +0.000 C 
ATOM      6  C   UNL     1       5.483   5.130  15.950  0.00  0.00    +0.000 C 
ATOM      7  O   UNL     1       5.559   6.112  15.215  0.00  0.00    +0.000 OA
ATOM      8  N   UNL     1       4.752   5.065  17.122  0.00  0.00    +0.000 N 
ATOM      9  C   UNL     1       4.756   3.934  18.068  0.00  0.00    +0.000 C 
ATOM     10  C   UNL     1       3.742   4.246  19.169  0.00  0.00    +0.000 C 
ATOM     11  C   UNL     1       3.371   5.657  18.851  0.00  0.00    +0.000 A 
ATOM     12  C   UNL     1       2.532   6.479  19.584  0.00  0.00    +0.000 A 
ATOM     13  C   UNL     1       2.236   7.759  19.094  0.00  0.00    +0.000 A 
ATOM     14  C   UNL     1       2.802   8.196  17.882  0.00  0.00    +0.000 A 
ATOM     15  C   UNL     1       3.665   7.354  17.158  0.00  0.00    +0.000 A 
ATOM     16  C   UNL     1       3.941   6.086  17.654  0.00  0.00    +0.000 A 
ENDBRANCH   1  13
BRANCH   3  17
ATOM     17  C   UNL     1       0.106  10.767  20.060  0.00  0.00    +0.000 A 
ATOM     18  C   UNL     1       0.477  11.406  21.252  0.00  0.00    +0.000 A 
ATOM     19  C   UNL     1      -0.381  12.302  21.880  0.00  0.00    +0.000 A 
ATOM     20  C   UNL     1      -1.616  12.579  21.313  0.00  0.00    +0.000 A 
ATOM     21  C   UNL     1      -1.996  11.960  20.113  0.00  0.00    +0.000 A 
ATOM     22  C   UNL     1      -3.242  12.237  19.546  0.00  0.00    +0.000 A 
ATOM     23  C   UNL     1      -3.618  11.603  18.372  0.00  0.00    +0.000 A 
ATOM     24  C   UNL     1      -2.737  10.708  17.785  0.00  0.00    +0.000 A 
ATOM     25  C   UNL     1      -3.118   9.985  16.529  0.00  0.00    +0.000 C 
ATOM     26  N   UNL     1      -1.512  10.431  18.308  0.00  0.00    +0.000 NA
ATOM     27  C   UNL     1      -1.137  11.042  19.459  0.00  0.00    +0.000 A 
ENDBRANCH   3  17
TORSDOF 2
ENDMDL
MODEL 6
REMARK VINA RESULT:      -8.5      1.856      3.561
REMARK  Name = 
REMARK  4 active torsions:
REMARK  status: ('A' for Active; 'I' for Inactive)
REMARK    1  A    between atoms: C_1  and  C_2
REMARK    2  A    between atoms: C_9  and  C_10
REMARK    3  A    between atoms: N_12  and  C_13
REMARK    4  A    between atoms: C_20  and  C_21
REMARK                            x       y       z     vdW  Elec       q    Type
REMARK                         _______ _______ _______ _____ _____    ______ ____
ROOT
ATOM      1  C   UNL     1       2.064   6.777  19.763  0.00  0.00    +0.000 C 
ATOM      2  O   UNL     1       2.135   5.919  20.639  0.00  0.00    +0.000 OA
ATOM      3  N   UNL     1       2.526   6.657  18.467  0.00  0.00    +0.000 N 
ATOM      4  H   UNL     1       2.616   7.486  17.883  0.00  0.00    +0.000 HD
ENDROOT
BRANCH   1  13
ATOM      5  C   UNL     1      -0.776  14.054  21.791  0.00  0.00    +0.000 C 
ATOM      6  C   UNL     1      -0.356  12.617  22.011  0.00  0.00    +0.000 C 
ATOM      7  O   UNL     1      -0.532  12.091  23.108  0.00  0.00    +0.000 OA
ATOM      8  N   UNL     1       0.183  11.989  20.903  0.00  0.00    +0.000 N 
ATOM      9  C   UNL     1       0.510  12.648  19.625  0.00  0.00    +0.000 C 
ATOM     10  C   UNL     1       0.993  11.567  18.656  0.00  0.00    +0.000 C 
ATOM     11  C   UNL     1       1.083  10.375  19.550  0.00  0.00    +0.000 A 
ATOM     12  C   UNL     1       1.552   9.118  19.209  0.00  0.00    +0.000 A 
ATOM     13  C   UNL     1       1.495   8.090  20.162  0.00  0.00    +0.000 A 
ATOM     14  C   UNL     1       0.982   8.349  21.446  0.00  0.00    +0.000 A 
ATOM     15  C   UNL     1       0.525   9.636  21.780  0.00  0.00    +0.000 A 
ATOM     16  C   UNL     1       0.582  10.641  20.822  0.00  0.00    +0.000 A 
ENDBRANCH   1  13
BRANCH   3  17
ATOM     17  C   UNL     1       3.137   5.494  17.907  0.00  0.00    +0.000 A 
ATOM     18  C   UNL     1       2.430   4.295  17.739  0.00  0.00    +0.000 A 
ATOM     19  C   UNL     1       3.052   3.165  17.217  0.00  0.00    +0.000 A 
ATOM     20  C   UNL     1       4.385   3.229  16.844  0.00  0.00    +0.000 A 
ATOM     21  C   UNL     1       5.103   4.425  16.991  0.00  0.00    +0.000 A 
ATOM     22  C   UNL     1       6.448   4.486  16.619  0.00  0.00    +0.000 A 
ATOM     23  C   UNL     1       7.155   5.666  16.790  0.00  0.00    +0.000 A 
ATOM     24  C   UNL     1       6.500   6.764  17.325  0.00  0.00    +0.000 A 
ATOM     25  C   UNL     1       7.238   8.050  17.547  0.00  0.00    +0.000 C 
ATOM     26  N   UNL     1       5.188   6.737  17.682  0.00  0.00    +0.000 NA
ATOM     27  C   UNL     1       4.490   5.586  17.523  0.00  0.00    +0.000 A 
ENDBRANCH   3  17
TORSDOF 2
ENDMDL
MODEL 7
REMARK VINA RESULT:      -8.5      1.090      1.149
REMARK  Name = 
REMARK  4 active torsions:
REMARK  status: ('A' for Active; 'I' for Inactive)
REMARK    1  A    between atoms: C_1  and  C_2
REMARK    2  A    between atoms: C_9  and  C_10
REMARK    3  A    between atoms: N_12  and  C_13
REMARK    4  A    between atoms: C_20  and  C_21
REMARK                            x       y       z     vdW  Elec       q    Type
REMARK                         _______ _______ _______ _____ _____    ______ ____
ROOT
ATOM      1  C   UNL     1       2.382   7.286  19.561  0.00  0.00    +0.000 C 
ATOM      2  O   UNL     1       2.823   6.543  20.433  0.00  0.00    +0.000 OA
ATOM      3  N   UNL     1       2.685   7.231  18.215  0.00  0.00    +0.000 N 
ATOM      4  H   UNL     1       2.443   8.013  17.609  0.00  0.00    +0.000 HD
ENDROOT
BRANCH   1  13
ATOM      5  C   UNL     1      -2.568  13.090  22.195  0.00  0.00    +0.000 C 
ATOM      6  C   UNL     1      -1.807  12.272  21.175  0.00  0.00    +0.000 C 
ATOM      7  O   UNL     1      -1.834  12.597  19.989  0.00  0.00    +0.000 OA
ATOM      8  N   UNL     1      -1.095  11.207  21.694  0.00  0.00    +0.000 N 
ATOM      9  C   UNL     1      -1.157  10.739  23.090  0.00  0.00    +0.000 C 
ATOM     10  C   UNL     1      -0.145   9.602  23.245  0.00  0.00    +0.000 C 
ATOM     11  C   UNL     1       0.286   9.384  21.832  0.00  0.00    +0.000 A 
ATOM     12  C   UNL     1       1.147   8.403  21.371  0.00  0.00    +0.000 A 
ATOM     13  C   UNL     1       1.501   8.394  20.014  0.00  0.00    +0.000 A 
ATOM     14  C   UNL     1       0.969   9.361  19.141  0.00  0.00    +0.000 A 
ATOM     15  C   UNL     1       0.083  10.340  19.624  0.00  0.00    +0.000 A 
ATOM     16  C   UNL     1      -0.251  10.340  20.972  0.00  0.00    +0.000 A 
ENDBRANCH   1  13
BRANCH   3  17
ATOM     17  C   UNL     1       3.540   6.270  17.594  0.00  0.00    +0.000 A 
ATOM     18  C   UNL     1       4.701   6.649  16.904  0.00  0.00    +0.000 A 
ATOM     19  C   UNL     1       5.506   5.699  16.283  0.00  0.00    +0.000 A 
ATOM     20  C   UNL     1       5.164   4.358  16.359  0.00  0.00    +0.000 A 
ATOM     21  C   UNL     1       4.015   3.961  17.058  0.00  0.00    +0.000 A 
ATOM     22  C   UNL     1       3.670   2.609  17.129  0.00  0.00    +0.000 A 
ATOM     23  C   UNL     1       2.520   2.228  17.802  0.00  0.00    +0.000 A 
ATOM     24  C   UNL     1       1.739   3.208  18.396  0.00  0.00    +0.000 A 
ATOM     25  C   UNL     1       0.475   2.837  19.112  0.00  0.00    +0.000 C 
ATOM     26  N   UNL     1       2.059   4.529  18.355  0.00  0.00    +0.000 NA
ATOM     27  C   UNL     1       3.180   4.912  17.694  0.00  0.00    +0.000 A 
ENDBRANCH   3  17
TORSDOF 2
ENDMDL
MODEL 8
REMARK VINA RESULT:      -8.4      1.378      2.927
REMARK  Name = 
REMARK  4 active torsions:
REMARK  status: ('A' for Active; 'I' for Inactive)
REMARK    1  A    between atoms: C_1  and  C_2
REMARK    2  A    between atoms: C_9  and  C_10
REMARK    3  A    between atoms: N_12  and  C_13
REMARK    4  A    between atoms: C_20  and  C_21
REMARK                            x       y       z     vdW  Elec       q    Type
REMARK                         _______ _______ _______ _____ _____    ______ ____
ROOT
ATOM      1  C   UNL     1       2.301   7.981  18.153  0.00  0.00    +0.000 C 
ATOM      2  O   UNL     1       2.420   8.282  16.968  0.00  0.00    +0.000 OA
ATOM      3  N   UNL     1       2.600   6.755  18.715  0.00  0.00    +0.000 N 
ATOM      4  H   UNL     1       2.270   6.534  19.652  0.00  0.00    +0.000 HD
ENDROOT
BRANCH   1  13
ATOM      5  C   UNL     1      -1.156  13.361  23.075  0.00  0.00    +0.000 C 
ATOM      6  C   UNL     1      -0.543  12.848  21.790  0.00  0.00    +0.000 C 
ATOM      7  O   UNL     1      -0.365  13.619  20.849  0.00  0.00    +0.000 OA
ATOM      8  N   UNL     1      -0.197  11.510  21.801  0.00  0.00    +0.000 N 
ATOM      9  C   UNL     1      -0.520  10.555  22.876  0.00  0.00    +0.000 C 
ATOM     10  C   UNL     1       0.130   9.217  22.521  0.00  0.00    +0.000 C 
ATOM     11  C   UNL     1       0.626   9.478  21.137  0.00  0.00    +0.000 A 
ATOM     12  C   UNL     1       1.236   8.568  20.290  0.00  0.00    +0.000 A 
ATOM     13  C   UNL     1       1.707   9.009  19.045  0.00  0.00    +0.000 A 
ATOM     14  C   UNL     1       1.542  10.355  18.667  0.00  0.00    +0.000 A 
ATOM     15  C   UNL     1       0.906  11.262  19.533  0.00  0.00    +0.000 A 
ATOM     16  C   UNL     1       0.452  10.810  20.766  0.00  0.00    +0.000 A 
ENDBRANCH   1  13
BRANCH   3  17
ATOM     17  C   UNL     1       3.139   5.631  18.018  0.00  0.00    +0.000 A 
ATOM     18  C   UNL     1       2.384   4.471  17.788  0.00  0.00    +0.000 A 
ATOM     19  C   UNL     1       2.936   3.377  17.131  0.00  0.00    +0.000 A 
ATOM     20  C   UNL     1       4.247   3.437  16.685  0.00  0.00    +0.000 A 
ATOM     21  C   UNL     1       5.011   4.594  16.892  0.00  0.00    +0.000 A 
ATOM     22  C   UNL     1       6.333   4.651  16.446  0.00  0.00    +0.000 A 
ATOM     23  C   UNL     1       7.088   5.791  16.676  0.00  0.00    +0.000 A 
ATOM     24  C   UNL     1       6.502   6.854  17.346  0.00  0.00    +0.000 A 
ATOM     25  C   UNL     1       7.294   8.094  17.635  0.00  0.00    +0.000 C 
ATOM     26  N   UNL     1       5.213   6.831  17.779  0.00  0.00    +0.000 NA
ATOM     27  C   UNL     1       4.469   5.719  17.562  0.00  0.00    +0.000 A 
ENDBRANCH   3  17
TORSDOF 2
ENDMDL
MODEL 9
REMARK VINA RESULT:      -8.4      2.390      8.616
REMARK  Name = 
REMARK  4 active torsions:
REMARK  status: ('A' for Active; 'I' for Inactive)
REMARK    1  A    between atoms: C_1  and  C_2
REMARK    2  A    between atoms: C_9  and  C_10
REMARK    3  A    between atoms: N_12  and  C_13
REMARK    4  A    between atoms: C_20  and  C_21
REMARK                            x       y       z     vdW  Elec       q    Type
REMARK                         _______ _______ _______ _____ _____    ______ ____
ROOT
ATOM      1  C   UNL     1       1.679   7.375  20.272  0.00  0.00    +0.000 C 
ATOM      2  O   UNL     1       1.299   6.593  21.140  0.00  0.00    +0.000 OA
ATOM      3  N   UNL     1       1.369   8.719  20.195  0.00  0.00    +0.000 N 
ATOM      4  H   UNL     1       1.549   9.231  19.334  0.00  0.00    +0.000 HD
ENDROOT
BRANCH   1  13
ATOM      5  C   UNL     1       6.177   4.043  14.459  0.00  0.00    +0.000 C 
ATOM      6  C   UNL     1       5.584   5.164  15.285  0.00  0.00    +0.000 C 
ATOM      7  O   UNL     1       5.803   6.333  14.974  0.00  0.00    +0.000 OA
ATOM      8  N   UNL     1       4.792   4.755  16.342  0.00  0.00    +0.000 N 
ATOM      9  C   UNL     1       4.627   3.361  16.794  0.00  0.00    +0.000 C 
ATOM     10  C   UNL     1       3.597   3.359  17.925  0.00  0.00    +0.000 C 
ATOM     11  C   UNL     1       3.396   4.820  18.157  0.00  0.00    +0.000 A 
ATOM     12  C   UNL     1       2.614   5.403  19.140  0.00  0.00    +0.000 A 
ATOM     13  C   UNL     1       2.482   6.799  19.163  0.00  0.00    +0.000 A 
ATOM     14  C   UNL     1       3.152   7.585  18.208  0.00  0.00    +0.000 A 
ATOM     15  C   UNL     1       3.956   6.977  17.227  0.00  0.00    +0.000 A 
ATOM     16  C   UNL     1       4.070   5.593  17.214  0.00  0.00    +0.000 A 
ENDBRANCH   1  13
BRANCH   3  17
ATOM     17  C   UNL     1       0.579   9.445  21.138  0.00  0.00    +0.000 A 
ATOM     18  C   UNL     1       0.700   9.237  22.520  0.00  0.00    +0.000 A 
ATOM     19  C   UNL     1      -0.098   9.935  23.421  0.00  0.00    +0.000 A 
ATOM     20  C   UNL     1      -1.016  10.859  22.947  0.00  0.00    +0.000 A 
ATOM     21  C   UNL     1      -1.138  11.090  21.569  0.00  0.00    +0.000 A 
ATOM     22  C   UNL     1      -2.067  12.019  21.094  0.00  0.00    +0.000 A 
ATOM     23  C   UNL     1      -2.197  12.224  19.729  0.00  0.00    +0.000 A 
ATOM     24  C   UNL     1      -1.391  11.498  18.867  0.00  0.00    +0.000 A 
ATOM     25  C   UNL     1      -1.520  11.674  17.383  0.00  0.00    +0.000 C 
ATOM     26  N   UNL     1      -0.469  10.599  19.302  0.00  0.00    +0.000 NA
ATOM     27  C   UNL     1      -0.338  10.388  20.635  0.00  0.00    +0.000 A 
ENDBRANCH   3  17
TORSDOF 2
ENDMDL
