MODEL 1
REMARK VINA RESULT:      -8.9      0.000      0.000
REMARK  Name = 
REMARK  4 active torsions:
REMARK  status: ('A' for Active; 'I' for Inactive)
REMARK    1  A    between atoms: C_1  and  C_2
REMARK    2  A    between atoms: C_7  and  C_8
REMARK    3  A    between atoms: C_8  and  N_9
REMARK    4  A    between atoms: C_13  and  C_14
REMARK                            x       y       z     vdW  Elec       q    Type
REMARK                         _______ _______ _______ _____ _____    ______ ____
ROOT
ATOM      1  N   UNL     1       2.855   6.371  19.659  0.00  0.00    +0.000 NA
ATOM      2  C   UNL     1       2.068   5.131  19.773  0.00  0.00    +0.000 C 
ATOM      3  C   UNL     1       2.899   3.933  20.229  0.00  0.00    +0.000 C 
ATOM      4  C   UNL     1       4.086   3.699  19.307  0.00  0.00    +0.000 C 
ATOM      5  C   UNL     1       4.955   4.958  19.229  0.00  0.00    +0.000 C 
ATOM      6  C   UNL     1       4.093   6.190  18.865  0.00  0.00    +0.000 C 
ENDROOT
BRANCH   5   7
ATOM      7  C   UNL     1       6.042   4.772  18.212  0.00  0.00    +0.000 A 
ATOM      8  N   UNL     1       7.319   4.504  18.458  0.00  0.00    +0.000 NA
ATOM      9  N   UNL     1       7.992   4.354  17.251  0.00  0.00    +0.000 NA
ATOM     10  C   UNL     1       7.107   4.545  16.314  0.00  0.00    +0.000 A 
ATOM     11  N   UNL     1       5.903   4.833  16.872  0.00  0.00    +0.000 N 
ATOM     12  C   UNL     1       4.865   5.040  15.890  0.00  0.00    +0.000 C 
ATOM     13  C   UNL     1       5.508   4.444  14.618  0.00  0.00    +0.000 C 
ATOM     14  C   UNL     1       7.040   4.501  14.846  0.00  0.00    +0.000 C 
ENDBRANCH   5   7
BRANCH   1  15
ATOM     15  C   UNL     1       2.035   7.427  19.014  0.00  0.00    +0.000 C 
BRANCH  15  22
ATOM     16  C   UNL     1      -1.308  13.249  23.258  0.00  0.00    +0.000 C 
ATOM     17  C   UNL     1      -0.757  12.337  22.207  0.00  0.00    +0.000 A 
ATOM     18  C   UNL     1      -0.784  12.674  20.860  0.00  0.00    +0.000 A 
ATOM     19  C   UNL     1      -0.241  11.784  19.938  0.00  0.00    +0.000 A 
ATOM     20  C   UNL     1       0.321  10.576  20.382  0.00  0.00    +0.000 A 
ATOM     21  C   UNL     1       0.892   9.641  19.491  0.00  0.00    +0.000 A 
ATOM     22  C   UNL     1       1.449   8.447  19.969  0.00  0.00    +0.000 A 
ATOM     23  C   UNL     1       1.416   8.198  21.344  0.00  0.00    +0.000 A 
ATOM     24  C   UNL     1       0.847   9.128  22.219  0.00  0.00    +0.000 A 
ATOM     25  C   UNL     1       0.299  10.320  21.763  0.00  0.00    +0.000 A 
ATOM     26  N   UNL     1      -0.228  11.174  22.654  0.00  0.00    +0.000 NA
ENDBRANCH  15  22
ENDBRANCH   1  15
TORSDOF 3
ENDMDL
MODEL 2
REMARK VINA RESULT:      -8.7      1.073      1.728
REMARK  Name = 
REMARK  4 active torsions:
REMARK  status: ('A' for Active; 'I' for Inactive)
REMARK    1  A    between atoms: C_1  and  C_2
REMARK    2  A    between atoms: C_7  and  C_8
REMARK    3  A    between atoms: C_8  and  N_9
REMARK    4  A    between atoms: C_13  and  C_14
REMARK                            x       y       z     vdW  Elec       q    Type
REMARK                         _______ _______ _______ _____ _____    ______ ____
ROOT
ATOM      1  N   UNL     1       2.773   6.857  18.661  0.00  0.00    +0.000 NA
ATOM      2  C   UNL     1       1.801   5.767  18.474  0.00  0.00    +0.000 C 
ATOM      3  C   UNL     1       2.333   4.405  18.919  0.00  0.00    +0.000 C 
ATOM      4  C   UNL     1       3.630   4.058  18.203  0.00  0.00    +0.000 C 
ATOM      5  C   UNL     1       4.678   5.149  18.442  0.00  0.00    +0.000 C 
ATOM      6  C   UNL     1       4.102   6.541  18.086  0.00  0.00    +0.000 C 
ENDROOT
BRANCH   5   7
ATOM      7  C   UNL     1       5.904   4.875  17.623  0.00  0.00    +0.000 A 
ATOM      8  N   UNL     1       7.104   4.539  18.081  0.00  0.00    +0.000 NA
ATOM      9  N   UNL     1       7.957   4.320  17.004  0.00  0.00    +0.000 NA
ATOM     10  C   UNL     1       7.252   4.541  15.932  0.00  0.00    +0.000 A 
ATOM     11  N   UNL     1       5.992   4.912  16.277  0.00  0.00    +0.000 N 
ATOM     12  C   UNL     1       5.146   5.157  15.134  0.00  0.00    +0.000 C 
ATOM     13  C   UNL     1       5.951   4.494  13.995  0.00  0.00    +0.000 C 
ATOM     14  C   UNL     1       7.425   4.466  14.474  0.00  0.00    +0.000 C 
ENDBRANCH   5   7
BRANCH   1  15
ATOM     15  C   UNL     1       2.268   8.095  18.016  0.00  0.00    +0.000 C 
BRANCH  15  22
ATOM     16  C   UNL     1      -2.152  12.030  23.314  0.00  0.00    +0.000 C 
ATOM     17  C   UNL     1      -1.222  11.121  22.574  0.00  0.00    +0.000 A 
ATOM     18  C   UNL     1      -0.525  10.106  23.216  0.00  0.00    +0.000 A 
ATOM     19  C   UNL     1       0.311   9.288  22.463  0.00  0.00    +0.000 A 
ATOM     20  C   UNL     1       0.433   9.502  21.080  0.00  0.00    +0.000 A 
ATOM     21  C   UNL     1       1.262   8.698  20.265  0.00  0.00    +0.000 A 
ATOM     22  C   UNL     1       1.356   8.936  18.887  0.00  0.00    +0.000 A 
ATOM     23  C   UNL     1       0.622   9.992  18.340  0.00  0.00    +0.000 A 
ATOM     24  C   UNL     1      -0.195  10.783  19.153  0.00  0.00    +0.000 A 
ATOM     25  C   UNL     1      -0.307  10.556  20.518  0.00  0.00    +0.000 A 
ATOM     26  N   UNL     1      -1.111  11.348  21.244  0.00  0.00    +0.000 NA
ENDBRANCH  15  22
ENDBRANCH   1  15
TORSDOF 3
ENDMDL
MODEL 3
REMARK VINA RESULT:      -8.5      3.451      9.597
REMARK  Name = 
REMARK  4 active torsions:
REMARK  status: ('A' for Active; 'I' for Inactive)
REMARK    1  A    between atoms: C_1  and  C_2
REMARK    2  A    between atoms: C_7  and  C_8
REMARK    3  A    between atoms: C_8  and  N_9
REMARK    4  A    between atoms: C_13  and  C_14
REMARK                            x       y       z     vdW  Elec       q    Type
REMARK                         _______ _______ _______ _____ _____    ______ ____
ROOT
ATOM      1  N   UNL     1       0.942  10.426  18.819  0.00  0.00    +0.000 NA
ATOM      2  C   UNL     1       1.445  11.795  19.024  0.00  0.00    +0.000 C 
ATOM      3  C   UNL     1       0.440  12.705  19.728  0.00  0.00    +0.000 C 
ATOM      4  C   UNL     1      -0.881  12.756  18.975  0.00  0.00    +0.000 C 
ATOM      5  C   UNL     1      -1.455  11.346  18.810  0.00  0.00    +0.000 C 
ATOM      6  C   UNL     1      -0.399  10.399  18.189  0.00  0.00    +0.000 C 
ENDROOT
BRANCH   5   7
ATOM      7  C   UNL     1      -2.681  11.385  17.947  0.00  0.00    +0.000 A 
ATOM      8  N   UNL     1      -2.765  11.020  16.673  0.00  0.00    +0.000 NA
ATOM      9  N   UNL     1      -4.081  11.156  16.247  0.00  0.00    +0.000 NA
ATOM     10  C   UNL     1      -4.749  11.609  17.269  0.00  0.00    +0.000 A 
ATOM     11  N   UNL     1      -3.912  11.788  18.323  0.00  0.00    +0.000 N 
ATOM     12  C   UNL     1      -4.589  12.274  19.502  0.00  0.00    +0.000 C 
ATOM     13  C   UNL     1      -6.068  11.997  19.155  0.00  0.00    +0.000 C 
ATOM     14  C   UNL     1      -6.141  11.940  17.607  0.00  0.00    +0.000 C 
ENDBRANCH   5   7
BRANCH   1  15
ATOM     15  C   UNL     1       1.881   9.671  17.951  0.00  0.00    +0.000 C 
BRANCH  15  22
ATOM     16  C   UNL     1       4.331   2.360  19.855  0.00  0.00    +0.000 C 
ATOM     17  C   UNL     1       4.041   3.687  19.228  0.00  0.00    +0.000 A 
ATOM     18  C   UNL     1       4.515   4.020  17.966  0.00  0.00    +0.000 A 
ATOM     19  C   UNL     1       4.194   5.266  17.437  0.00  0.00    +0.000 A 
ATOM     20  C   UNL     1       3.403   6.156  18.182  0.00  0.00    +0.000 A 
ATOM     21  C   UNL     1       3.041   7.431  17.692  0.00  0.00    +0.000 A 
ATOM     22  C   UNL     1       2.246   8.292  18.461  0.00  0.00    +0.000 A 
ATOM     23  C   UNL     1       1.829   7.866  19.725  0.00  0.00    +0.000 A 
ATOM     24  C   UNL     1       2.193   6.604  20.203  0.00  0.00    +0.000 A 
ATOM     25  C   UNL     1       2.973   5.735  19.452  0.00  0.00    +0.000 A 
ATOM     26  N   UNL     1       3.284   4.535  19.964  0.00  0.00    +0.000 NA
ENDBRANCH  15  22
ENDBRANCH   1  15
TORSDOF 3
ENDMDL
MODEL 4
REMARK VINA RESULT:      -8.5      1.633      2.050
REMARK  Name = 
REMARK  4 active torsions:
REMARK  status: ('A' for Active; 'I' for Inactive)
REMARK    1  A    between atoms: C_1  and  C_2
REMARK    2  A    between atoms: C_7  and  C_8
REMARK    3  A    between atoms: C_8  and  N_9
REMARK    4  A    between atoms: C_13  and  C_14
REMARK                            x       y       z     vdW  Elec       q    Type
REMARK                         _______ _______ _______ _____ _____    ______ ____
ROOT
ATOM      1  N   UNL     1       3.448   6.640  17.831  0.00  0.00    +0.000 NA
ATOM      2  C   UNL     1       2.605   5.433  17.804  0.00  0.00    +0.000 C 
ATOM      3  C   UNL     1       3.410   4.137  17.880  0.00  0.00    +0.000 C 
ATOM      4  C   UNL     1       4.443   4.060  16.765  0.00  0.00    +0.000 C 
ATOM      5  C   UNL     1       5.374   5.276  16.819  0.00  0.00    +0.000 C 
ATOM      6  C   UNL     1       4.552   6.587  16.844  0.00  0.00    +0.000 C 
ENDROOT
BRANCH   5   7
ATOM      7  C   UNL     1       6.298   5.270  15.637  0.00  0.00    +0.000 A 
ATOM      8  N   UNL     1       7.520   5.787  15.584  0.00  0.00    +0.000 NA
ATOM      9  N   UNL     1       8.068   5.531  14.333  0.00  0.00    +0.000 NA
ATOM     10  C   UNL     1       7.160   4.877  13.665  0.00  0.00    +0.000 A 
ATOM     11  N   UNL     1       6.048   4.725  14.429  0.00  0.00    +0.000 N 
ATOM     12  C   UNL     1       5.002   3.992  13.757  0.00  0.00    +0.000 C 
ATOM     13  C   UNL     1       5.770   3.348  12.582  0.00  0.00    +0.000 C 
ATOM     14  C   UNL     1       7.019   4.237  12.349  0.00  0.00    +0.000 C 
ENDBRANCH   5   7
BRANCH   1  15
ATOM     15  C   UNL     1       2.620   7.838  17.541  0.00  0.00    +0.000 C 
BRANCH  15  22
ATOM     16  C   UNL     1      -1.610  11.429  23.225  0.00  0.00    +0.000 C 
ATOM     17  C   UNL     1      -0.940  10.980  21.964  0.00  0.00    +0.000 A 
ATOM     18  C   UNL     1      -1.098  11.666  20.767  0.00  0.00    +0.000 A 
ATOM     19  C   UNL     1      -0.433  11.201  19.637  0.00  0.00    +0.000 A 
ATOM     20  C   UNL     1       0.379  10.058  19.727  0.00  0.00    +0.000 A 
ATOM     21  C   UNL     1       1.083   9.546  18.614  0.00  0.00    +0.000 A 
ATOM     22  C   UNL     1       1.888   8.407  18.740  0.00  0.00    +0.000 A 
ATOM     23  C   UNL     1       1.972   7.783  19.988  0.00  0.00    +0.000 A 
ATOM     24  C   UNL     1       1.271   8.294  21.084  0.00  0.00    +0.000 A 
ATOM     25  C   UNL     1       0.475   9.428  20.979  0.00  0.00    +0.000 A 
ATOM     26  N   UNL     1      -0.168   9.872  22.069  0.00  0.00    +0.000 NA
ENDBRANCH  15  22
ENDBRANCH   1  15
TORSDOF 3
ENDMDL
MODEL 5
REMARK VINA RESULT:      -8.4      3.501      9.465
REMARK  Name = 
REMARK  4 active torsions:
REMARK  status: ('A' for Active; 'I' for Inactive)
REMARK    1  A    between atoms: C_1  and  C_2
REMARK    2  A    between atoms: C_7  and  C_8
REMARK    3  A    between atoms: C_8  and  N_9
REMARK    4  A    between atoms: C_13  and  C_14
REMARK                            x       y       z     vdW  Elec       q    Type
REMARK                         _______ _______ _______ _____ _____    ______ ____
ROOT
ATOM      1  N   UNL     1       0.871   9.936  18.787  0.00  0.00    +0.000 NA
ATOM      2  C   UNL     1       1.280  11.180  19.459  0.00  0.00    +0.000 C 
ATOM      3  C   UNL     1       0.154  11.824  20.267  0.00  0.00    +0.000 C 
ATOM      4  C   UNL     1      -1.066  12.093  19.398  0.00  0.00    +0.000 C 
ATOM      5  C   UNL     1      -1.548  10.796  18.743  0.00  0.00    +0.000 C 
ATOM      6  C   UNL     1      -0.381  10.092  18.009  0.00  0.00    +0.000 C 
ENDROOT
BRANCH   5   7
ATOM      7  C   UNL     1      -2.660  11.087  17.779  0.00  0.00    +0.000 A 
ATOM      8  N   UNL     1      -2.659  10.849  16.473  0.00  0.00    +0.000 NA
ATOM      9  N   UNL     1      -3.893  11.211  15.944  0.00  0.00    +0.000 NA
ATOM     10  C   UNL     1      -4.596  11.667  16.941  0.00  0.00    +0.000 A 
ATOM     11  N   UNL     1      -3.858  11.631  18.080  0.00  0.00    +0.000 N 
ATOM     12  C   UNL     1      -4.582  12.106  19.234  0.00  0.00    +0.000 C 
ATOM     13  C   UNL     1      -6.040  12.078  18.728  0.00  0.00    +0.000 C 
ATOM     14  C   UNL     1      -5.958  12.166  17.181  0.00  0.00    +0.000 C 
ENDBRANCH   5   7
BRANCH   1  15
ATOM     15  C   UNL     1       1.943   9.490  17.862  0.00  0.00    +0.000 C 
BRANCH  15  22
ATOM     16  C   UNL     1       4.274   2.239  20.117  0.00  0.00    +0.000 C 
ATOM     17  C   UNL     1       3.609   3.565  19.919  0.00  0.00    +0.000 A 
ATOM     18  C   UNL     1       2.539   3.972  20.705  0.00  0.00    +0.000 A 
ATOM     19  C   UNL     1       1.979   5.225  20.475  0.00  0.00    +0.000 A 
ATOM     20  C   UNL     1       2.500   6.047  19.463  0.00  0.00    +0.000 A 
ATOM     21  C   UNL     1       1.975   7.330  19.191  0.00  0.00    +0.000 A 
ATOM     22  C   UNL     1       2.524   8.126  18.176  0.00  0.00    +0.000 A 
ATOM     23  C   UNL     1       3.593   7.618  17.434  0.00  0.00    +0.000 A 
ATOM     24  C   UNL     1       4.106   6.347  17.707  0.00  0.00    +0.000 A 
ATOM     25  C   UNL     1       3.581   5.548  18.715  0.00  0.00    +0.000 A 
ATOM     26  N   UNL     1       4.120   4.340  18.933  0.00  0.00    +0.000 NA
ENDBRANCH  15  22
ENDBRANCH   1  15
TORSDOF 3
ENDMDL
MODEL 6
REMARK VINA RESULT:      -8.2      5.218      7.409
REMARK  Name = 
REMARK  4 active torsions:
REMARK  status: ('A' for Active; 'I' for Inactive)
REMARK    1  A    between atoms: C_1  and  C_2
REMARK    2  A    between atoms: C_7  and  C_8
REMARK    3  A    between atoms: C_8  and  N_9
REMARK    4  A    between atoms: C_13  and  C_14
REMARK                            x       y       z     vdW  Elec       q    Type
REMARK                         _______ _______ _______ _____ _____    ______ ____
ROOT
ATOM      1  N   UNL     1       6.769   6.887  17.747  0.00  0.00    +0.000 NA
ATOM      2  C   UNL     1       6.974   6.344  16.394  0.00  0.00    +0.000 C 
ATOM      3  C   UNL     1       5.708   5.737  15.792  0.00  0.00    +0.000 C 
ATOM      4  C   UNL     1       5.132   4.654  16.692  0.00  0.00    +0.000 C 
ATOM      5  C   UNL     1       4.848   5.217  18.088  0.00  0.00    +0.000 C 
ATOM      6  C   UNL     1       6.105   5.922  18.654  0.00  0.00    +0.000 C 
ENDROOT
BRANCH   5   7
ATOM      7  C   UNL     1       4.416   4.117  19.010  0.00  0.00    +0.000 A 
ATOM      8  N   UNL     1       5.193   3.188  19.555  0.00  0.00    +0.000 NA
ATOM      9  N   UNL     1       4.424   2.384  20.389  0.00  0.00    +0.000 NA
ATOM     10  C   UNL     1       3.207   2.843  20.315  0.00  0.00    +0.000 A 
ATOM     11  N   UNL     1       3.161   3.891  19.453  0.00  0.00    +0.000 N 
ATOM     12  C   UNL     1       1.842   4.463  19.334  0.00  0.00    +0.000 C 
ATOM     13  C   UNL     1       1.125   3.867  20.566  0.00  0.00    +0.000 C 
ATOM     14  C   UNL     1       1.897   2.570  20.923  0.00  0.00    +0.000 C 
ENDBRANCH   5   7
BRANCH   1  15
ATOM     15  C   UNL     1       8.078   7.261  18.341  0.00  0.00    +0.000 C 
BRANCH  15  22
ATOM     16  C   UNL     1      10.174  14.879  19.153  0.00  0.00    +0.000 C 
ATOM     17  C   UNL     1       9.979  13.399  19.249  0.00  0.00    +0.000 A 
ATOM     18  C   UNL     1      10.599  12.641  20.234  0.00  0.00    +0.000 A 
ATOM     19  C   UNL     1      10.361  11.271  20.273  0.00  0.00    +0.000 A 
ATOM     20  C   UNL     1       9.505  10.685  19.326  0.00  0.00    +0.000 A 
ATOM     21  C   UNL     1       9.222   9.301  19.323  0.00  0.00    +0.000 A 
ATOM     22  C   UNL     1       8.359   8.750  18.366  0.00  0.00    +0.000 A 
ATOM     23  C   UNL     1       7.794   9.598  17.410  0.00  0.00    +0.000 A 
ATOM     24  C   UNL     1       8.080  10.966  17.418  0.00  0.00    +0.000 A 
ATOM     25  C   UNL     1       8.926  11.530  18.365  0.00  0.00    +0.000 A 
ATOM     26  N   UNL     1       9.157  12.851  18.323  0.00  0.00    +0.000 NA
ENDBRANCH  15  22
ENDBRANCH   1  15
TORSDOF 3
ENDMDL
MODEL 7
REMARK VINA RESULT:      -8.1      1.754      3.123
REMARK  Name = 
REMARK  4 active torsions:
REMARK  status: ('A' for Active; 'I' for Inactive)
REMARK    1  A    between atoms: C_1  and  C_2
REMARK    2  A    between atoms: C_7  and  C_8
REMARK    3  A    between atoms: C_8  and  N_9
REMARK    4  A    between atoms: C_13  and  C_14
REMARK                            x       y       z     vdW  Elec       q    Type
REMARK                         _______ _______ _______ _____ _____    ______ ____
ROOT
ATOM      1  N   UNL     1       4.645   6.072  17.952  0.00  0.00    +0.000 NA
ATOM      2  C   UNL     1       5.076   4.948  18.799  0.00  0.00    +0.000 C 
ATOM      3  C   UNL     1       6.592   4.757  18.818  0.00  0.00    +0.000 C 
ATOM      4  C   UNL     1       7.144   4.573  17.413  0.00  0.00    +0.000 C 
ATOM      5  C   UNL     1       6.763   5.767  16.532  0.00  0.00    +0.000 C 
ATOM      6  C   UNL     1       5.238   6.023  16.594  0.00  0.00    +0.000 C 
ENDROOT
BRANCH   5   7
ATOM      7  C   UNL     1       7.186   5.518  15.115  0.00  0.00    +0.000 A 
ATOM      8  N   UNL     1       8.289   5.967  14.526  0.00  0.00    +0.000 NA
ATOM      9  N   UNL     1       8.343   5.475  13.227  0.00  0.00    +0.000 NA
ATOM     10  C   UNL     1       7.269   4.755  13.066  0.00  0.00    +0.000 A 
ATOM     11  N   UNL     1       6.521   4.784  14.198  0.00  0.00    +0.000 N 
ATOM     12  C   UNL     1       5.319   3.991  14.098  0.00  0.00    +0.000 C 
ATOM     13  C   UNL     1       5.615   3.123  12.856  0.00  0.00    +0.000 C 
ATOM     14  C   UNL     1       6.668   3.904  12.028  0.00  0.00    +0.000 C 
ENDBRANCH   5   7
BRANCH   1  15
ATOM     15  C   UNL     1       3.167   6.061  17.816  0.00  0.00    +0.000 C 
BRANCH  15  22
ATOM     16  C   UNL     1      -0.423  11.861  21.885  0.00  0.00    +0.000 C 
ATOM     17  C   UNL     1       0.257  10.618  21.404  0.00  0.00    +0.000 A 
ATOM     18  C   UNL     1       0.502   9.544  22.249  0.00  0.00    +0.000 A 
ATOM     19  C   UNL     1       1.126   8.413  21.730  0.00  0.00    +0.000 A 
ATOM     20  C   UNL     1       1.491   8.379  20.374  0.00  0.00    +0.000 A 
ATOM     21  C   UNL     1       2.119   7.255  19.793  0.00  0.00    +0.000 A 
ATOM     22  C   UNL     1       2.465   7.253  18.435  0.00  0.00    +0.000 A 
ATOM     23  C   UNL     1       2.184   8.390  17.673  0.00  0.00    +0.000 A 
ATOM     24  C   UNL     1       1.564   9.499  18.255  0.00  0.00    +0.000 A 
ATOM     25  C   UNL     1       1.206   9.514  19.597  0.00  0.00    +0.000 A 
ATOM     26  N   UNL     1       0.608  10.607  20.096  0.00  0.00    +0.000 NA
ENDBRANCH  15  22
ENDBRANCH   1  15
TORSDOF 3
ENDMDL
MODEL 8
REMARK VINA RESULT:      -8.1      2.259      8.593
REMARK  Name = 
REMARK  4 active torsions:
REMARK  status: ('A' for Active; 'I' for Inactive)
REMARK    1  A    between atoms: C_1  and  C_2
REMARK    2  A    between atoms: C_7  and  C_8
REMARK    3  A    between atoms: C_8  and  N_9
REMARK    4  A    between atoms: C_13  and  C_14
REMARK                            x       y       z     vdW  Elec       q    Type
REMARK                         _______ _______ _______ _____ _____    ______ ____
ROOT
ATOM      1  N   UNL     1       3.763   4.327  19.311  0.00  0.00    +0.000 NA
ATOM      2  C   UNL     1       3.270   3.429  20.369  0.00  0.00    +0.000 C 
ATOM      3  C   UNL     1       1.762   3.535  20.591  0.00  0.00    +0.000 C 
ATOM      4  C   UNL     1       1.348   4.966  20.904  0.00  0.00    +0.000 C 
ATOM      5  C   UNL     1       1.794   5.906  19.780  0.00  0.00    +0.000 C 
ATOM      6  C   UNL     1       3.303   5.724  19.487  0.00  0.00    +0.000 C 
ENDROOT
BRANCH   5   7
ATOM      7  C   UNL     1       1.510   7.330  20.156  0.00  0.00    +0.000 A 
ATOM      8  N   UNL     1       1.249   7.791  21.374  0.00  0.00    +0.000 NA
ATOM      9  N   UNL     1       1.095   9.171  21.315  0.00  0.00    +0.000 NA
ATOM     10  C   UNL     1       1.256   9.501  20.065  0.00  0.00    +0.000 A 
ATOM     11  N   UNL     1       1.485   8.389  19.320  0.00  0.00    +0.000 N 
ATOM     12  C   UNL     1       1.691   8.681  17.923  0.00  0.00    +0.000 C 
ATOM     13  C   UNL     1       1.956  10.202  17.952  0.00  0.00    +0.000 C 
ATOM     14  C   UNL     1       1.296  10.727  19.253  0.00  0.00    +0.000 C 
ENDBRANCH   5   7
BRANCH   1  15
ATOM     15  C   UNL     1       5.248   4.322  19.301  0.00  0.00    +0.000 C 
BRANCH  15  22
ATOM     16  C   UNL     1       7.867   5.218  11.857  0.00  0.00    +0.000 C 
ATOM     17  C   UNL     1       7.167   4.840  13.124  0.00  0.00    +0.000 A 
ATOM     18  C   UNL     1       6.160   3.885  13.148  0.00  0.00    +0.000 A 
ATOM     19  C   UNL     1       5.563   3.572  14.366  0.00  0.00    +0.000 A 
ATOM     20  C   UNL     1       5.987   4.222  15.537  0.00  0.00    +0.000 A 
ATOM     21  C   UNL     1       5.422   3.938  16.800  0.00  0.00    +0.000 A 
ATOM     22  C   UNL     1       5.873   4.602  17.950  0.00  0.00    +0.000 A 
ATOM     23  C   UNL     1       6.886   5.556  17.816  0.00  0.00    +0.000 A 
ATOM     24  C   UNL     1       7.439   5.832  16.562  0.00  0.00    +0.000 A 
ATOM     25  C   UNL     1       7.010   5.177  15.415  0.00  0.00    +0.000 A 
ATOM     26  N   UNL     1       7.584   5.482  14.241  0.00  0.00    +0.000 NA
ENDBRANCH  15  22
ENDBRANCH   1  15
TORSDOF 3
ENDMDL
MODEL 9
REMARK VINA RESULT:      -8.0      3.170      5.056
REMARK  Name = 
REMARK  4 active torsions:
REMARK  status: ('A' for Active; 'I' for Inactive)
REMARK    1  A    between atoms: C_1  and  C_2
REMARK    2  A    between atoms: C_7  and  C_8
REMARK    3  A    between atoms: C_8  and  N_9
REMARK    4  A    between atoms: C_13  and  C_14
REMARK                            x       y       z     vdW  Elec       q    Type
REMARK                         _______ _______ _______ _____ _____    ______ ____
ROOT
ATOM      1  N   UNL     1       2.306   8.073  17.962  0.00  0.00    +0.000 NA
ATOM      2  C   UNL     1       3.763   7.996  17.764  0.00  0.00    +0.000 C 
ATOM      3  C   UNL     1       4.192   6.794  16.923  0.00  0.00    +0.000 C 
ATOM      4  C   UNL     1       3.691   5.490  17.526  0.00  0.00    +0.000 C 
ATOM      5  C   UNL     1       2.167   5.525  17.678  0.00  0.00    +0.000 C 
ATOM      6  C   UNL     1       1.727   6.796  18.443  0.00  0.00    +0.000 C 
ENDROOT
BRANCH   5   7
ATOM      7  C   UNL     1       1.693   4.299  18.400  0.00  0.00    +0.000 A 
ATOM      8  N   UNL     1       1.147   3.218  17.854  0.00  0.00    +0.000 NA
ATOM      9  N   UNL     1       0.893   2.284  18.852  0.00  0.00    +0.000 NA
ATOM     10  C   UNL     1       1.280   2.831  19.969  0.00  0.00    +0.000 A 
ATOM     11  N   UNL     1       1.751   4.082  19.731  0.00  0.00    +0.000 N 
ATOM     12  C   UNL     1       2.216   4.744  20.925  0.00  0.00    +0.000 C 
ATOM     13  C   UNL     1       2.340   3.564  21.914  0.00  0.00    +0.000 C 
ATOM     14  C   UNL     1       1.383   2.463  21.389  0.00  0.00    +0.000 C 
ENDBRANCH   5   7
BRANCH   1  15
ATOM     15  C   UNL     1       1.989   9.132  18.954  0.00  0.00    +0.000 C 
BRANCH  15  22
ATOM     16  C   UNL     1      -5.246  11.956  17.294  0.00  0.00    +0.000 C 
ATOM     17  C   UNL     1      -3.916  11.271  17.325  0.00  0.00    +0.000 A 
ATOM     18  C   UNL     1      -3.481  10.470  16.277  0.00  0.00    +0.000 A 
ATOM     19  C   UNL     1      -2.226   9.875  16.366  0.00  0.00    +0.000 A 
ATOM     20  C   UNL     1      -1.430  10.095  17.502  0.00  0.00    +0.000 A 
ATOM     21  C   UNL     1      -0.146   9.523  17.642  0.00  0.00    +0.000 A 
ATOM     22  C   UNL     1       0.625   9.768  18.787  0.00  0.00    +0.000 A 
ATOM     23  C   UNL     1       0.090  10.581  19.790  0.00  0.00    +0.000 A 
ATOM     24  C   UNL     1      -1.182  11.142  19.645  0.00  0.00    +0.000 A 
ATOM     25  C   UNL     1      -1.955  10.917  18.513  0.00  0.00    +0.000 A 
ATOM     26  N   UNL     1      -3.166  11.488  18.431  0.00  0.00    +0.000 NA
ENDBRANCH  15  22
ENDBRANCH   1  15
TORSDOF 3
ENDMDL
