MODEL 1
REMARK VINA RESULT:      -9.5      0.000      0.000
REMARK  Name = 
REMARK  5 active torsions:
REMARK  status: ('A' for Active; 'I' for Inactive)
REMARK    1  A    between atoms: C_1  and  C_2
REMARK    2  A    between atoms: C_2  and  C_3
REMARK    3  A    between atoms: C_2  and  C_4
REMARK    4  A    between atoms: C_4  and  N_5
REMARK    5  A    between atoms: C_7  and  C_8
REMARK                            x       y       z     vdW  Elec       q    Type
REMARK                         _______ _______ _______ _____ _____    ______ ____
ROOT
ATOM      1  N   UNL     1       5.619   5.969  17.092  0.00  0.00    +0.000 N 
ATOM      2  N   UNL     1       4.708   6.977  17.405  0.00  0.00    +0.000 NA
ATOM      3  C   UNL     1       3.504   6.635  17.798  0.00  0.00    +0.000 A 
ATOM      4  C   UNL     1       3.052   5.220  17.859  0.00  0.00    +0.000 A 
ATOM      5  C   UNL     1       1.725   4.805  18.046  0.00  0.00    +0.000 A 
ATOM      6  C   UNL     1       1.388   3.446  17.995  0.00  0.00    +0.000 A 
ATOM      7  C   UNL     1       2.366   2.482  17.780  0.00  0.00    +0.000 A 
ATOM      8  C   UNL     1       3.691   2.875  17.630  0.00  0.00    +0.000 A 
ATOM      9  C   UNL     1       4.022   4.240  17.663  0.00  0.00    +0.000 A 
ATOM     10  C   UNL     1       5.415   4.628  17.408  0.00  0.00    +0.000 A 
ATOM     11  O   UNL     1       6.298   3.776  17.421  0.00  0.00    +0.000 OA
ENDROOT
BRANCH   3  12
ATOM     12  C   UNL     1       2.546   7.803  18.202  0.00  0.00    +0.000 C 
ATOM     13  O   UNL     1       2.336   8.716  17.427  0.00  0.00    +0.000 OA
ATOM     14  N   UNL     1       2.045   7.648  19.481  0.00  0.00    +0.000 N 
ATOM     15  C   UNL     1       1.201   8.560  20.084  0.00  0.00    +0.000 A 
ATOM     16  N   UNL     1       0.622   9.636  19.600  0.00  0.00    +0.000 NA
ATOM     17  C   UNL     1      -0.034  10.239  20.661  0.00  0.00    +0.000 A 
ATOM     18  C   UNL     1      -0.786  11.426  20.730  0.00  0.00    +0.000 A 
ATOM     19  C   UNL     1      -1.295  11.838  21.975  0.00  0.00    +0.000 A 
ATOM     20  C   UNL     1      -1.078  11.077  23.122  0.00  0.00    +0.000 A 
ATOM     21  C   UNL     1      -0.370   9.871  23.067  0.00  0.00    +0.000 A 
ATOM     22  C   UNL     1       0.132   9.491  21.818  0.00  0.00    +0.000 A 
ATOM     23  N   UNL     1       0.860   8.403  21.409  0.00  0.00    +0.000 N 
ATOM     24  H   UNL     1       2.419   6.874  20.018  0.00  0.00    +0.000 HD
ATOM     25  H   UNL     1       1.147   7.639  22.000  0.00  0.00    +0.000 HD
ENDBRANCH   3  12
BRANCH   1  26
ATOM     26  C   UNL     1       6.922   6.350  16.534  0.00  0.00    +0.000 C 
BRANCH  26  28
ATOM     27  C   UNL     1       7.753   8.471  17.689  0.00  0.00    +0.000 C 
ATOM     28  C   UNL     1       7.891   6.951  17.588  0.00  0.00    +0.000 C 
ATOM     29  C   UNL     1       7.668   6.324  18.967  0.00  0.00    +0.000 C 
ENDBRANCH  26  28
ENDBRANCH   1  26
TORSDOF 3
ENDMDL
MODEL 2
REMARK VINA RESULT:      -9.2      1.358      1.716
REMARK  Name = 
REMARK  5 active torsions:
REMARK  status: ('A' for Active; 'I' for Inactive)
REMARK    1  A    between atoms: C_1  and  C_2
REMARK    2  A    between atoms: C_2  and  C_3
REMARK    3  A    between atoms: C_2  and  C_4
REMARK    4  A    between atoms: C_4  and  N_5
REMARK    5  A    between atoms: C_7  and  C_8
REMARK                            x       y       z     vdW  Elec       q    Type
REMARK                         _______ _______ _______ _____ _____    ______ ____
ROOT
ATOM      1  N   UNL     1       5.326   4.857  19.253  0.00  0.00    +0.000 N 
ATOM      2  N   UNL     1       4.536   6.006  19.223  0.00  0.00    +0.000 NA
ATOM      3  C   UNL     1       3.232   5.869  19.177  0.00  0.00    +0.000 A 
ATOM      4  C   UNL     1       2.566   4.542  19.088  0.00  0.00    +0.000 A 
ATOM      5  C   UNL     1       1.207   4.340  18.806  0.00  0.00    +0.000 A 
ATOM      6  C   UNL     1       0.696   3.045  18.650  0.00  0.00    +0.000 A 
ATOM      7  C   UNL     1       1.521   1.936  18.794  0.00  0.00    +0.000 A 
ATOM      8  C   UNL     1       2.862   2.120  19.110  0.00  0.00    +0.000 A 
ATOM      9  C   UNL     1       3.376   3.420  19.247  0.00  0.00    +0.000 A 
ATOM     10  C   UNL     1       4.815   3.583  19.488  0.00  0.00    +0.000 A 
ATOM     11  O   UNL     1       5.492   2.612  19.812  0.00  0.00    +0.000 OA
ENDROOT
BRANCH   3  12
ATOM     12  C   UNL     1       2.392   7.188  19.216  0.00  0.00    +0.000 C 
ATOM     13  O   UNL     1       2.379   7.931  18.254  0.00  0.00    +0.000 OA
ATOM     14  N   UNL     1       1.749   7.362  20.427  0.00  0.00    +0.000 N 
ATOM     15  C   UNL     1       0.970   8.463  20.725  0.00  0.00    +0.000 A 
ATOM     16  N   UNL     1       0.584   9.465  19.966  0.00  0.00    +0.000 NA
ATOM     17  C   UNL     1      -0.096  10.343  20.794  0.00  0.00    +0.000 A 
ATOM     18  C   UNL     1      -0.695  11.589  20.529  0.00  0.00    +0.000 A 
ATOM     19  C   UNL     1      -1.271  12.307  21.593  0.00  0.00    +0.000 A 
ATOM     20  C   UNL     1      -1.268  11.791  22.887  0.00  0.00    +0.000 A 
ATOM     21  C   UNL     1      -0.716  10.535  23.164  0.00  0.00    +0.000 A 
ATOM     22  C   UNL     1      -0.143   9.847  22.090  0.00  0.00    +0.000 A 
ATOM     23  N   UNL     1       0.480   8.628  22.001  0.00  0.00    +0.000 N 
ATOM     24  H   UNL     1       1.967   6.686  21.150  0.00  0.00    +0.000 HD
ATOM     25  H   UNL     1       0.607   7.983  22.764  0.00  0.00    +0.000 HD
ENDBRANCH   3  12
BRANCH   1  26
ATOM     26  C   UNL     1       6.784   5.007  19.179  0.00  0.00    +0.000 C 
BRANCH  26  28
ATOM     27  C   UNL     1       6.446   4.546  16.690  0.00  0.00    +0.000 C 
ATOM     28  C   UNL     1       7.305   5.255  17.738  0.00  0.00    +0.000 C 
ATOM     29  C   UNL     1       7.367   6.752  17.421  0.00  0.00    +0.000 C 
ENDBRANCH  26  28
ENDBRANCH   1  26
TORSDOF 3
ENDMDL
MODEL 3
REMARK VINA RESULT:      -9.1      1.237      1.890
REMARK  Name = 
REMARK  5 active torsions:
REMARK  status: ('A' for Active; 'I' for Inactive)
REMARK    1  A    between atoms: C_1  and  C_2
REMARK    2  A    between atoms: C_2  and  C_3
REMARK    3  A    between atoms: C_2  and  C_4
REMARK    4  A    between atoms: C_4  and  N_5
REMARK    5  A    between atoms: C_7  and  C_8
REMARK                            x       y       z     vdW  Elec       q    Type
REMARK                         _______ _______ _______ _____ _____    ______ ____
ROOT
ATOM      1  N   UNL     1       5.220   5.931  17.165  0.00  0.00    +0.000 N 
ATOM      2  N   UNL     1       4.373   6.796  17.857  0.00  0.00    +0.000 NA
ATOM      3  C   UNL     1       3.288   6.304  18.407  0.00  0.00    +0.000 A 
ATOM      4  C   UNL     1       2.892   4.878  18.266  0.00  0.00    +0.000 A 
ATOM      5  C   UNL     1       1.645   4.347  18.628  0.00  0.00    +0.000 A 
ATOM      6  C   UNL     1       1.336   3.006  18.368  0.00  0.00    +0.000 A 
ATOM      7  C   UNL     1       2.269   2.169  17.765  0.00  0.00    +0.000 A 
ATOM      8  C   UNL     1       3.522   2.671  17.434  0.00  0.00    +0.000 A 
ATOM      9  C   UNL     1       3.821   4.022  17.680  0.00  0.00    +0.000 A 
ATOM     10  C   UNL     1       5.118   4.543  17.233  0.00  0.00    +0.000 A 
ATOM     11  O   UNL     1       6.004   3.766  16.890  0.00  0.00    +0.000 OA
ENDROOT
BRANCH   3  12
ATOM     12  C   UNL     1       2.410   7.304  19.229  0.00  0.00    +0.000 C 
ATOM     13  O   UNL     1       2.137   7.064  20.389  0.00  0.00    +0.000 OA
ATOM     14  N   UNL     1       2.011   8.391  18.474  0.00  0.00    +0.000 N 
ATOM     15  C   UNL     1       1.202   9.400  18.959  0.00  0.00    +0.000 A 
ATOM     16  N   UNL     1       0.752   9.622  20.173  0.00  0.00    +0.000 NA
ATOM     17  C   UNL     1      -0.098  10.712  20.082  0.00  0.00    +0.000 A 
ATOM     18  C   UNL     1      -0.877  11.363  21.058  0.00  0.00    +0.000 A 
ATOM     19  C   UNL     1      -1.712  12.424  20.665  0.00  0.00    +0.000 A 
ATOM     20  C   UNL     1      -1.758  12.842  19.336  0.00  0.00    +0.000 A 
ATOM     21  C   UNL     1      -0.960  12.237  18.360  0.00  0.00    +0.000 A 
ATOM     22  C   UNL     1      -0.146  11.179  18.776  0.00  0.00    +0.000 A 
ATOM     23  N   UNL     1       0.737  10.373  18.103  0.00  0.00    +0.000 N 
ATOM     24  H   UNL     1       2.249   8.363  17.489  0.00  0.00    +0.000 HD
ATOM     25  H   UNL     1       0.962  10.448  17.125  0.00  0.00    +0.000 HD
ENDBRANCH   3  12
BRANCH   1  26
ATOM     26  C   UNL     1       6.366   6.499  16.445  0.00  0.00    +0.000 C 
BRANCH  26  28
ATOM     27  C   UNL     1       7.673   8.352  17.620  0.00  0.00    +0.000 C 
ATOM     28  C   UNL     1       7.563   6.847  17.370  0.00  0.00    +0.000 C 
ATOM     29  C   UNL     1       7.460   6.111  18.709  0.00  0.00    +0.000 C 
ENDBRANCH  26  28
ENDBRANCH   1  26
TORSDOF 3
ENDMDL
MODEL 4
REMARK VINA RESULT:      -9.1      1.603      2.021
REMARK  Name = 
REMARK  5 active torsions:
REMARK  status: ('A' for Active; 'I' for Inactive)
REMARK    1  A    between atoms: C_1  and  C_2
REMARK    2  A    between atoms: C_2  and  C_3
REMARK    3  A    between atoms: C_2  and  C_4
REMARK    4  A    between atoms: C_4  and  N_5
REMARK    5  A    between atoms: C_7  and  C_8
REMARK                            x       y       z     vdW  Elec       q    Type
REMARK                         _______ _______ _______ _____ _____    ______ ____
ROOT
ATOM      1  N   UNL     1       5.032   5.644  18.120  0.00  0.00    +0.000 N 
ATOM      2  N   UNL     1       4.129   6.704  18.184  0.00  0.00    +0.000 NA
ATOM      3  C   UNL     1       3.045   6.563  18.910  0.00  0.00    +0.000 A 
ATOM      4  C   UNL     1       2.709   5.295  19.611  0.00  0.00    +0.000 A 
ATOM      5  C   UNL     1       1.471   5.006  20.205  0.00  0.00    +0.000 A 
ATOM      6  C   UNL     1       1.223   3.744  20.760  0.00  0.00    +0.000 A 
ATOM      7  C   UNL     1       2.207   2.762  20.754  0.00  0.00    +0.000 A 
ATOM      8  C   UNL     1       3.451   3.047  20.202  0.00  0.00    +0.000 A 
ATOM      9  C   UNL     1       3.690   4.307  19.630  0.00  0.00    +0.000 A 
ATOM     10  C   UNL     1       4.981   4.543  18.972  0.00  0.00    +0.000 A 
ATOM     11  O   UNL     1       5.906   3.756  19.145  0.00  0.00    +0.000 OA
ENDROOT
BRANCH   3  12
ATOM     12  C   UNL     1       2.102   7.806  19.002  0.00  0.00    +0.000 C 
ATOM     13  O   UNL     1       1.956   8.535  18.039  0.00  0.00    +0.000 OA
ATOM     14  N   UNL     1       1.535   7.939  20.256  0.00  0.00    +0.000 N 
ATOM     15  C   UNL     1       0.689   8.974  20.603  0.00  0.00    +0.000 A 
ATOM     16  N   UNL     1       0.165   9.931  19.870  0.00  0.00    +0.000 NA
ATOM     17  C   UNL     1      -0.525  10.759  20.740  0.00  0.00    +0.000 A 
ATOM     18  C   UNL     1      -1.245  11.946  20.512  0.00  0.00    +0.000 A 
ATOM     19  C   UNL     1      -1.802  12.625  21.611  0.00  0.00    +0.000 A 
ATOM     20  C   UNL     1      -1.663  12.126  22.905  0.00  0.00    +0.000 A 
ATOM     21  C   UNL     1      -0.988  10.924  23.147  0.00  0.00    +0.000 A 
ATOM     22  C   UNL     1      -0.437  10.275  22.038  0.00  0.00    +0.000 A 
ATOM     23  N   UNL     1       0.279   9.112  21.910  0.00  0.00    +0.000 N 
ATOM     24  H   UNL     1       1.860   7.292  20.965  0.00  0.00    +0.000 HD
ATOM     25  H   UNL     1       0.515   8.489  22.666  0.00  0.00    +0.000 HD
ENDBRANCH   3  12
BRANCH   1  26
ATOM     26  C   UNL     1       6.179   5.754  17.212  0.00  0.00    +0.000 C 
BRANCH  26  28
ATOM     27  C   UNL     1       7.104   4.971  14.963  0.00  0.00    +0.000 C 
ATOM     28  C   UNL     1       5.849   5.351  15.750  0.00  0.00    +0.000 C 
ATOM     29  C   UNL     1       4.849   4.191  15.708  0.00  0.00    +0.000 C 
ENDBRANCH  26  28
ENDBRANCH   1  26
TORSDOF 3
ENDMDL
MODEL 5
REMARK VINA RESULT:      -9.0      1.868      3.727
REMARK  Name = 
REMARK  5 active torsions:
REMARK  status: ('A' for Active; 'I' for Inactive)
REMARK    1  A    between atoms: C_1  and  C_2
REMARK    2  A    between atoms: C_2  and  C_3
REMARK    3  A    between atoms: C_2  and  C_4
REMARK    4  A    between atoms: C_4  and  N_5
REMARK    5  A    between atoms: C_7  and  C_8
REMARK                            x       y       z     vdW  Elec       q    Type
REMARK                         _______ _______ _______ _____ _____    ______ ____
ROOT
ATOM      1  N   UNL     1       3.487   3.702  19.114  0.00  0.00    +0.000 N 
ATOM      2  N   UNL     1       3.000   4.984  19.367  0.00  0.00    +0.000 NA
ATOM      3  C   UNL     1       3.251   5.933  18.496  0.00  0.00    +0.000 A 
ATOM      4  C   UNL     1       4.088   5.713  17.287  0.00  0.00    +0.000 A 
ATOM      5  C   UNL     1       4.579   6.727  16.451  0.00  0.00    +0.000 A 
ATOM      6  C   UNL     1       5.439   6.421  15.388  0.00  0.00    +0.000 A 
ATOM      7  C   UNL     1       5.804   5.106  15.129  0.00  0.00    +0.000 A 
ATOM      8  C   UNL     1       5.296   4.087  15.927  0.00  0.00    +0.000 A 
ATOM      9  C   UNL     1       4.449   4.398  17.003  0.00  0.00    +0.000 A 
ATOM     10  C   UNL     1       4.006   3.310  17.882  0.00  0.00    +0.000 A 
ATOM     11  O   UNL     1       4.162   2.143  17.536  0.00  0.00    +0.000 OA
ENDROOT
BRANCH   3  12
ATOM     12  C   UNL     1       2.623   7.334  18.794  0.00  0.00    +0.000 C 
ATOM     13  O   UNL     1       2.916   8.293  18.106  0.00  0.00    +0.000 OA
ATOM     14  N   UNL     1       1.778   7.306  19.888  0.00  0.00    +0.000 N 
ATOM     15  C   UNL     1       1.125   8.422  20.374  0.00  0.00    +0.000 A 
ATOM     16  N   UNL     1       1.052   9.644  19.897  0.00  0.00    +0.000 NA
ATOM     17  C   UNL     1       0.354  10.389  20.833  0.00  0.00    +0.000 A 
ATOM     18  C   UNL     1       0.010  11.754  20.860  0.00  0.00    +0.000 A 
ATOM     19  C   UNL     1      -0.660  12.264  21.986  0.00  0.00    +0.000 A 
ATOM     20  C   UNL     1      -0.998  11.434  23.053  0.00  0.00    +0.000 A 
ATOM     21  C   UNL     1      -0.704  10.067  23.027  0.00  0.00    +0.000 A 
ATOM     22  C   UNL     1      -0.030   9.588  21.899  0.00  0.00    +0.000 A 
ATOM     23  N   UNL     1       0.413   8.337  21.550  0.00  0.00    +0.000 N 
ATOM     24  H   UNL     1       1.742   6.434  20.402  0.00  0.00    +0.000 HD
ATOM     25  H   UNL     1       0.285   7.501  22.098  0.00  0.00    +0.000 HD
ENDBRANCH   3  12
BRANCH   1  26
ATOM     26  C   UNL     1       3.315   2.671  20.144  0.00  0.00    +0.000 C 
BRANCH  26  28
ATOM     27  C   UNL     1       1.263   2.966  21.636  0.00  0.00    +0.000 C 
ATOM     28  C   UNL     1       1.831   2.287  20.389  0.00  0.00    +0.000 C 
ATOM     29  C   UNL     1       0.962   2.635  19.176  0.00  0.00    +0.000 C 
ENDBRANCH  26  28
ENDBRANCH   1  26
TORSDOF 3
ENDMDL
MODEL 6
REMARK VINA RESULT:      -9.0      1.555      1.830
REMARK  Name = 
REMARK  5 active torsions:
REMARK  status: ('A' for Active; 'I' for Inactive)
REMARK    1  A    between atoms: C_1  and  C_2
REMARK    2  A    between atoms: C_2  and  C_3
REMARK    3  A    between atoms: C_2  and  C_4
REMARK    4  A    between atoms: C_4  and  N_5
REMARK    5  A    between atoms: C_7  and  C_8
REMARK                            x       y       z     vdW  Elec       q    Type
REMARK                         _______ _______ _______ _____ _____    ______ ____
ROOT
ATOM      1  N   UNL     1       5.072   4.854  18.719  0.00  0.00    +0.000 N 
ATOM      2  N   UNL     1       4.348   6.046  18.730  0.00  0.00    +0.000 NA
ATOM      3  C   UNL     1       3.133   6.036  19.224  0.00  0.00    +0.000 A 
ATOM      4  C   UNL     1       2.473   4.795  19.710  0.00  0.00    +0.000 A 
ATOM      5  C   UNL     1       1.112   4.677  20.030  0.00  0.00    +0.000 A 
ATOM      6  C   UNL     1       0.568   3.437  20.390  0.00  0.00    +0.000 A 
ATOM      7  C   UNL     1       1.371   2.305  20.458  0.00  0.00    +0.000 A 
ATOM      8  C   UNL     1       2.729   2.414  20.179  0.00  0.00    +0.000 A 
ATOM      9  C   UNL     1       3.267   3.655  19.801  0.00  0.00    +0.000 A 
ATOM     10  C   UNL     1       4.684   3.716  19.422  0.00  0.00    +0.000 A 
ATOM     11  O   UNL     1       5.425   2.771  19.676  0.00  0.00    +0.000 OA
ENDROOT
BRANCH   3  12
ATOM     12  C   UNL     1       2.392   7.412  19.275  0.00  0.00    +0.000 C 
ATOM     13  O   UNL     1       2.524   8.211  18.369  0.00  0.00    +0.000 OA
ATOM     14  N   UNL     1       1.650   7.563  20.432  0.00  0.00    +0.000 N 
ATOM     15  C   UNL     1       0.929   8.702  20.732  0.00  0.00    +0.000 A 
ATOM     16  N   UNL     1       0.691   9.775  20.012  0.00  0.00    +0.000 NA
ATOM     17  C   UNL     1       0.001  10.653  20.832  0.00  0.00    +0.000 A 
ATOM     18  C   UNL     1      -0.478  11.956  20.599  0.00  0.00    +0.000 A 
ATOM     19  C   UNL     1      -1.098  12.651  21.652  0.00  0.00    +0.000 A 
ATOM     20  C   UNL     1      -1.257  12.058  22.903  0.00  0.00    +0.000 A 
ATOM     21  C   UNL     1      -0.827  10.749  23.143  0.00  0.00    +0.000 A 
ATOM     22  C   UNL     1      -0.205  10.084  22.081  0.00  0.00    +0.000 A 
ATOM     23  N   UNL     1       0.333   8.827  21.967  0.00  0.00    +0.000 N 
ATOM     24  H   UNL     1       1.748   6.829  21.125  0.00  0.00    +0.000 HD
ATOM     25  H   UNL     1       0.339   8.129  22.693  0.00  0.00    +0.000 HD
ENDBRANCH   3  12
BRANCH   1  26
ATOM     26  C   UNL     1       6.381   4.836  18.055  0.00  0.00    +0.000 C 
BRANCH  26  28
ATOM     27  C   UNL     1       7.463   7.020  17.293  0.00  0.00    +0.000 C 
ATOM     28  C   UNL     1       6.510   5.885  16.918  0.00  0.00    +0.000 C 
ATOM     29  C   UNL     1       6.978   5.233  15.613  0.00  0.00    +0.000 C 
ENDBRANCH  26  28
ENDBRANCH   1  26
TORSDOF 3
ENDMDL
MODEL 7
REMARK VINA RESULT:      -9.0      1.338      1.892
REMARK  Name = 
REMARK  5 active torsions:
REMARK  status: ('A' for Active; 'I' for Inactive)
REMARK    1  A    between atoms: C_1  and  C_2
REMARK    2  A    between atoms: C_2  and  C_3
REMARK    3  A    between atoms: C_2  and  C_4
REMARK    4  A    between atoms: C_4  and  N_5
REMARK    5  A    between atoms: C_7  and  C_8
REMARK                            x       y       z     vdW  Elec       q    Type
REMARK                         _______ _______ _______ _____ _____    ______ ____
ROOT
ATOM      1  N   UNL     1       4.717   5.730  17.788  0.00  0.00    +0.000 N 
ATOM      2  N   UNL     1       3.909   6.440  18.676  0.00  0.00    +0.000 NA
ATOM      3  C   UNL     1       2.877   5.830  19.209  0.00  0.00    +0.000 A 
ATOM      4  C   UNL     1       2.496   4.438  18.854  0.00  0.00    +0.000 A 
ATOM      5  C   UNL     1       1.288   3.817  19.208  0.00  0.00    +0.000 A 
ATOM      6  C   UNL     1       0.983   2.531  18.743  0.00  0.00    +0.000 A 
ATOM      7  C   UNL     1       1.882   1.837  17.941  0.00  0.00    +0.000 A 
ATOM      8  C   UNL     1       3.098   2.424  17.613  0.00  0.00    +0.000 A 
ATOM      9  C   UNL     1       3.392   3.721  18.065  0.00  0.00    +0.000 A 
ATOM     10  C   UNL     1       4.644   4.349  17.623  0.00  0.00    +0.000 A 
ATOM     11  O   UNL     1       5.514   3.667  17.091  0.00  0.00    +0.000 OA
ENDROOT
BRANCH   3  12
ATOM     12  C   UNL     1       2.047   6.650  20.250  0.00  0.00    +0.000 C 
ATOM     13  O   UNL     1       1.636   6.113  21.261  0.00  0.00    +0.000 OA
ATOM     14  N   UNL     1       1.854   7.959  19.851  0.00  0.00    +0.000 N 
ATOM     15  C   UNL     1       1.126   8.878  20.580  0.00  0.00    +0.000 A 
ATOM     16  N   UNL     1       0.588   8.786  21.776  0.00  0.00    +0.000 NA
ATOM     17  C   UNL     1      -0.115   9.962  21.981  0.00  0.00    +0.000 A 
ATOM     18  C   UNL     1      -0.904  10.392  23.065  0.00  0.00    +0.000 A 
ATOM     19  C   UNL     1      -1.566  11.629  22.975  0.00  0.00    +0.000 A 
ATOM     20  C   UNL     1      -1.433  12.430  21.843  0.00  0.00    +0.000 A 
ATOM     21  C   UNL     1      -0.619  12.041  20.773  0.00  0.00    +0.000 A 
ATOM     22  C   UNL     1       0.020  10.803  20.885  0.00  0.00    +0.000 A 
ATOM     23  N   UNL     1       0.863  10.120  20.045  0.00  0.00    +0.000 N 
ATOM     24  H   UNL     1       2.182   8.196  18.921  0.00  0.00    +0.000 HD
ATOM     25  H   UNL     1       1.190  10.454  19.153  0.00  0.00    +0.000 HD
ENDBRANCH   3  12
BRANCH   1  26
ATOM     26  C   UNL     1       5.796   6.446  17.096  0.00  0.00    +0.000 C 
BRANCH  26  28
ATOM     27  C   UNL     1       7.796   5.883  18.581  0.00  0.00    +0.000 C 
ATOM     28  C   UNL     1       6.885   6.994  18.057  0.00  0.00    +0.000 C 
ATOM     29  C   UNL     1       7.734   8.072  17.375  0.00  0.00    +0.000 C 
ENDBRANCH  26  28
ENDBRANCH   1  26
TORSDOF 3
ENDMDL
MODEL 8
REMARK VINA RESULT:      -9.0      2.589      8.498
REMARK  Name = 
REMARK  5 active torsions:
REMARK  status: ('A' for Active; 'I' for Inactive)
REMARK    1  A    between atoms: C_1  and  C_2
REMARK    2  A    between atoms: C_2  and  C_3
REMARK    3  A    between atoms: C_2  and  C_4
REMARK    4  A    between atoms: C_4  and  N_5
REMARK    5  A    between atoms: C_7  and  C_8
REMARK                            x       y       z     vdW  Elec       q    Type
REMARK                         _______ _______ _______ _____ _____    ______ ____
ROOT
ATOM      1  N   UNL     1      -0.663  11.987  20.598  0.00  0.00    +0.000 N 
ATOM      2  N   UNL     1       0.381  11.247  20.044  0.00  0.00    +0.000 NA
ATOM      3  C   UNL     1       0.174  10.626  18.907  0.00  0.00    +0.000 A 
ATOM      4  C   UNL     1      -1.146  10.624  18.221  0.00  0.00    +0.000 A 
ATOM      5  C   UNL     1      -1.492   9.801  17.139  0.00  0.00    +0.000 A 
ATOM      6  C   UNL     1      -2.794   9.809  16.624  0.00  0.00    +0.000 A 
ATOM      7  C   UNL     1      -3.763  10.650  17.160  0.00  0.00    +0.000 A 
ATOM      8  C   UNL     1      -3.425  11.498  18.209  0.00  0.00    +0.000 A 
ATOM      9  C   UNL     1      -2.123  11.474  18.735  0.00  0.00    +0.000 A 
ATOM     10  C   UNL     1      -1.824  12.313  19.902  0.00  0.00    +0.000 A 
ATOM     11  O   UNL     1      -2.612  13.190  20.240  0.00  0.00    +0.000 OA
ENDROOT
BRANCH   3  12
ATOM     12  C   UNL     1       1.397   9.868  18.295  0.00  0.00    +0.000 C 
ATOM     13  O   UNL     1       2.150  10.441  17.530  0.00  0.00    +0.000 OA
ATOM     14  N   UNL     1       1.457   8.551  18.711  0.00  0.00    +0.000 N 
ATOM     15  C   UNL     1       2.425   7.662  18.287  0.00  0.00    +0.000 A 
ATOM     16  N   UNL     1       3.497   7.854  17.551  0.00  0.00    +0.000 NA
ATOM     17  C   UNL     1       4.060   6.605  17.345  0.00  0.00    +0.000 A 
ATOM     18  C   UNL     1       5.193   6.210  16.609  0.00  0.00    +0.000 A 
ATOM     19  C   UNL     1       5.502   4.842  16.518  0.00  0.00    +0.000 A 
ATOM     20  C   UNL     1       4.714   3.887  17.159  0.00  0.00    +0.000 A 
ATOM     21  C   UNL     1       3.609   4.262  17.931  0.00  0.00    +0.000 A 
ATOM     22  C   UNL     1       3.319   5.628  17.997  0.00  0.00    +0.000 A 
ATOM     23  N   UNL     1       2.332   6.334  18.638  0.00  0.00    +0.000 N 
ATOM     24  H   UNL     1       0.677   8.222  19.267  0.00  0.00    +0.000 HD
ATOM     25  H   UNL     1       1.620   5.932  19.226  0.00  0.00    +0.000 HD
ENDBRANCH   3  12
BRANCH   1  26
ATOM     26  C   UNL     1      -0.472  12.579  21.928  0.00  0.00    +0.000 C 
BRANCH  26  28
ATOM     27  C   UNL     1      -2.545  11.940  23.276  0.00  0.00    +0.000 C 
ATOM     28  C   UNL     1      -1.047  11.708  23.077  0.00  0.00    +0.000 C 
ATOM     29  C   UNL     1      -0.788  10.219  22.826  0.00  0.00    +0.000 C 
ENDBRANCH  26  28
ENDBRANCH   1  26
TORSDOF 3
ENDMDL
MODEL 9
REMARK VINA RESULT:      -8.8      1.934      3.840
REMARK  Name = 
REMARK  5 active torsions:
REMARK  status: ('A' for Active; 'I' for Inactive)
REMARK    1  A    between atoms: C_1  and  C_2
REMARK    2  A    between atoms: C_2  and  C_3
REMARK    3  A    between atoms: C_2  and  C_4
REMARK    4  A    between atoms: C_4  and  N_5
REMARK    5  A    between atoms: C_7  and  C_8
REMARK                            x       y       z     vdW  Elec       q    Type
REMARK                         _______ _______ _______ _____ _____    ______ ____
ROOT
ATOM      1  N   UNL     1       3.355   4.072  19.079  0.00  0.00    +0.000 N 
ATOM      2  N   UNL     1       2.913   5.395  19.108  0.00  0.00    +0.000 NA
ATOM      3  C   UNL     1       3.289   6.202  18.145  0.00  0.00    +0.000 A 
ATOM      4  C   UNL     1       4.219   5.783  17.063  0.00  0.00    +0.000 A 
ATOM      5  C   UNL     1       4.834   6.650  16.147  0.00  0.00    +0.000 A 
ATOM      6  C   UNL     1       5.769   6.167  15.223  0.00  0.00    +0.000 A 
ATOM      7  C   UNL     1       6.087   4.814  15.181  0.00  0.00    +0.000 A 
ATOM      8  C   UNL     1       5.458   3.937  16.057  0.00  0.00    +0.000 A 
ATOM      9  C   UNL     1       4.535   4.429  16.995  0.00  0.00    +0.000 A 
ATOM     10  C   UNL     1       3.960   3.492  17.967  0.00  0.00    +0.000 A 
ATOM     11  O   UNL     1       4.087   2.283  17.799  0.00  0.00    +0.000 OA
ENDROOT
BRANCH   3  12
ATOM     12  C   UNL     1       2.710   7.655  18.189  0.00  0.00    +0.000 C 
ATOM     13  O   UNL     1       2.974   8.443  17.302  0.00  0.00    +0.000 OA
ATOM     14  N   UNL     1       1.942   7.876  19.316  0.00  0.00    +0.000 N 
ATOM     15  C   UNL     1       1.345   9.088  19.604  0.00  0.00    +0.000 A 
ATOM     16  N   UNL     1       1.263  10.190  18.893  0.00  0.00    +0.000 NA
ATOM     17  C   UNL     1       0.645  11.132  19.698  0.00  0.00    +0.000 A 
ATOM     18  C   UNL     1       0.330  12.484  19.467  0.00  0.00    +0.000 A 
ATOM     19  C   UNL     1      -0.251  13.234  20.505  0.00  0.00    +0.000 A 
ATOM     20  C   UNL     1      -0.532  12.649  21.738  0.00  0.00    +0.000 A 
ATOM     21  C   UNL     1      -0.267  11.296  21.974  0.00  0.00    +0.000 A 
ATOM     22  C   UNL     1       0.320  10.577  20.928  0.00  0.00    +0.000 A 
ATOM     23  N   UNL     1       0.713   9.267  20.815  0.00  0.00    +0.000 N 
ATOM     24  H   UNL     1       1.924   7.128  20.000  0.00  0.00    +0.000 HD
ATOM     25  H   UNL     1       0.607   8.565  21.529  0.00  0.00    +0.000 HD
ENDBRANCH   3  12
BRANCH   1  26
ATOM     26  C   UNL     1       3.038   3.203  20.219  0.00  0.00    +0.000 C 
BRANCH  26  28
ATOM     27  C   UNL     1       0.644   2.624  19.544  0.00  0.00    +0.000 C 
ATOM     28  C   UNL     1       1.539   3.237  20.622  0.00  0.00    +0.000 C 
ATOM     29  C   UNL     1       1.307   2.514  21.952  0.00  0.00    +0.000 C 
ENDBRANCH  26  28
ENDBRANCH   1  26
TORSDOF 3
ENDMDL
