MODEL 1
REMARK VINA RESULT:      -8.5      0.000      0.000
REMARK  Name = 
REMARK  5 active torsions:
REMARK  status: ('A' for Active; 'I' for Inactive)
REMARK    1  A    between atoms: C_1  and  N_2
REMARK    2  A    between atoms: N_2  and  C_3
REMARK    3  A    between atoms: C_3  and  C_4
REMARK    4  A    between atoms: N_12  and  C_13
REMARK    5  A    between atoms: C_16  and  C_18
REMARK                            x       y       z     vdW  Elec       q    Type
REMARK                         _______ _______ _______ _____ _____    ______ ____
ROOT
ATOM      1  C   UNL     1       3.589   1.988  19.345  0.00  0.00    +0.000 C 
ATOM      2  N   UNL     1       3.574   3.438  19.512  0.00  0.00    +0.000 N 
ATOM      3  C   UNL     1       2.317   3.987  19.798  0.00  0.00    +0.000 C 
ATOM      4  O   UNL     1       1.325   3.292  20.024  0.00  0.00    +0.000 OA
ENDROOT
BRANCH   3   5
ATOM      5  C   UNL     1       2.127   5.458  19.864  0.00  0.00    +0.000 A 
ATOM      6  C   UNL     1       1.474   5.980  20.983  0.00  0.00    +0.000 A 
ATOM      7  C   UNL     1       1.228   7.351  21.075  0.00  0.00    +0.000 A 
ATOM      8  C   UNL     1       1.543   8.202  20.009  0.00  0.00    +0.000 A 
ATOM      9  C   UNL     1       1.222   9.566  20.054  0.00  0.00    +0.000 A 
ATOM     10  C   UNL     1       1.271  10.335  18.894  0.00  0.00    +0.000 A 
ATOM     11  C   UNL     1       1.766   9.788  17.714  0.00  0.00    +0.000 A 
ATOM     12  C   UNL     1       2.251   8.479  17.701  0.00  0.00    +0.000 A 
ATOM     13  C   UNL     1       2.106   7.660  18.830  0.00  0.00    +0.000 A 
ATOM     14  C   UNL     1       2.430   6.294  18.784  0.00  0.00    +0.000 A 
ENDBRANCH   3   5
BRANCH   2  15
ATOM     15  C   UNL     1       4.782   4.249  19.320  0.00  0.00    +0.000 C 
BRANCH  15  16
ATOM     16  C   UNL     1       5.302   4.314  17.924  0.00  0.00    +0.000 A 
ATOM     17  N   UNL     1       4.653   3.868  16.861  0.00  0.00    +0.000 NA
ATOM     18  C   UNL     1       5.459   4.132  15.789  0.00  0.00    +0.000 A 
ATOM     19  C   UNL     1       5.239   3.859  14.432  0.00  0.00    +0.000 A 
ATOM     20  C   UNL     1       6.216   4.236  13.502  0.00  0.00    +0.000 A 
ATOM     21  C   UNL     1       7.387   4.865  13.921  0.00  0.00    +0.000 A 
ATOM     22  C   UNL     1       7.617   5.142  15.277  0.00  0.00    +0.000 A 
ATOM     23  C   UNL     1       6.635   4.761  16.192  0.00  0.00    +0.000 A 
ATOM     24  N   UNL     1       6.518   4.857  17.559  0.00  0.00    +0.000 N 
BRANCH  24  25
ATOM     25  C   UNL     1       7.489   5.405  18.474  0.00  0.00    +0.000 C 
ATOM     26  F   UNL     1       8.582   4.602  18.566  0.00  0.00    +0.000 F 
ATOM     27  F   UNL     1       7.930   6.620  18.057  0.00  0.00    +0.000 F 
ENDBRANCH  24  25
ENDBRANCH  15  16
ENDBRANCH   2  15
TORSDOF 4
ENDMDL
MODEL 2
REMARK VINA RESULT:      -8.4      2.862      7.014
REMARK  Name = 
REMARK  5 active torsions:
REMARK  status: ('A' for Active; 'I' for Inactive)
REMARK    1  A    between atoms: C_1  and  N_2
REMARK    2  A    between atoms: N_2  and  C_3
REMARK    3  A    between atoms: C_3  and  C_4
REMARK    4  A    between atoms: N_12  and  C_13
REMARK    5  A    between atoms: C_16  and  C_18
REMARK                            x       y       z     vdW  Elec       q    Type
REMARK                         _______ _______ _______ _____ _____    ______ ____
ROOT
ATOM      1  C   UNL     1       7.853   5.698  19.851  0.00  0.00    +0.000 C 
ATOM      2  N   UNL     1       7.044   5.469  18.658  0.00  0.00    +0.000 N 
ATOM      3  C   UNL     1       7.651   4.676  17.675  0.00  0.00    +0.000 C 
ATOM      4  O   UNL     1       8.728   4.106  17.854  0.00  0.00    +0.000 OA
ENDROOT
BRANCH   3   5
ATOM      5  C   UNL     1       6.999   4.467  16.358  0.00  0.00    +0.000 A 
ATOM      6  C   UNL     1       5.892   3.616  16.307  0.00  0.00    +0.000 A 
ATOM      7  C   UNL     1       5.269   3.348  15.087  0.00  0.00    +0.000 A 
ATOM      8  C   UNL     1       5.803   3.846  13.892  0.00  0.00    +0.000 A 
ATOM      9  C   UNL     1       5.237   3.512  12.654  0.00  0.00    +0.000 A 
ATOM     10  C   UNL     1       5.934   3.766  11.475  0.00  0.00    +0.000 A 
ATOM     11  C   UNL     1       7.132   4.474  11.512  0.00  0.00    +0.000 A 
ATOM     12  C   UNL     1       7.618   4.962  12.726  0.00  0.00    +0.000 A 
ATOM     13  C   UNL     1       6.986   4.619  13.930  0.00  0.00    +0.000 A 
ATOM     14  C   UNL     1       7.553   4.956  15.170  0.00  0.00    +0.000 A 
ENDBRANCH   3   5
BRANCH   2  15
ATOM     15  C   UNL     1       5.723   6.088  18.491  0.00  0.00    +0.000 C 
BRANCH  15  16
ATOM     16  C   UNL     1       4.574   5.319  19.048  0.00  0.00    +0.000 A 
ATOM     17  N   UNL     1       4.652   4.079  19.503  0.00  0.00    +0.000 NA
ATOM     18  C   UNL     1       3.396   3.757  19.937  0.00  0.00    +0.000 A 
ATOM     19  C   UNL     1       2.939   2.560  20.506  0.00  0.00    +0.000 A 
ATOM     20  C   UNL     1       1.594   2.465  20.885  0.00  0.00    +0.000 A 
ATOM     21  C   UNL     1       0.727   3.540  20.694  0.00  0.00    +0.000 A 
ATOM     22  C   UNL     1       1.173   4.741  20.124  0.00  0.00    +0.000 A 
ATOM     23  C   UNL     1       2.516   4.822  19.751  0.00  0.00    +0.000 A 
ATOM     24  N   UNL     1       3.286   5.803  19.174  0.00  0.00    +0.000 N 
BRANCH  24  25
ATOM     25  C   UNL     1       2.847   7.109  18.746  0.00  0.00    +0.000 C 
ATOM     26  F   UNL     1       1.906   7.012  17.770  0.00  0.00    +0.000 F 
ATOM     27  F   UNL     1       2.280   7.799  19.770  0.00  0.00    +0.000 F 
ENDBRANCH  24  25
ENDBRANCH  15  16
ENDBRANCH   2  15
TORSDOF 4
ENDMDL
MODEL 3
REMARK VINA RESULT:      -8.2      0.833      1.055
REMARK  Name = 
REMARK  5 active torsions:
REMARK  status: ('A' for Active; 'I' for Inactive)
REMARK    1  A    between atoms: C_1  and  N_2
REMARK    2  A    between atoms: N_2  and  C_3
REMARK    3  A    between atoms: C_3  and  C_4
REMARK    4  A    between atoms: N_12  and  C_13
REMARK    5  A    between atoms: C_16  and  C_18
REMARK                            x       y       z     vdW  Elec       q    Type
REMARK                         _______ _______ _______ _____ _____    ______ ____
ROOT
ATOM      1  C   UNL     1       3.740   1.806  18.017  0.00  0.00    +0.000 C 
ATOM      2  N   UNL     1       3.730   3.203  18.438  0.00  0.00    +0.000 N 
ATOM      3  C   UNL     1       2.494   3.671  18.904  0.00  0.00    +0.000 C 
ATOM      4  O   UNL     1       1.525   2.931  19.073  0.00  0.00    +0.000 OA
ENDROOT
BRANCH   3   5
ATOM      5  C   UNL     1       2.303   5.104  19.244  0.00  0.00    +0.000 A 
ATOM      6  C   UNL     1       1.766   5.410  20.497  0.00  0.00    +0.000 A 
ATOM      7  C   UNL     1       1.523   6.739  20.849  0.00  0.00    +0.000 A 
ATOM      8  C   UNL     1       1.720   7.768  19.920  0.00  0.00    +0.000 A 
ATOM      9  C   UNL     1       1.397   9.095  20.234  0.00  0.00    +0.000 A 
ATOM     10  C   UNL     1       1.319  10.053  19.226  0.00  0.00    +0.000 A 
ATOM     11  C   UNL     1       1.693   9.729  17.925  0.00  0.00    +0.000 A 
ATOM     12  C   UNL     1       2.182   8.454  17.636  0.00  0.00    +0.000 A 
ATOM     13  C   UNL     1       2.160   7.449  18.615  0.00  0.00    +0.000 A 
ATOM     14  C   UNL     1       2.486   6.121  18.300  0.00  0.00    +0.000 A 
ENDBRANCH   3   5
BRANCH   2  15
ATOM     15  C   UNL     1       4.917   4.056  18.310  0.00  0.00    +0.000 C 
BRANCH  15  16
ATOM     16  C   UNL     1       5.478   4.180  16.933  0.00  0.00    +0.000 A 
ATOM     17  N   UNL     1       4.962   3.605  15.860  0.00  0.00    +0.000 NA
ATOM     18  C   UNL     1       5.755   3.982  14.812  0.00  0.00    +0.000 A 
ATOM     19  C   UNL     1       5.644   3.645  13.456  0.00  0.00    +0.000 A 
ATOM     20  C   UNL     1       6.581   4.166  12.554  0.00  0.00    +0.000 A 
ATOM     21  C   UNL     1       7.606   4.998  13.000  0.00  0.00    +0.000 A 
ATOM     22  C   UNL     1       7.727   5.340  14.355  0.00  0.00    +0.000 A 
ATOM     23  C   UNL     1       6.787   4.814  15.242  0.00  0.00    +0.000 A 
ATOM     24  N   UNL     1       6.597   4.918  16.599  0.00  0.00    +0.000 N 
BRANCH  24  25
ATOM     25  C   UNL     1       7.418   5.646  17.535  0.00  0.00    +0.000 C 
ATOM     26  F   UNL     1       6.687   6.571  18.211  0.00  0.00    +0.000 F 
ATOM     27  F   UNL     1       7.959   4.818  18.466  0.00  0.00    +0.000 F 
ENDBRANCH  24  25
ENDBRANCH  15  16
ENDBRANCH   2  15
TORSDOF 4
ENDMDL
MODEL 4
REMARK VINA RESULT:      -8.1      0.698      1.527
REMARK  Name = 
REMARK  5 active torsions:
REMARK  status: ('A' for Active; 'I' for Inactive)
REMARK    1  A    between atoms: C_1  and  N_2
REMARK    2  A    between atoms: N_2  and  C_3
REMARK    3  A    between atoms: C_3  and  C_4
REMARK    4  A    between atoms: N_12  and  C_13
REMARK    5  A    between atoms: C_16  and  C_18
REMARK                            x       y       z     vdW  Elec       q    Type
REMARK                         _______ _______ _______ _____ _____    ______ ____
ROOT
ATOM      1  C   UNL     1       4.160   2.363  19.851  0.00  0.00    +0.000 C 
ATOM      2  N   UNL     1       3.922   3.796  19.714  0.00  0.00    +0.000 N 
ATOM      3  C   UNL     1       2.590   4.194  19.892  0.00  0.00    +0.000 C 
ATOM      4  O   UNL     1       1.711   3.418  20.267  0.00  0.00    +0.000 OA
ENDROOT
BRANCH   3   5
ATOM      5  C   UNL     1       2.180   5.601  19.655  0.00  0.00    +0.000 A 
ATOM      6  C   UNL     1       2.463   6.161  18.407  0.00  0.00    +0.000 A 
ATOM      7  C   UNL     1       2.140   7.494  18.146  0.00  0.00    +0.000 A 
ATOM      8  C   UNL     1       1.622   8.309  19.158  0.00  0.00    +0.000 A 
ATOM      9  C   UNL     1       1.375   9.671  18.933  0.00  0.00    +0.000 A 
ATOM     10  C   UNL     1       1.142  10.527  20.007  0.00  0.00    +0.000 A 
ATOM     11  C   UNL     1       1.018  10.013  21.295  0.00  0.00    +0.000 A 
ATOM     12  C   UNL     1       1.090   8.635  21.506  0.00  0.00    +0.000 A 
ATOM     13  C   UNL     1       1.435   7.774  20.454  0.00  0.00    +0.000 A 
ATOM     14  C   UNL     1       1.679   6.410  20.680  0.00  0.00    +0.000 A 
ENDBRANCH   3   5
BRANCH   2  15
ATOM     15  C   UNL     1       4.998   4.726  19.347  0.00  0.00    +0.000 C 
BRANCH  15  16
ATOM     16  C   UNL     1       5.465   4.646  17.933  0.00  0.00    +0.000 A 
ATOM     17  N   UNL     1       4.932   3.863  17.010  0.00  0.00    +0.000 NA
ATOM     18  C   UNL     1       5.631   4.105  15.860  0.00  0.00    +0.000 A 
ATOM     19  C   UNL     1       5.466   3.533  14.591  0.00  0.00    +0.000 A 
ATOM     20  C   UNL     1       6.306   3.950  13.551  0.00  0.00    +0.000 A 
ATOM     21  C   UNL     1       7.290   4.911  13.777  0.00  0.00    +0.000 A 
ATOM     22  C   UNL     1       7.464   5.488  15.043  0.00  0.00    +0.000 A 
ATOM     23  C   UNL     1       6.621   5.063  16.071  0.00  0.00    +0.000 A 
ATOM     24  N   UNL     1       6.503   5.387  17.401  0.00  0.00    +0.000 N 
BRANCH  24  25
ATOM     25  C   UNL     1       7.321   6.316  18.141  0.00  0.00    +0.000 C 
ATOM     26  F   UNL     1       8.338   5.675  18.775  0.00  0.00    +0.000 F 
ATOM     27  F   UNL     1       7.890   7.236  17.320  0.00  0.00    +0.000 F 
ENDBRANCH  24  25
ENDBRANCH  15  16
ENDBRANCH   2  15
TORSDOF 4
ENDMDL
MODEL 5
REMARK VINA RESULT:      -8.1      2.809      7.329
REMARK  Name = 
REMARK  5 active torsions:
REMARK  status: ('A' for Active; 'I' for Inactive)
REMARK    1  A    between atoms: C_1  and  N_2
REMARK    2  A    between atoms: N_2  and  C_3
REMARK    3  A    between atoms: C_3  and  C_4
REMARK    4  A    between atoms: N_12  and  C_13
REMARK    5  A    between atoms: C_16  and  C_18
REMARK                            x       y       z     vdW  Elec       q    Type
REMARK                         _______ _______ _______ _____ _____    ______ ____
ROOT
ATOM      1  C   UNL     1       1.289   4.917  20.790  0.00  0.00    +0.000 C 
ATOM      2  N   UNL     1       2.333   5.169  19.801  0.00  0.00    +0.000 N 
ATOM      3  C   UNL     1       3.033   4.031  19.378  0.00  0.00    +0.000 C 
ATOM      4  O   UNL     1       2.708   2.890  19.710  0.00  0.00    +0.000 OA
ENDROOT
BRANCH   3   5
ATOM      5  C   UNL     1       4.205   4.151  18.474  0.00  0.00    +0.000 A 
ATOM      6  C   UNL     1       5.395   4.646  19.013  0.00  0.00    +0.000 A 
ATOM      7  C   UNL     1       6.514   4.823  18.198  0.00  0.00    +0.000 A 
ATOM      8  C   UNL     1       6.429   4.603  16.818  0.00  0.00    +0.000 A 
ATOM      9  C   UNL     1       7.520   4.861  15.977  0.00  0.00    +0.000 A 
ATOM     10  C   UNL     1       7.342   4.920  14.597  0.00  0.00    +0.000 A 
ATOM     11  C   UNL     1       6.110   4.590  14.038  0.00  0.00    +0.000 A 
ATOM     12  C   UNL     1       5.064   4.163  14.857  0.00  0.00    +0.000 A 
ATOM     13  C   UNL     1       5.195   4.206  16.253  0.00  0.00    +0.000 A 
ATOM     14  C   UNL     1       4.101   3.945  17.094  0.00  0.00    +0.000 A 
ENDBRANCH   3   5
BRANCH   2  15
ATOM     15  C   UNL     1       2.658   6.527  19.349  0.00  0.00    +0.000 C 
BRANCH  15  16
ATOM     16  C   UNL     1       1.886   7.625  19.999  0.00  0.00    +0.000 A 
ATOM     17  N   UNL     1       1.534   7.642  21.274  0.00  0.00    +0.000 NA
ATOM     18  C   UNL     1       0.866   8.819  21.466  0.00  0.00    +0.000 A 
ATOM     19  C   UNL     1       0.285   9.323  22.638  0.00  0.00    +0.000 A 
ATOM     20  C   UNL     1      -0.346  10.572  22.593  0.00  0.00    +0.000 A 
ATOM     21  C   UNL     1      -0.400  11.296  21.404  0.00  0.00    +0.000 A 
ATOM     22  C   UNL     1       0.177  10.801  20.225  0.00  0.00    +0.000 A 
ATOM     23  C   UNL     1       0.802   9.554  20.284  0.00  0.00    +0.000 A 
ATOM     24  N   UNL     1       1.450   8.770  19.359  0.00  0.00    +0.000 N 
BRANCH  24  25
ATOM     25  C   UNL     1       1.636   9.058  17.958  0.00  0.00    +0.000 C 
ATOM     26  F   UNL     1       0.444   9.266  17.339  0.00  0.00    +0.000 F 
ATOM     27  F   UNL     1       2.372  10.186  17.780  0.00  0.00    +0.000 F 
ENDBRANCH  24  25
ENDBRANCH  15  16
ENDBRANCH   2  15
TORSDOF 4
ENDMDL
MODEL 6
REMARK VINA RESULT:      -7.9      2.098      6.466
REMARK  Name = 
REMARK  5 active torsions:
REMARK  status: ('A' for Active; 'I' for Inactive)
REMARK    1  A    between atoms: C_1  and  N_2
REMARK    2  A    between atoms: N_2  and  C_3
REMARK    3  A    between atoms: C_3  and  C_4
REMARK    4  A    between atoms: N_12  and  C_13
REMARK    5  A    between atoms: C_16  and  C_18
REMARK                            x       y       z     vdW  Elec       q    Type
REMARK                         _______ _______ _______ _____ _____    ______ ____
ROOT
ATOM      1  C   UNL     1       0.722   3.887  20.441  0.00  0.00    +0.000 C 
ATOM      2  N   UNL     1       1.976   4.307  19.824  0.00  0.00    +0.000 N 
ATOM      3  C   UNL     1       2.411   3.503  18.761  0.00  0.00    +0.000 C 
ATOM      4  O   UNL     1       1.725   2.593  18.295  0.00  0.00    +0.000 OA
ENDROOT
BRANCH   3   5
ATOM      5  C   UNL     1       3.732   3.734  18.124  0.00  0.00    +0.000 A 
ATOM      6  C   UNL     1       4.802   4.081  18.952  0.00  0.00    +0.000 A 
ATOM      7  C   UNL     1       6.056   4.354  18.401  0.00  0.00    +0.000 A 
ATOM      8  C   UNL     1       6.229   4.381  17.012  0.00  0.00    +0.000 A 
ATOM      9  C   UNL     1       7.460   4.740  16.445  0.00  0.00    +0.000 A 
ATOM     10  C   UNL     1       7.544   5.045  15.089  0.00  0.00    +0.000 A 
ATOM     11  C   UNL     1       6.437   4.866  14.264  0.00  0.00    +0.000 A 
ATOM     12  C   UNL     1       5.254   4.344  14.788  0.00  0.00    +0.000 A 
ATOM     13  C   UNL     1       5.121   4.138  16.169  0.00  0.00    +0.000 A 
ATOM     14  C   UNL     1       3.888   3.776  16.735  0.00  0.00    +0.000 A 
ENDBRANCH   3   5
BRANCH   2  15
ATOM     15  C   UNL     1       2.746   5.448  20.337  0.00  0.00    +0.000 C 
BRANCH  15  16
ATOM     16  C   UNL     1       2.117   6.787  20.149  0.00  0.00    +0.000 A 
ATOM     17  N   UNL     1       1.350   7.387  21.044  0.00  0.00    +0.000 NA
ATOM     18  C   UNL     1       1.000   8.589  20.495  0.00  0.00    +0.000 A 
ATOM     19  C   UNL     1       0.195   9.603  21.032  0.00  0.00    +0.000 A 
ATOM     20  C   UNL     1      -0.017  10.765  20.279  0.00  0.00    +0.000 A 
ATOM     21  C   UNL     1       0.556  10.905  19.017  0.00  0.00    +0.000 A 
ATOM     22  C   UNL     1       1.362   9.895  18.469  0.00  0.00    +0.000 A 
ATOM     23  C   UNL     1       1.565   8.743  19.231  0.00  0.00    +0.000 A 
ATOM     24  N   UNL     1       2.265   7.578  19.026  0.00  0.00    +0.000 N 
BRANCH  24  25
ATOM     25  C   UNL     1       3.012   7.213  17.848  0.00  0.00    +0.000 C 
ATOM     26  F   UNL     1       2.852   8.134  16.862  0.00  0.00    +0.000 F 
ATOM     27  F   UNL     1       4.344   7.146  18.108  0.00  0.00    +0.000 F 
ENDBRANCH  24  25
ENDBRANCH  15  16
ENDBRANCH   2  15
TORSDOF 4
ENDMDL
MODEL 7
REMARK VINA RESULT:      -7.9      6.431     10.271
REMARK  Name = 
REMARK  5 active torsions:
REMARK  status: ('A' for Active; 'I' for Inactive)
REMARK    1  A    between atoms: C_1  and  N_2
REMARK    2  A    between atoms: N_2  and  C_3
REMARK    3  A    between atoms: C_3  and  C_4
REMARK    4  A    between atoms: N_12  and  C_13
REMARK    5  A    between atoms: C_16  and  C_18
REMARK                            x       y       z     vdW  Elec       q    Type
REMARK                         _______ _______ _______ _____ _____    ______ ____
ROOT
ATOM      1  C   UNL     1      -0.654  13.116  18.115  0.00  0.00    +0.000 C 
ATOM      2  N   UNL     1      -0.443  11.708  18.436  0.00  0.00    +0.000 N 
ATOM      3  C   UNL     1       0.873  11.372  18.782  0.00  0.00    +0.000 C 
ATOM      4  O   UNL     1       1.756  12.217  18.934  0.00  0.00    +0.000 OA
ENDROOT
BRANCH   3   5
ATOM      5  C   UNL     1       1.262   9.957  19.007  0.00  0.00    +0.000 A 
ATOM      6  C   UNL     1       1.001   9.402  20.262  0.00  0.00    +0.000 A 
ATOM      7  C   UNL     1       1.387   8.090  20.543  0.00  0.00    +0.000 A 
ATOM      8  C   UNL     1       2.125   7.352  19.610  0.00  0.00    +0.000 A 
ATOM      9  C   UNL     1       2.593   6.066  19.914  0.00  0.00    +0.000 A 
ATOM     10  C   UNL     1       3.559   5.465  19.110  0.00  0.00    +0.000 A 
ATOM     11  C   UNL     1       3.963   6.079  17.928  0.00  0.00    +0.000 A 
ATOM     12  C   UNL     1       3.374   7.279  17.528  0.00  0.00    +0.000 A 
ATOM     13  C   UNL     1       2.485   7.950  18.380  0.00  0.00    +0.000 A 
ATOM     14  C   UNL     1       2.015   9.237  18.074  0.00  0.00    +0.000 A 
ENDBRANCH   3   5
BRANCH   2  15
ATOM     15  C   UNL     1      -1.525  10.721  18.332  0.00  0.00    +0.000 C 
BRANCH  15  16
ATOM     16  C   UNL     1      -2.909  11.271  18.395  0.00  0.00    +0.000 A 
ATOM     17  N   UNL     1      -3.447  11.826  19.468  0.00  0.00    +0.000 NA
ATOM     18  C   UNL     1      -4.707  12.212  19.103  0.00  0.00    +0.000 A 
ATOM     19  C   UNL     1      -5.693  12.846  19.870  0.00  0.00    +0.000 A 
ATOM     20  C   UNL     1      -6.919  13.155  19.269  0.00  0.00    +0.000 A 
ATOM     21  C   UNL     1      -7.155  12.832  17.934  0.00  0.00    +0.000 A 
ATOM     22  C   UNL     1      -6.175  12.196  17.157  0.00  0.00    +0.000 A 
ATOM     23  C   UNL     1      -4.958  11.894  17.769  0.00  0.00    +0.000 A 
ATOM     24  N   UNL     1      -3.802  11.286  17.340  0.00  0.00    +0.000 N 
BRANCH  24  25
ATOM     25  C   UNL     1      -3.548  10.733  16.033  0.00  0.00    +0.000 C 
ATOM     26  F   UNL     1      -2.502  11.358  15.432  0.00  0.00    +0.000 F 
ATOM     27  F   UNL     1      -3.227   9.415  16.108  0.00  0.00    +0.000 F 
ENDBRANCH  24  25
ENDBRANCH  15  16
ENDBRANCH   2  15
TORSDOF 4
ENDMDL
MODEL 8
REMARK VINA RESULT:      -7.7      4.955      8.452
REMARK  Name = 
REMARK  5 active torsions:
REMARK  status: ('A' for Active; 'I' for Inactive)
REMARK    1  A    between atoms: C_1  and  N_2
REMARK    2  A    between atoms: N_2  and  C_3
REMARK    3  A    between atoms: C_3  and  C_4
REMARK    4  A    between atoms: N_12  and  C_13
REMARK    5  A    between atoms: C_16  and  C_18
REMARK                            x       y       z     vdW  Elec       q    Type
REMARK                         _______ _______ _______ _____ _____    ______ ____
ROOT
ATOM      1  C   UNL     1       2.378  10.779  17.738  0.00  0.00    +0.000 C 
ATOM      2  N   UNL     1       1.925   9.593  18.459  0.00  0.00    +0.000 N 
ATOM      3  C   UNL     1       2.645   8.423  18.183  0.00  0.00    +0.000 C 
ATOM      4  O   UNL     1       3.662   8.418  17.489  0.00  0.00    +0.000 OA
ENDROOT
BRANCH   3   5
ATOM      5  C   UNL     1       2.216   7.117  18.744  0.00  0.00    +0.000 A 
ATOM      6  C   UNL     1       2.087   7.015  20.131  0.00  0.00    +0.000 A 
ATOM      7  C   UNL     1       1.732   5.798  20.715  0.00  0.00    +0.000 A 
ATOM      8  C   UNL     1       1.598   4.646  19.930  0.00  0.00    +0.000 A 
ATOM      9  C   UNL     1       1.327   3.402  20.515  0.00  0.00    +0.000 A 
ATOM     10  C   UNL     1       1.483   2.232  19.775  0.00  0.00    +0.000 A 
ATOM     11  C   UNL     1       1.777   2.300  18.416  0.00  0.00    +0.000 A 
ATOM     12  C   UNL     1       1.878   3.541  17.785  0.00  0.00    +0.000 A 
ATOM     13  C   UNL     1       1.834   4.724  18.538  0.00  0.00    +0.000 A 
ATOM     14  C   UNL     1       2.103   5.970  17.951  0.00  0.00    +0.000 A 
ENDBRANCH   3   5
BRANCH   2  15
ATOM     15  C   UNL     1       0.759   9.630  19.350  0.00  0.00    +0.000 C 
BRANCH  15  16
ATOM     16  C   UNL     1      -0.519  10.072  18.722  0.00  0.00    +0.000 A 
ATOM     17  N   UNL     1      -0.956   9.662  17.542  0.00  0.00    +0.000 NA
ATOM     18  C   UNL     1      -2.159  10.284  17.349  0.00  0.00    +0.000 A 
ATOM     19  C   UNL     1      -3.033  10.193  16.257  0.00  0.00    +0.000 A 
ATOM     20  C   UNL     1      -4.227  10.924  16.288  0.00  0.00    +0.000 A 
ATOM     21  C   UNL     1      -4.535  11.732  17.381  0.00  0.00    +0.000 A 
ATOM     22  C   UNL     1      -3.666  11.832  18.478  0.00  0.00    +0.000 A 
ATOM     23  C   UNL     1      -2.480  11.097  18.434  0.00  0.00    +0.000 A 
ATOM     24  N   UNL     1      -1.416  10.955  19.293  0.00  0.00    +0.000 N 
BRANCH  24  25
ATOM     25  C   UNL     1      -1.234  11.615  20.562  0.00  0.00    +0.000 C 
ATOM     26  F   UNL     1      -1.074  10.712  21.565  0.00  0.00    +0.000 F 
ATOM     27  F   UNL     1      -0.122  12.395  20.557  0.00  0.00    +0.000 F 
ENDBRANCH  24  25
ENDBRANCH  15  16
ENDBRANCH   2  15
TORSDOF 4
ENDMDL
MODEL 9
REMARK VINA RESULT:      -7.6      3.005      7.057
REMARK  Name = 
REMARK  5 active torsions:
REMARK  status: ('A' for Active; 'I' for Inactive)
REMARK    1  A    between atoms: C_1  and  N_2
REMARK    2  A    between atoms: N_2  and  C_3
REMARK    3  A    between atoms: C_3  and  C_4
REMARK    4  A    between atoms: N_12  and  C_13
REMARK    5  A    between atoms: C_16  and  C_18
REMARK                            x       y       z     vdW  Elec       q    Type
REMARK                         _______ _______ _______ _____ _____    ______ ____
ROOT
ATOM      1  C   UNL     1       7.765   6.253  19.158  0.00  0.00    +0.000 C 
ATOM      2  N   UNL     1       7.189   5.463  18.074  0.00  0.00    +0.000 N 
ATOM      3  C   UNL     1       7.271   6.050  16.805  0.00  0.00    +0.000 C 
ATOM      4  O   UNL     1       7.899   7.089  16.594  0.00  0.00    +0.000 OA
ENDROOT
BRANCH   3   5
ATOM      5  C   UNL     1       6.614   5.421  15.632  0.00  0.00    +0.000 A 
ATOM      6  C   UNL     1       5.259   5.098  15.740  0.00  0.00    +0.000 A 
ATOM      7  C   UNL     1       4.603   4.463  14.684  0.00  0.00    +0.000 A 
ATOM      8  C   UNL     1       5.314   4.055  13.550  0.00  0.00    +0.000 A 
ATOM      9  C   UNL     1       4.684   3.339  12.522  0.00  0.00    +0.000 A 
ATOM     10  C   UNL     1       5.445   2.692  11.551  0.00  0.00    +0.000 A 
ATOM     11  C   UNL     1       6.826   2.864  11.519  0.00  0.00    +0.000 A 
ATOM     12  C   UNL     1       7.445   3.715  12.435  0.00  0.00    +0.000 A 
ATOM     13  C   UNL     1       6.707   4.283  13.484  0.00  0.00    +0.000 A 
ATOM     14  C   UNL     1       7.339   5.002  14.511  0.00  0.00    +0.000 A 
ENDBRANCH   3   5
BRANCH   2  15
ATOM     15  C   UNL     1       6.515   4.183  18.327  0.00  0.00    +0.000 C 
BRANCH  15  16
ATOM     16  C   UNL     1       5.147   4.278  18.913  0.00  0.00    +0.000 A 
ATOM     17  N   UNL     1       4.517   5.414  19.164  0.00  0.00    +0.000 NA
ATOM     18  C   UNL     1       3.297   5.063  19.673  0.00  0.00    +0.000 A 
ATOM     19  C   UNL     1       2.249   5.890  20.101  0.00  0.00    +0.000 A 
ATOM     20  C   UNL     1       1.076   5.296  20.582  0.00  0.00    +0.000 A 
ATOM     21  C   UNL     1       0.957   3.908  20.638  0.00  0.00    +0.000 A 
ATOM     22  C   UNL     1       2.000   3.072  20.214  0.00  0.00    +0.000 A 
ATOM     23  C   UNL     1       3.163   3.678  19.737  0.00  0.00    +0.000 A 
ATOM     24  N   UNL     1       4.358   3.197  19.257  0.00  0.00    +0.000 N 
BRANCH  24  25
ATOM     25  C   UNL     1       4.752   1.815  19.143  0.00  0.00    +0.000 C 
ATOM     26  F   UNL     1       4.998   1.274  20.366  0.00  0.00    +0.000 F 
ATOM     27  F   UNL     1       3.772   1.067  18.574  0.00  0.00    +0.000 F 
ENDBRANCH  24  25
ENDBRANCH  15  16
ENDBRANCH   2  15
TORSDOF 4
ENDMDL
