MODEL 1
REMARK VINA RESULT:      -8.4      0.000      0.000
REMARK  Name = 
REMARK  7 active torsions:
REMARK  status: ('A' for Active; 'I' for Inactive)
REMARK    1  A    between atoms: C_1  and  C_2
REMARK    2  A    between atoms: C_5  and  C_6
REMARK    3  A    between atoms: C_6  and  C_7
REMARK    4  A    between atoms: N_11  and  C_12
REMARK    5  A    between atoms: C_12  and  C_13
REMARK    6  A    between atoms: N_23  and  C_24
REMARK    7  A    between atoms: C_24  and  C_25
REMARK                            x       y       z     vdW  Elec       q    Type
REMARK                         _______ _______ _______ _____ _____    ______ ____
ROOT
ATOM      1  C   UNL     1       1.885   6.652  20.245  0.00  0.00    +0.000 C 
ATOM      2  O   UNL     1       1.789   6.464  21.474  0.00  0.00    +0.000 OA
ATOM      3  N   UNL     1       1.469   5.600  19.327  0.00  0.00    +0.000 N 
ATOM      4  C   UNL     1       1.333   4.375  20.119  0.00  0.00    +0.000 C 
ATOM      5  C   UNL     1       2.527   3.504  19.646  0.00  0.00    +0.000 C 
ATOM      6  C   UNL     1       1.745   2.755  18.495  0.00  0.00    +0.000 C 
ATOM      7  C   UNL     1       1.367   3.772  17.390  0.00  0.00    +0.000 C 
ATOM      8  C   UNL     1       1.946   5.165  17.795  0.00  0.00    +0.000 C 
ATOM      9  C   UNL     1       3.486   4.901  17.783  0.00  0.00    +0.000 C 
ATOM     10  C   UNL     1       4.360   3.676  17.267  0.00  0.00    +0.000 C 
ATOM     11  N   UNL     1       5.590   3.680  18.137  0.00  0.00    +0.000 NA
ATOM     12  C   UNL     1       5.200   4.517  19.257  0.00  0.00    +0.000 C 
ATOM     13  C   UNL     1       3.703   4.587  19.241  0.00  0.00    +0.000 C 
ENDROOT
BRANCH   1  14
ATOM     14  C   UNL     1       2.565   7.985  19.866  0.00  0.00    +0.000 C 
BRANCH  14  20
ATOM     15  C   UNL     1      -0.085  10.684  18.852  0.00  0.00    +0.000 C 
ATOM     16  C   UNL     1       0.499  12.097  19.075  0.00  0.00    +0.000 C 
ATOM     17  N   UNL     1       0.528  10.108  17.653  0.00  0.00    +0.000 N 
ATOM     18  C   UNL     1       1.534   9.203  17.920  0.00  0.00    +0.000 C 
ATOM     19  O   UNL     1       2.180   8.631  17.057  0.00  0.00    +0.000 OA
ATOM     20  N   UNL     1       1.634   9.012  19.260  0.00  0.00    +0.000 N 
ATOM     21  C   UNL     1       0.576   9.678  19.864  0.00  0.00    +0.000 C 
ATOM     22  O   UNL     1       0.232   9.550  21.023  0.00  0.00    +0.000 OA
ATOM     23  H   UNL     1       0.310  10.373  16.700  0.00  0.00    +0.000 HD
BRANCH  15  28
ATOM     24  C   UNL     1      -5.875  11.308  17.748  0.00  0.00    +0.000 C 
ATOM     25  C   UNL     1      -4.421  11.109  18.065  0.00  0.00    +0.000 A 
ATOM     26  C   UNL     1      -3.668  10.110  17.466  0.00  0.00    +0.000 A 
ATOM     27  C   UNL     1      -2.303   9.936  17.746  0.00  0.00    +0.000 A 
ATOM     28  C   UNL     1      -1.614  10.783  18.686  0.00  0.00    +0.000 A 
ATOM     29  C   UNL     1      -2.376  11.793  19.279  0.00  0.00    +0.000 A 
ATOM     30  C   UNL     1      -3.751  11.971  18.978  0.00  0.00    +0.000 A 
ENDBRANCH  15  28
ENDBRANCH  14  20
ENDBRANCH   1  14
BRANCH  11  31
ATOM     31  C   UNL     1       6.787   4.222  17.444  0.00  0.00    +0.000 C 
BRANCH  31  32
ATOM     32  C   UNL     1       7.147   5.688  17.713  0.00  0.00    +0.000 A 
ATOM     33  C   UNL     1       6.655   6.734  16.914  0.00  0.00    +0.000 A 
ATOM     34  C   UNL     1       7.068   8.053  17.139  0.00  0.00    +0.000 A 
ATOM     35  C   UNL     1       7.948   8.352  18.179  0.00  0.00    +0.000 A 
ATOM     36  C   UNL     1       8.418   7.333  19.010  0.00  0.00    +0.000 A 
ATOM     37  C   UNL     1       8.018   6.017  18.771  0.00  0.00    +0.000 A 
ENDBRANCH  31  32
ENDBRANCH  11  31
TORSDOF 5
ENDMDL
MODEL 2
REMARK VINA RESULT:      -8.2      3.997     11.087
REMARK  Name = 
REMARK  7 active torsions:
REMARK  status: ('A' for Active; 'I' for Inactive)
REMARK    1  A    between atoms: C_1  and  C_2
REMARK    2  A    between atoms: C_5  and  C_6
REMARK    3  A    between atoms: C_6  and  C_7
REMARK    4  A    between atoms: N_11  and  C_12
REMARK    5  A    between atoms: C_12  and  C_13
REMARK    6  A    between atoms: N_23  and  C_24
REMARK    7  A    between atoms: C_24  and  C_25
REMARK                            x       y       z     vdW  Elec       q    Type
REMARK                         _______ _______ _______ _____ _____    ______ ____
ROOT
ATOM      1  C   UNL     1      -0.845  13.922  22.529  0.00  0.00    +0.000 C 
ATOM      2  O   UNL     1      -0.466  13.035  23.320  0.00  0.00    +0.000 OA
ATOM      3  N   UNL     1      -1.542  15.091  23.047  0.00  0.00    +0.000 N 
ATOM      4  C   UNL     1      -1.943  14.772  24.420  0.00  0.00    +0.000 C 
ATOM      5  C   UNL     1      -3.485  14.626  24.322  0.00  0.00    +0.000 C 
ATOM      6  C   UNL     1      -3.819  16.134  24.657  0.00  0.00    +0.000 C 
ATOM      7  C   UNL     1      -3.304  17.037  23.510  0.00  0.00    +0.000 C 
ATOM      8  C   UNL     1      -2.684  16.117  22.410  0.00  0.00    +0.000 C 
ATOM      9  C   UNL     1      -3.921  15.291  21.932  0.00  0.00    +0.000 C 
ATOM     10  C   UNL     1      -5.479  15.430  22.219  0.00  0.00    +0.000 C 
ATOM     11  N   UNL     1      -6.023  14.030  22.111  0.00  0.00    +0.000 NA
ATOM     12  C   UNL     1      -4.833  13.204  22.205  0.00  0.00    +0.000 C 
ATOM     13  C   UNL     1      -3.759  14.065  22.796  0.00  0.00    +0.000 C 
ENDROOT
BRANCH   1  14
ATOM     14  C   UNL     1      -0.608  13.579  21.043  0.00  0.00    +0.000 C 
BRANCH  14  20
ATOM     15  C   UNL     1       0.149   9.774  20.511  0.00  0.00    +0.000 C 
ATOM     16  C   UNL     1      -0.269   8.979  21.769  0.00  0.00    +0.000 C 
ATOM     17  N   UNL     1      -1.059  10.152  19.774  0.00  0.00    +0.000 N 
ATOM     18  C   UNL     1      -1.445  11.461  19.971  0.00  0.00    +0.000 C 
ATOM     19  O   UNL     1      -2.436  11.961  19.462  0.00  0.00    +0.000 OA
ATOM     20  N   UNL     1      -0.531  12.097  20.747  0.00  0.00    +0.000 N 
ATOM     21  C   UNL     1       0.545  11.238  20.925  0.00  0.00    +0.000 C 
ATOM     22  O   UNL     1       1.627  11.549  21.383  0.00  0.00    +0.000 OA
ATOM     23  H   UNL     1      -1.625   9.524  19.216  0.00  0.00    +0.000 HD
BRANCH  15  28
ATOM     24  C   UNL     1       4.100   6.628  17.407  0.00  0.00    +0.000 C 
ATOM     25  C   UNL     1       3.059   7.388  18.178  0.00  0.00    +0.000 A 
ATOM     26  C   UNL     1       2.679   7.020  19.460  0.00  0.00    +0.000 A 
ATOM     27  C   UNL     1       1.720   7.741  20.189  0.00  0.00    +0.000 A 
ATOM     28  C   UNL     1       1.068   8.900  19.635  0.00  0.00    +0.000 A 
ATOM     29  C   UNL     1       1.463   9.272  18.347  0.00  0.00    +0.000 A 
ATOM     30  C   UNL     1       2.443   8.545  17.623  0.00  0.00    +0.000 A 
ENDBRANCH  15  28
ENDBRANCH  14  20
ENDBRANCH   1  14
BRANCH  11  31
ATOM     31  C   UNL     1      -6.754  13.789  20.840  0.00  0.00    +0.000 C 
BRANCH  31  32
ATOM     32  C   UNL     1      -6.776  12.350  20.309  0.00  0.00    +0.000 A 
ATOM     33  C   UNL     1      -6.096  11.979  19.137  0.00  0.00    +0.000 A 
ATOM     34  C   UNL     1      -6.204  10.675  18.637  0.00  0.00    +0.000 A 
ATOM     35  C   UNL     1      -6.962   9.718  19.312  0.00  0.00    +0.000 A 
ATOM     36  C   UNL     1      -7.615  10.056  20.500  0.00  0.00    +0.000 A 
ATOM     37  C   UNL     1      -7.519  11.361  20.985  0.00  0.00    +0.000 A 
ENDBRANCH  31  32
ENDBRANCH  11  31
TORSDOF 5
ENDMDL
MODEL 3
REMARK VINA RESULT:      -8.2      3.967     11.115
REMARK  Name = 
REMARK  7 active torsions:
REMARK  status: ('A' for Active; 'I' for Inactive)
REMARK    1  A    between atoms: C_1  and  C_2
REMARK    2  A    between atoms: C_5  and  C_6
REMARK    3  A    between atoms: C_6  and  C_7
REMARK    4  A    between atoms: N_11  and  C_12
REMARK    5  A    between atoms: C_12  and  C_13
REMARK    6  A    between atoms: N_23  and  C_24
REMARK    7  A    between atoms: C_24  and  C_25
REMARK                            x       y       z     vdW  Elec       q    Type
REMARK                         _______ _______ _______ _____ _____    ______ ____
ROOT
ATOM      1  C   UNL     1      -1.030  13.775  22.394  0.00  0.00    +0.000 C 
ATOM      2  O   UNL     1      -0.603  12.899  23.173  0.00  0.00    +0.000 OA
ATOM      3  N   UNL     1      -1.735  14.929  22.934  0.00  0.00    +0.000 N 
ATOM      4  C   UNL     1      -2.079  14.605  24.321  0.00  0.00    +0.000 C 
ATOM      5  C   UNL     1      -3.620  14.424  24.278  0.00  0.00    +0.000 C 
ATOM      6  C   UNL     1      -3.977  15.925  24.622  0.00  0.00    +0.000 C 
ATOM      7  C   UNL     1      -3.522  16.836  23.456  0.00  0.00    +0.000 C 
ATOM      8  C   UNL     1      -2.921  15.927  22.336  0.00  0.00    +0.000 C 
ATOM      9  C   UNL     1      -4.155  15.072  21.904  0.00  0.00    +0.000 C 
ATOM     10  C   UNL     1      -5.705  15.176  22.245  0.00  0.00    +0.000 C 
ATOM     11  N   UNL     1      -6.220  13.764  22.159  0.00  0.00    +0.000 NA
ATOM     12  C   UNL     1      -5.009  12.966  22.212  0.00  0.00    +0.000 C 
ATOM     13  C   UNL     1      -3.935  13.853  22.763  0.00  0.00    +0.000 C 
ENDROOT
BRANCH   1  14
ATOM     14  C   UNL     1      -0.837  13.433  20.901  0.00  0.00    +0.000 C 
BRANCH  14  20
ATOM     15  C   UNL     1       0.184   9.677  20.473  0.00  0.00    +0.000 C 
ATOM     16  C   UNL     1      -0.362   8.851  21.658  0.00  0.00    +0.000 C 
ATOM     17  N   UNL     1      -0.927  10.000  19.575  0.00  0.00    +0.000 N 
ATOM     18  C   UNL     1      -1.405  11.285  19.718  0.00  0.00    +0.000 C 
ATOM     19  O   UNL     1      -2.339  11.739  19.077  0.00  0.00    +0.000 OA
ATOM     20  N   UNL     1      -0.642  11.961  20.616  0.00  0.00    +0.000 N 
ATOM     21  C   UNL     1       0.442  11.157  20.941  0.00  0.00    +0.000 C 
ATOM     22  O   UNL     1       1.432  11.519  21.546  0.00  0.00    +0.000 OA
ATOM     23  H   UNL     1      -1.375   9.349  18.942  0.00  0.00    +0.000 HD
BRANCH  15  28
ATOM     24  C   UNL     1       3.932   6.327  17.332  0.00  0.00    +0.000 C 
ATOM     25  C   UNL     1       3.026   7.208  18.142  0.00  0.00    +0.000 A 
ATOM     26  C   UNL     1       2.508   8.392  17.638  0.00  0.00    +0.000 A 
ATOM     27  C   UNL     1       1.646   9.207  18.388  0.00  0.00    +0.000 A 
ATOM     28  C   UNL     1       1.262   8.861  19.732  0.00  0.00    +0.000 A 
ATOM     29  C   UNL     1       1.779   7.662  20.231  0.00  0.00    +0.000 A 
ATOM     30  C   UNL     1       2.639   6.837  19.460  0.00  0.00    +0.000 A 
ENDBRANCH  15  28
ENDBRANCH  14  20
ENDBRANCH   1  14
BRANCH  11  31
ATOM     31  C   UNL     1      -6.990  13.503  20.915  0.00  0.00    +0.000 C 
BRANCH  31  32
ATOM     32  C   UNL     1      -7.110  12.043  20.461  0.00  0.00    +0.000 A 
ATOM     33  C   UNL     1      -7.811  11.086  21.212  0.00  0.00    +0.000 A 
ATOM     34  C   UNL     1      -7.833   9.745  20.809  0.00  0.00    +0.000 A 
ATOM     35  C   UNL     1      -7.185   9.346  19.639  0.00  0.00    +0.000 A 
ATOM     36  C   UNL     1      -6.515  10.289  18.857  0.00  0.00    +0.000 A 
ATOM     37  C   UNL     1      -6.480  11.622  19.272  0.00  0.00    +0.000 A 
ENDBRANCH  31  32
ENDBRANCH  11  31
TORSDOF 5
ENDMDL
MODEL 4
REMARK VINA RESULT:      -8.1      1.700      2.161
REMARK  Name = 
REMARK  7 active torsions:
REMARK  status: ('A' for Active; 'I' for Inactive)
REMARK    1  A    between atoms: C_1  and  C_2
REMARK    2  A    between atoms: C_5  and  C_6
REMARK    3  A    between atoms: C_6  and  C_7
REMARK    4  A    between atoms: N_11  and  C_12
REMARK    5  A    between atoms: C_12  and  C_13
REMARK    6  A    between atoms: N_23  and  C_24
REMARK    7  A    between atoms: C_24  and  C_25
REMARK                            x       y       z     vdW  Elec       q    Type
REMARK                         _______ _______ _______ _____ _____    ______ ____
ROOT
ATOM      1  C   UNL     1       1.654   7.006  20.133  0.00  0.00    +0.000 C 
ATOM      2  O   UNL     1       1.616   7.132  21.373  0.00  0.00    +0.000 OA
ATOM      3  N   UNL     1       1.356   5.710  19.537  0.00  0.00    +0.000 N 
ATOM      4  C   UNL     1       1.403   4.725  20.620  0.00  0.00    +0.000 C 
ATOM      5  C   UNL     1       2.689   3.911  20.312  0.00  0.00    +0.000 C 
ATOM      6  C   UNL     1       1.981   2.801  19.437  0.00  0.00    +0.000 C 
ATOM      7  C   UNL     1       1.443   3.445  18.136  0.00  0.00    +0.000 C 
ATOM      8  C   UNL     1       1.845   4.955  18.140  0.00  0.00    +0.000 C 
ATOM      9  C   UNL     1       3.405   4.884  18.103  0.00  0.00    +0.000 C 
ATOM     10  C   UNL     1       4.419   3.682  17.863  0.00  0.00    +0.000 C 
ATOM     11  N   UNL     1       5.660   4.058  18.629  0.00  0.00    +0.000 NA
ATOM     12  C   UNL     1       5.194   5.103  19.522  0.00  0.00    +0.000 C 
ATOM     13  C   UNL     1       3.701   4.985  19.578  0.00  0.00    +0.000 C 
ENDROOT
BRANCH   1  14
ATOM     14  C   UNL     1       2.142   8.267  19.390  0.00  0.00    +0.000 C 
BRANCH  14  20
ATOM     15  C   UNL     1      -0.036  11.383  20.329  0.00  0.00    +0.000 C 
ATOM     16  C   UNL     1       0.787  12.674  20.125  0.00  0.00    +0.000 C 
ATOM     17  N   UNL     1      -0.435  10.869  19.017  0.00  0.00    +0.000 N 
ATOM     18  C   UNL     1       0.337   9.818  18.570  0.00  0.00    +0.000 C 
ATOM     19  O   UNL     1       0.177   9.266  17.493  0.00  0.00    +0.000 OA
ATOM     20  N   UNL     1       1.232   9.467  19.529  0.00  0.00    +0.000 N 
ATOM     21  C   UNL     1       0.933  10.193  20.674  0.00  0.00    +0.000 C 
ATOM     22  O   UNL     1       1.389   9.982  21.782  0.00  0.00    +0.000 OA
ATOM     23  H   UNL     1      -1.160  11.264  18.430  0.00  0.00    +0.000 HD
BRANCH  15  28
ATOM     24  C   UNL     1      -4.633  13.096  23.656  0.00  0.00    +0.000 C 
ATOM     25  C   UNL     1      -3.498  12.616  22.798  0.00  0.00    +0.000 A 
ATOM     26  C   UNL     1      -3.459  12.852  21.433  0.00  0.00    +0.000 A 
ATOM     27  C   UNL     1      -2.389  12.421  20.632  0.00  0.00    +0.000 A 
ATOM     28  C   UNL     1      -1.276  11.696  21.190  0.00  0.00    +0.000 A 
ATOM     29  C   UNL     1      -1.316  11.470  22.569  0.00  0.00    +0.000 A 
ATOM     30  C   UNL     1      -2.396  11.922  23.371  0.00  0.00    +0.000 A 
ENDBRANCH  15  28
ENDBRANCH  14  20
ENDBRANCH   1  14
BRANCH  11  31
ATOM     31  C   UNL     1       6.757   4.542  17.751  0.00  0.00    +0.000 C 
BRANCH  31  32
ATOM     32  C   UNL     1       7.132   6.026  17.855  0.00  0.00    +0.000 A 
ATOM     33  C   UNL     1       6.535   7.002  17.041  0.00  0.00    +0.000 A 
ATOM     34  C   UNL     1       6.959   8.336  17.106  0.00  0.00    +0.000 A 
ATOM     35  C   UNL     1       7.957   8.719  18.003  0.00  0.00    +0.000 A 
ATOM     36  C   UNL     1       8.536   7.771  18.849  0.00  0.00    +0.000 A 
ATOM     37  C   UNL     1       8.123   6.439  18.767  0.00  0.00    +0.000 A 
ENDBRANCH  31  32
ENDBRANCH  11  31
TORSDOF 5
ENDMDL
MODEL 5
REMARK VINA RESULT:      -7.8      0.809      1.399
REMARK  Name = 
REMARK  7 active torsions:
REMARK  status: ('A' for Active; 'I' for Inactive)
REMARK    1  A    between atoms: C_1  and  C_2
REMARK    2  A    between atoms: C_5  and  C_6
REMARK    3  A    between atoms: C_6  and  C_7
REMARK    4  A    between atoms: N_11  and  C_12
REMARK    5  A    between atoms: C_12  and  C_13
REMARK    6  A    between atoms: N_23  and  C_24
REMARK    7  A    between atoms: C_24  and  C_25
REMARK                            x       y       z     vdW  Elec       q    Type
REMARK                         _______ _______ _______ _____ _____    ______ ____
ROOT
ATOM      1  C   UNL     1       1.749   7.169  20.063  0.00  0.00    +0.000 C 
ATOM      2  O   UNL     1       1.736   7.369  21.295  0.00  0.00    +0.000 OA
ATOM      3  N   UNL     1       1.385   5.856  19.549  0.00  0.00    +0.000 N 
ATOM      4  C   UNL     1       1.407   4.934  20.688  0.00  0.00    +0.000 C 
ATOM      5  C   UNL     1       2.651   4.048  20.411  0.00  0.00    +0.000 C 
ATOM      6  C   UNL     1       1.882   2.921  19.613  0.00  0.00    +0.000 C 
ATOM      7  C   UNL     1       1.353   3.511  18.283  0.00  0.00    +0.000 C 
ATOM      8  C   UNL     1       1.820   5.000  18.193  0.00  0.00    +0.000 C 
ATOM      9  C   UNL     1       3.374   4.858  18.140  0.00  0.00    +0.000 C 
ATOM     10  C   UNL     1       4.331   3.600  17.957  0.00  0.00    +0.000 C 
ATOM     11  N   UNL     1       5.599   3.966  18.683  0.00  0.00    +0.000 NA
ATOM     12  C   UNL     1       5.193   5.080  19.519  0.00  0.00    +0.000 C 
ATOM     13  C   UNL     1       3.697   5.032  19.602  0.00  0.00    +0.000 C 
ENDROOT
BRANCH   1  14
ATOM     14  C   UNL     1       2.279   8.363  19.241  0.00  0.00    +0.000 C 
BRANCH  14  20
ATOM     15  C   UNL     1      -0.532  11.085  19.402  0.00  0.00    +0.000 C 
ATOM     16  C   UNL     1      -0.263  12.041  20.586  0.00  0.00    +0.000 C 
ATOM     17  N   UNL     1       0.409  11.399  18.324  0.00  0.00    +0.000 N 
ATOM     18  C   UNL     1       1.479  10.533  18.247  0.00  0.00    +0.000 C 
ATOM     19  O   UNL     1       2.381  10.637  17.431  0.00  0.00    +0.000 OA
ATOM     20  N   UNL     1       1.330   9.538  19.159  0.00  0.00    +0.000 N 
ATOM     21  C   UNL     1       0.070   9.668  19.727  0.00  0.00    +0.000 C 
ATOM     22  O   UNL     1      -0.481   8.835  20.420  0.00  0.00    +0.000 OA
ATOM     23  H   UNL     1       0.351  12.205  17.714  0.00  0.00    +0.000 HD
BRANCH  15  28
ATOM     24  C   UNL     1      -6.275  11.473  17.988  0.00  0.00    +0.000 C 
ATOM     25  C   UNL     1      -4.810  11.419  18.313  0.00  0.00    +0.000 A 
ATOM     26  C   UNL     1      -4.242  12.229  19.284  0.00  0.00    +0.000 A 
ATOM     27  C   UNL     1      -2.876  12.166  19.602  0.00  0.00    +0.000 A 
ATOM     28  C   UNL     1      -1.986  11.259  18.923  0.00  0.00    +0.000 A 
ATOM     29  C   UNL     1      -2.566  10.438  17.952  0.00  0.00    +0.000 A 
ATOM     30  C   UNL     1      -3.951  10.499  17.648  0.00  0.00    +0.000 A 
ENDBRANCH  15  28
ENDBRANCH  14  20
ENDBRANCH   1  14
BRANCH  11  31
ATOM     31  C   UNL     1       6.702   4.349  17.764  0.00  0.00    +0.000 C 
BRANCH  31  32
ATOM     32  C   UNL     1       7.248   5.777  17.885  0.00  0.00    +0.000 A 
ATOM     33  C   UNL     1       8.116   6.156  18.923  0.00  0.00    +0.000 A 
ATOM     34  C   UNL     1       8.531   7.488  19.049  0.00  0.00    +0.000 A 
ATOM     35  C   UNL     1       8.115   8.450  18.128  0.00  0.00    +0.000 A 
ATOM     36  C   UNL     1       7.284   8.086  17.066  0.00  0.00    +0.000 A 
ATOM     37  C   UNL     1       6.857   6.761  16.955  0.00  0.00    +0.000 A 
ENDBRANCH  31  32
ENDBRANCH  11  31
TORSDOF 5
ENDMDL
MODEL 6
REMARK VINA RESULT:      -7.7      1.307      1.979
REMARK  Name = 
REMARK  7 active torsions:
REMARK  status: ('A' for Active; 'I' for Inactive)
REMARK    1  A    between atoms: C_1  and  C_2
REMARK    2  A    between atoms: C_5  and  C_6
REMARK    3  A    between atoms: C_6  and  C_7
REMARK    4  A    between atoms: N_11  and  C_12
REMARK    5  A    between atoms: C_12  and  C_13
REMARK    6  A    between atoms: N_23  and  C_24
REMARK    7  A    between atoms: C_24  and  C_25
REMARK                            x       y       z     vdW  Elec       q    Type
REMARK                         _______ _______ _______ _____ _____    ______ ____
ROOT
ATOM      1  C   UNL     1       1.806   6.867  20.322  0.00  0.00    +0.000 C 
ATOM      2  O   UNL     1       1.734   6.691  21.555  0.00  0.00    +0.000 OA
ATOM      3  N   UNL     1       1.405   5.794  19.423  0.00  0.00    +0.000 N 
ATOM      4  C   UNL     1       1.314   4.575  20.231  0.00  0.00    +0.000 C 
ATOM      5  C   UNL     1       2.525   3.731  19.749  0.00  0.00    +0.000 C 
ATOM      6  C   UNL     1       1.745   2.947  18.619  0.00  0.00    +0.000 C 
ATOM      7  C   UNL     1       1.323   3.940  17.509  0.00  0.00    +0.000 C 
ATOM      8  C   UNL     1       1.870   5.353  17.889  0.00  0.00    +0.000 C 
ATOM      9  C   UNL     1       3.416   5.132  17.855  0.00  0.00    +0.000 C 
ATOM     10  C   UNL     1       4.315   3.925  17.340  0.00  0.00    +0.000 C 
ATOM     11  N   UNL     1       5.557   3.973  18.190  0.00  0.00    +0.000 NA
ATOM     12  C   UNL     1       5.162   4.812  19.306  0.00  0.00    +0.000 C 
ATOM     13  C   UNL     1       3.664   4.840  19.313  0.00  0.00    +0.000 C 
ENDROOT
BRANCH   1  14
ATOM     14  C   UNL     1       2.442   8.213  19.917  0.00  0.00    +0.000 C 
BRANCH  14  20
ATOM     15  C   UNL     1      -0.290  10.822  18.887  0.00  0.00    +0.000 C 
ATOM     16  C   UNL     1       0.260  12.253  19.073  0.00  0.00    +0.000 C 
ATOM     17  N   UNL     1       0.321  10.237  17.691  0.00  0.00    +0.000 N 
ATOM     18  C   UNL     1       1.353   9.364  17.962  0.00  0.00    +0.000 C 
ATOM     19  O   UNL     1       2.002   8.791  17.102  0.00  0.00    +0.000 OA
ATOM     20  N   UNL     1       1.477   9.204  19.304  0.00  0.00    +0.000 N 
ATOM     21  C   UNL     1       0.410   9.854  19.910  0.00  0.00    +0.000 C 
ATOM     22  O   UNL     1       0.086   9.741  21.076  0.00  0.00    +0.000 OA
ATOM     23  H   UNL     1       0.082  10.476  16.736  0.00  0.00    +0.000 HD
BRANCH  15  28
ATOM     24  C   UNL     1      -6.110  11.270  17.853  0.00  0.00    +0.000 C 
ATOM     25  C   UNL     1      -4.647  11.116  18.153  0.00  0.00    +0.000 A 
ATOM     26  C   UNL     1      -3.877  10.121  17.570  0.00  0.00    +0.000 A 
ATOM     27  C   UNL     1      -2.505   9.989  17.835  0.00  0.00    +0.000 A 
ATOM     28  C   UNL     1      -1.824  10.877  18.742  0.00  0.00    +0.000 A 
ATOM     29  C   UNL     1      -2.603  11.884  19.319  0.00  0.00    +0.000 A 
ATOM     30  C   UNL     1      -3.987  12.019  19.033  0.00  0.00    +0.000 A 
ENDBRANCH  15  28
ENDBRANCH  14  20
ENDBRANCH   1  14
BRANCH  11  31
ATOM     31  C   UNL     1       6.729   4.539  17.472  0.00  0.00    +0.000 C 
BRANCH  31  32
ATOM     32  C   UNL     1       6.697   4.493  15.939  0.00  0.00    +0.000 A 
ATOM     33  C   UNL     1       5.878   3.592  15.239  0.00  0.00    +0.000 A 
ATOM     34  C   UNL     1       5.933   3.522  13.841  0.00  0.00    +0.000 A 
ATOM     35  C   UNL     1       6.780   4.367  13.123  0.00  0.00    +0.000 A 
ATOM     36  C   UNL     1       7.574   5.297  13.797  0.00  0.00    +0.000 A 
ATOM     37  C   UNL     1       7.529   5.350  15.192  0.00  0.00    +0.000 A 
ENDBRANCH  31  32
ENDBRANCH  11  31
TORSDOF 5
ENDMDL
MODEL 7
REMARK VINA RESULT:      -7.6      6.746      9.821
REMARK  Name = 
REMARK  7 active torsions:
REMARK  status: ('A' for Active; 'I' for Inactive)
REMARK    1  A    between atoms: C_1  and  C_2
REMARK    2  A    between atoms: C_5  and  C_6
REMARK    3  A    between atoms: C_6  and  C_7
REMARK    4  A    between atoms: N_11  and  C_12
REMARK    5  A    between atoms: C_12  and  C_13
REMARK    6  A    between atoms: N_23  and  C_24
REMARK    7  A    between atoms: C_24  and  C_25
REMARK                            x       y       z     vdW  Elec       q    Type
REMARK                         _______ _______ _______ _____ _____    ______ ____
ROOT
ATOM      1  C   UNL     1       6.778  16.603  20.441  0.00  0.00    +0.000 C 
ATOM      2  O   UNL     1       6.011  17.436  19.917  0.00  0.00    +0.000 OA
ATOM      3  N   UNL     1       8.065  17.046  20.961  0.00  0.00    +0.000 N 
ATOM      4  C   UNL     1       8.303  18.386  20.418  0.00  0.00    +0.000 C 
ATOM      5  C   UNL     1       9.454  18.163  19.400  0.00  0.00    +0.000 C 
ATOM      6  C   UNL     1      10.634  18.448  20.413  0.00  0.00    +0.000 C 
ATOM      7  C   UNL     1      10.661  17.334  21.488  0.00  0.00    +0.000 C 
ATOM      8  C   UNL     1       9.539  16.302  21.146  0.00  0.00    +0.000 C 
ATOM      9  C   UNL     1      10.016  15.737  19.771  0.00  0.00    +0.000 C 
ATOM     10  C   UNL     1      11.376  15.892  18.960  0.00  0.00    +0.000 C 
ATOM     11  N   UNL     1      10.985  15.760  17.512  0.00  0.00    +0.000 NA
ATOM     12  C   UNL     1       9.548  15.963  17.537  0.00  0.00    +0.000 C 
ATOM     13  C   UNL     1       9.231  16.628  18.842  0.00  0.00    +0.000 C 
ENDROOT
BRANCH   1  14
ATOM     14  C   UNL     1       6.274  15.148  20.357  0.00  0.00    +0.000 C 
BRANCH  14  20
ATOM     15  C   UNL     1       2.769  14.631  18.688  0.00  0.00    +0.000 C 
ATOM     16  C   UNL     1       2.089  16.001  18.470  0.00  0.00    +0.000 C 
ATOM     17  N   UNL     1       3.828  14.469  17.690  0.00  0.00    +0.000 N 
ATOM     18  C   UNL     1       5.095  14.714  18.176  0.00  0.00    +0.000 C 
ATOM     19  O   UNL     1       6.107  14.652  17.496  0.00  0.00    +0.000 OA
ATOM     20  N   UNL     1       5.035  14.962  19.509  0.00  0.00    +0.000 N 
ATOM     21  C   UNL     1       3.734  14.717  19.927  0.00  0.00    +0.000 C 
ATOM     22  O   UNL     1       3.369  14.631  21.084  0.00  0.00    +0.000 OA
ATOM     23  H   UNL     1       3.681  14.264  16.709  0.00  0.00    +0.000 HD
BRANCH  15  28
ATOM     24  C   UNL     1      -1.378  10.395  18.689  0.00  0.00    +0.000 C 
ATOM     25  C   UNL     1      -0.332  11.471  18.632  0.00  0.00    +0.000 A 
ATOM     26  C   UNL     1      -0.664  12.817  18.578  0.00  0.00    +0.000 A 
ATOM     27  C   UNL     1       0.312  13.825  18.546  0.00  0.00    +0.000 A 
ATOM     28  C   UNL     1       1.719  13.511  18.553  0.00  0.00    +0.000 A 
ATOM     29  C   UNL     1       2.047  12.154  18.617  0.00  0.00    +0.000 A 
ATOM     30  C   UNL     1       1.052  11.143  18.664  0.00  0.00    +0.000 A 
ENDBRANCH  15  28
ENDBRANCH  14  20
ENDBRANCH   1  14
BRANCH  11  31
ATOM     31  C   UNL     1      11.337  14.437  16.935  0.00  0.00    +0.000 C 
BRANCH  31  32
ATOM     32  C   UNL     1      10.880  13.194  17.709  0.00  0.00    +0.000 A 
ATOM     33  C   UNL     1       9.610  12.624  17.519  0.00  0.00    +0.000 A 
ATOM     34  C   UNL     1       9.196  11.538  18.300  0.00  0.00    +0.000 A 
ATOM     35  C   UNL     1      10.050  10.986  19.255  0.00  0.00    +0.000 A 
ATOM     36  C   UNL     1      11.331  11.512  19.433  0.00  0.00    +0.000 A 
ATOM     37  C   UNL     1      11.733  12.606  18.665  0.00  0.00    +0.000 A 
ENDBRANCH  31  32
ENDBRANCH  11  31
TORSDOF 5
ENDMDL
MODEL 8
REMARK VINA RESULT:      -7.4      2.088      2.917
REMARK  Name = 
REMARK  7 active torsions:
REMARK  status: ('A' for Active; 'I' for Inactive)
REMARK    1  A    between atoms: C_1  and  C_2
REMARK    2  A    between atoms: C_5  and  C_6
REMARK    3  A    between atoms: C_6  and  C_7
REMARK    4  A    between atoms: N_11  and  C_12
REMARK    5  A    between atoms: C_12  and  C_13
REMARK    6  A    between atoms: N_23  and  C_24
REMARK    7  A    between atoms: C_24  and  C_25
REMARK                            x       y       z     vdW  Elec       q    Type
REMARK                         _______ _______ _______ _____ _____    ______ ____
ROOT
ATOM      1  C   UNL     1       1.730   7.118  20.100  0.00  0.00    +0.000 C 
ATOM      2  O   UNL     1       1.702   7.229  21.343  0.00  0.00    +0.000 OA
ATOM      3  N   UNL     1       1.453   5.824  19.492  0.00  0.00    +0.000 N 
ATOM      4  C   UNL     1       1.533   4.827  20.563  0.00  0.00    +0.000 C 
ATOM      5  C   UNL     1       2.833   4.045  20.232  0.00  0.00    +0.000 C 
ATOM      6  C   UNL     1       2.140   2.930  19.351  0.00  0.00    +0.000 C 
ATOM      7  C   UNL     1       1.575   3.578  18.063  0.00  0.00    +0.000 C 
ATOM      8  C   UNL     1       1.944   5.096  18.081  0.00  0.00    +0.000 C 
ATOM      9  C   UNL     1       3.505   5.059  18.028  0.00  0.00    +0.000 C 
ATOM     10  C   UNL     1       4.542   3.882  17.763  0.00  0.00    +0.000 C 
ATOM     11  N   UNL     1       5.782   4.277  18.520  0.00  0.00    +0.000 NA
ATOM     12  C   UNL     1       5.303   5.300  19.431  0.00  0.00    +0.000 C 
ATOM     13  C   UNL     1       3.814   5.150  19.500  0.00  0.00    +0.000 C 
ENDROOT
BRANCH   1  14
ATOM     14  C   UNL     1       2.182   8.399  19.368  0.00  0.00    +0.000 C 
BRANCH  14  20
ATOM     15  C   UNL     1      -0.094  11.451  20.281  0.00  0.00    +0.000 C 
ATOM     16  C   UNL     1       0.671  12.768  20.020  0.00  0.00    +0.000 C 
ATOM     17  N   UNL     1      -0.506  10.886  18.994  0.00  0.00    +0.000 N 
ATOM     18  C   UNL     1       0.296   9.854  18.555  0.00  0.00    +0.000 C 
ATOM     19  O   UNL     1       0.131   9.266  17.498  0.00  0.00    +0.000 OA
ATOM     20  N   UNL     1       1.228   9.565  19.499  0.00  0.00    +0.000 N 
ATOM     21  C   UNL     1       0.930  10.311  20.632  0.00  0.00    +0.000 C 
ATOM     22  O   UNL     1       1.422  10.149  21.732  0.00  0.00    +0.000 OA
ATOM     23  H   UNL     1      -1.261  11.236  18.416  0.00  0.00    +0.000 HD
BRANCH  15  28
ATOM     24  C   UNL     1      -4.655  13.069  23.704  0.00  0.00    +0.000 C 
ATOM     25  C   UNL     1      -3.530  12.613  22.821  0.00  0.00    +0.000 A 
ATOM     26  C   UNL     1      -3.515  12.867  21.458  0.00  0.00    +0.000 A 
ATOM     27  C   UNL     1      -2.453  12.459  20.635  0.00  0.00    +0.000 A 
ATOM     28  C   UNL     1      -1.323  11.739  21.165  0.00  0.00    +0.000 A 
ATOM     29  C   UNL     1      -1.339  11.495  22.542  0.00  0.00    +0.000 A 
ATOM     30  C   UNL     1      -2.410  11.925  23.368  0.00  0.00    +0.000 A 
ENDBRANCH  15  28
ENDBRANCH  14  20
ENDBRANCH   1  14
BRANCH  11  31
ATOM     31  C   UNL     1       6.859   4.795  17.637  0.00  0.00    +0.000 C 
BRANCH  31  32
ATOM     32  C   UNL     1       6.687   4.584  16.128  0.00  0.00    +0.000 A 
ATOM     33  C   UNL     1       5.802   3.626  15.607  0.00  0.00    +0.000 A 
ATOM     34  C   UNL     1       5.728   3.404  14.226  0.00  0.00    +0.000 A 
ATOM     35  C   UNL     1       6.511   4.153  13.347  0.00  0.00    +0.000 A 
ATOM     36  C   UNL     1       7.369   5.137  13.841  0.00  0.00    +0.000 A 
ATOM     37  C   UNL     1       7.452   5.342  15.219  0.00  0.00    +0.000 A 
ENDBRANCH  31  32
ENDBRANCH  11  31
TORSDOF 5
ENDMDL
MODEL 9
REMARK VINA RESULT:      -7.4      2.027      2.849
REMARK  Name = 
REMARK  7 active torsions:
REMARK  status: ('A' for Active; 'I' for Inactive)
REMARK    1  A    between atoms: C_1  and  C_2
REMARK    2  A    between atoms: C_5  and  C_6
REMARK    3  A    between atoms: C_6  and  C_7
REMARK    4  A    between atoms: N_11  and  C_12
REMARK    5  A    between atoms: C_12  and  C_13
REMARK    6  A    between atoms: N_23  and  C_24
REMARK    7  A    between atoms: C_24  and  C_25
REMARK                            x       y       z     vdW  Elec       q    Type
REMARK                         _______ _______ _______ _____ _____    ______ ____
ROOT
ATOM      1  C   UNL     1       1.565   7.114  20.050  0.00  0.00    +0.000 C 
ATOM      2  O   UNL     1       1.509   7.356  21.273  0.00  0.00    +0.000 OA
ATOM      3  N   UNL     1       1.307   5.761  19.578  0.00  0.00    +0.000 N 
ATOM      4  C   UNL     1       1.367   4.883  20.750  0.00  0.00    +0.000 C 
ATOM      5  C   UNL     1       2.677   4.079  20.532  0.00  0.00    +0.000 C 
ATOM      6  C   UNL     1       2.008   2.872  19.760  0.00  0.00    +0.000 C 
ATOM      7  C   UNL     1       1.469   3.376  18.398  0.00  0.00    +0.000 C 
ATOM      8  C   UNL     1       1.832   4.889  18.263  0.00  0.00    +0.000 C 
ATOM      9  C   UNL     1       3.393   4.857  18.247  0.00  0.00    +0.000 C 
ATOM     10  C   UNL     1       4.441   3.666  18.132  0.00  0.00    +0.000 C 
ATOM     11  N   UNL     1       5.662   4.146  18.869  0.00  0.00    +0.000 NA
ATOM     12  C   UNL     1       5.159   5.258  19.655  0.00  0.00    +0.000 C 
ATOM     13  C   UNL     1       3.669   5.106  19.708  0.00  0.00    +0.000 C 
ENDROOT
BRANCH   1  14
ATOM     14  C   UNL     1       2.028   8.312  19.195  0.00  0.00    +0.000 C 
BRANCH  14  20
ATOM     15  C   UNL     1       0.089  11.577  20.150  0.00  0.00    +0.000 C 
ATOM     16  C   UNL     1       0.923  12.814  19.750  0.00  0.00    +0.000 C 
ATOM     17  N   UNL     1      -0.487  10.989  18.938  0.00  0.00    +0.000 N 
ATOM     18  C   UNL     1       0.189   9.876  18.484  0.00  0.00    +0.000 C 
ATOM     19  O   UNL     1      -0.121   9.256  17.479  0.00  0.00    +0.000 OA
ATOM     20  N   UNL     1       1.183   9.557  19.351  0.00  0.00    +0.000 N 
ATOM     21  C   UNL     1       1.052  10.375  20.465  0.00  0.00    +0.000 C 
ATOM     22  O   UNL     1       1.634  10.225  21.523  0.00  0.00    +0.000 OA
ATOM     23  H   UNL     1      -1.265  11.372  18.415  0.00  0.00    +0.000 HD
BRANCH  15  28
ATOM     24  C   UNL     1      -4.414  12.740  23.825  0.00  0.00    +0.000 C 
ATOM     25  C   UNL     1      -3.244  12.487  22.919  0.00  0.00    +0.000 A 
ATOM     26  C   UNL     1      -2.171  11.699  23.307  0.00  0.00    +0.000 A 
ATOM     27  C   UNL     1      -1.085  11.445  22.454  0.00  0.00    +0.000 A 
ATOM     28  C   UNL     1      -1.024  12.004  21.127  0.00  0.00    +0.000 A 
ATOM     29  C   UNL     1      -2.113  12.789  20.738  0.00  0.00    +0.000 A 
ATOM     30  C   UNL     1      -3.213  13.028  21.603  0.00  0.00    +0.000 A 
ENDBRANCH  15  28
ENDBRANCH  14  20
ENDBRANCH   1  14
BRANCH  11  31
ATOM     31  C   UNL     1       6.757   4.574  17.960  0.00  0.00    +0.000 C 
BRANCH  31  32
ATOM     32  C   UNL     1       6.395   4.788  16.485  0.00  0.00    +0.000 A 
ATOM     33  C   UNL     1       5.789   5.971  16.031  0.00  0.00    +0.000 A 
ATOM     34  C   UNL     1       5.400   6.101  14.692  0.00  0.00    +0.000 A 
ATOM     35  C   UNL     1       5.636   5.070  13.783  0.00  0.00    +0.000 A 
ATOM     36  C   UNL     1       6.273   3.900  14.204  0.00  0.00    +0.000 A 
ATOM     37  C   UNL     1       6.643   3.768  15.544  0.00  0.00    +0.000 A 
ENDBRANCH  31  32
ENDBRANCH  11  31
TORSDOF 5
ENDMDL
