MODEL 1
REMARK VINA RESULT:      -9.2      0.000      0.000
REMARK  Name = 
REMARK  5 active torsions:
REMARK  status: ('A' for Active; 'I' for Inactive)
REMARK    1  A    between atoms: C_2  and  C_20
REMARK    2  A    between atoms: N_3  and  C_4
REMARK    3  A    between atoms: C_7  and  S_8
REMARK    4  A    between atoms: S_8  and  N_11
REMARK    5  A    between atoms: N_11  and  C_12
REMARK                            x       y       z     vdW  Elec       q    Type
REMARK                         _______ _______ _______ _____ _____    ______ ____
ROOT
ATOM      1  C   UNL     1       8.013   7.624  18.413  0.00  0.00    +0.000 A 
ATOM      2  C   UNL     1       7.126   7.828  17.345  0.00  0.00    +0.000 A 
ATOM      3  C   UNL     1       6.285   6.804  16.881  0.00  0.00    +0.000 A 
ATOM      4  C   UNL     1       6.328   5.551  17.490  0.00  0.00    +0.000 A 
ATOM      5  C   UNL     1       7.181   5.334  18.574  0.00  0.00    +0.000 A 
ATOM      6  C   UNL     1       8.017   6.365  19.030  0.00  0.00    +0.000 A 
ENDROOT
BRANCH   1   9
ATOM      7  O   UNL     1       8.095  10.462  17.775  0.00  0.00    +0.000 OA
ATOM      8  C   UNL     1       8.880   9.958  18.577  0.00  0.00    +0.000 C 
ATOM      9  N   UNL     1       8.899   8.615  18.912  0.00  0.00    +0.000 N 
ATOM     10  H   UNL     1       9.638   8.319  19.550  0.00  0.00    +0.000 HD
BRANCH   8  11
ATOM     11  C   UNL     1       9.844  10.889  19.247  0.00  0.00    +0.000 A 
ATOM     12  C   UNL     1      11.088  11.033  18.592  0.00  0.00    +0.000 A 
ATOM     13  C   UNL     1      11.994  12.009  18.976  0.00  0.00    +0.000 A 
ATOM     14  C   UNL     1      11.597  12.945  19.912  0.00  0.00    +0.000 A 
ATOM     15  C   UNL     1      10.382  12.783  20.594  0.00  0.00    +0.000 A 
ATOM     16  C   UNL     1      10.024  13.720  21.559  0.00  0.00    +0.000 A 
ATOM     17  C   UNL     1       9.176  13.329  22.576  0.00  0.00    +0.000 A 
ATOM     18  C   UNL     1       8.525  12.122  22.428  0.00  0.00    +0.000 A 
ATOM     19  N   UNL     1       8.599  11.348  21.310  0.00  0.00    +0.000 NA
ATOM     20  C   UNL     1       9.558  11.651  20.392  0.00  0.00    +0.000 A 
ENDBRANCH   8  11
ENDBRANCH   1   9
BRANCH   4  21
ATOM     21  S   UNL     1       5.203   4.267  16.980  0.00  0.00    +0.000 S 
ATOM     22  O   UNL     1       3.946   4.892  16.637  0.00  0.00    +0.000 OA
ATOM     23  O   UNL     1       5.908   3.433  16.015  0.00  0.00    +0.000 OA
BRANCH  21  24
ATOM     24  N   UNL     1       4.996   3.314  18.344  0.00  0.00    +0.000 N 
ATOM     25  H   UNL     1       5.841   3.208  18.916  0.00  0.00    +0.000 HD
BRANCH  24  26
ATOM     26  C   UNL     1       3.735   3.189  19.003  0.00  0.00    +0.000 A 
ATOM     27  C   UNL     1       3.374   4.137  19.957  0.00  0.00    +0.000 A 
ATOM     28  C   UNL     1       2.094   4.090  20.520  0.00  0.00    +0.000 A 
ATOM     29  C   UNL     1       1.213   3.071  20.153  0.00  0.00    +0.000 A 
ATOM     30  C   UNL     1       1.598   2.110  19.222  0.00  0.00    +0.000 A 
ATOM     31  C   UNL     1       2.863   2.166  18.645  0.00  0.00    +0.000 A 
ENDBRANCH  24  26
ENDBRANCH  21  24
ENDBRANCH   4  21
TORSDOF 5
ENDMDL
MODEL 2
REMARK VINA RESULT:      -9.2      5.691      7.835
REMARK  Name = 
REMARK  5 active torsions:
REMARK  status: ('A' for Active; 'I' for Inactive)
REMARK    1  A    between atoms: C_2  and  C_20
REMARK    2  A    between atoms: N_3  and  C_4
REMARK    3  A    between atoms: C_7  and  S_8
REMARK    4  A    between atoms: S_8  and  N_11
REMARK    5  A    between atoms: N_11  and  C_12
REMARK                            x       y       z     vdW  Elec       q    Type
REMARK                         _______ _______ _______ _____ _____    ______ ____
ROOT
ATOM      1  C   UNL     1       2.002   7.620  19.571  0.00  0.00    +0.000 A 
ATOM      2  C   UNL     1       2.663   7.345  18.364  0.00  0.00    +0.000 A 
ATOM      3  C   UNL     1       3.182   6.071  18.083  0.00  0.00    +0.000 A 
ATOM      4  C   UNL     1       3.044   5.050  19.022  0.00  0.00    +0.000 A 
ATOM      5  C   UNL     1       2.363   5.292  20.217  0.00  0.00    +0.000 A 
ATOM      6  C   UNL     1       1.847   6.569  20.488  0.00  0.00    +0.000 A 
ENDROOT
BRANCH   1   9
ATOM      7  O   UNL     1       0.553   9.496  17.884  0.00  0.00    +0.000 OA
ATOM      8  C   UNL     1       0.781   9.737  19.069  0.00  0.00    +0.000 C 
ATOM      9  N   UNL     1       1.474   8.891  19.918  0.00  0.00    +0.000 N 
ATOM     10  H   UNL     1       1.639   9.237  20.863  0.00  0.00    +0.000 HD
BRANCH   8  11
ATOM     11  C   UNL     1       0.227  11.019  19.611  0.00  0.00    +0.000 A 
ATOM     12  C   UNL     1       0.355  12.134  18.751  0.00  0.00    +0.000 A 
ATOM     13  C   UNL     1      -0.289  13.330  19.025  0.00  0.00    +0.000 A 
ATOM     14  C   UNL     1      -1.187  13.370  20.075  0.00  0.00    +0.000 A 
ATOM     15  C   UNL     1      -1.286  12.282  20.954  0.00  0.00    +0.000 A 
ATOM     16  C   UNL     1      -2.170  12.363  22.026  0.00  0.00    +0.000 A 
ATOM     17  C   UNL     1      -1.914  11.608  23.153  0.00  0.00    +0.000 A 
ATOM     18  C   UNL     1      -0.953  10.624  23.050  0.00  0.00    +0.000 A 
ATOM     19  N   UNL     1      -0.318  10.297  21.890  0.00  0.00    +0.000 NA
ATOM     20  C   UNL     1      -0.450  11.147  20.834  0.00  0.00    +0.000 A 
ENDBRANCH   8  11
ENDBRANCH   1   9
BRANCH   4  21
ATOM     21  S   UNL     1       3.610   3.402  18.646  0.00  0.00    +0.000 S 
ATOM     22  O   UNL     1       3.031   2.505  19.620  0.00  0.00    +0.000 OA
ATOM     23  O   UNL     1       3.400   3.189  17.219  0.00  0.00    +0.000 OA
BRANCH  21  24
ATOM     24  N   UNL     1       5.270   3.462  18.862  0.00  0.00    +0.000 N 
ATOM     25  H   UNL     1       5.708   2.548  19.022  0.00  0.00    +0.000 HD
BRANCH  24  26
ATOM     26  C   UNL     1       6.079   4.485  18.280  0.00  0.00    +0.000 A 
ATOM     27  C   UNL     1       6.188   4.555  16.893  0.00  0.00    +0.000 A 
ATOM     28  C   UNL     1       6.879   5.623  16.313  0.00  0.00    +0.000 A 
ATOM     29  C   UNL     1       7.488   6.580  17.128  0.00  0.00    +0.000 A 
ATOM     30  C   UNL     1       7.399   6.481  18.514  0.00  0.00    +0.000 A 
ATOM     31  C   UNL     1       6.695   5.431  19.094  0.00  0.00    +0.000 A 
ENDBRANCH  24  26
ENDBRANCH  21  24
ENDBRANCH   4  21
TORSDOF 5
ENDMDL
MODEL 3
REMARK VINA RESULT:      -9.2      0.952      1.361
REMARK  Name = 
REMARK  5 active torsions:
REMARK  status: ('A' for Active; 'I' for Inactive)
REMARK    1  A    between atoms: C_2  and  C_20
REMARK    2  A    between atoms: N_3  and  C_4
REMARK    3  A    between atoms: C_7  and  S_8
REMARK    4  A    between atoms: S_8  and  N_11
REMARK    5  A    between atoms: N_11  and  C_12
REMARK                            x       y       z     vdW  Elec       q    Type
REMARK                         _______ _______ _______ _____ _____    ______ ____
ROOT
ATOM      1  C   UNL     1       8.124   7.758  18.451  0.00  0.00    +0.000 A 
ATOM      2  C   UNL     1       7.216   7.855  17.385  0.00  0.00    +0.000 A 
ATOM      3  C   UNL     1       6.364   6.791  17.045  0.00  0.00    +0.000 A 
ATOM      4  C   UNL     1       6.420   5.606  17.777  0.00  0.00    +0.000 A 
ATOM      5  C   UNL     1       7.295   5.498  18.861  0.00  0.00    +0.000 A 
ATOM      6  C   UNL     1       8.140   6.568  19.193  0.00  0.00    +0.000 A 
ENDROOT
BRANCH   1   9
ATOM      7  O   UNL     1       8.014  10.584  17.766  0.00  0.00    +0.000 OA
ATOM      8  C   UNL     1       8.907  10.127  18.478  0.00  0.00    +0.000 C 
ATOM      9  N   UNL     1       9.020   8.792  18.828  0.00  0.00    +0.000 N 
ATOM     10  H   UNL     1       9.840   8.539  19.380  0.00  0.00    +0.000 HD
BRANCH   8  11
ATOM     11  C   UNL     1       9.903  11.108  19.017  0.00  0.00    +0.000 A 
ATOM     12  C   UNL     1      11.070  11.264  18.236  0.00  0.00    +0.000 A 
ATOM     13  C   UNL     1      11.978  12.278  18.494  0.00  0.00    +0.000 A 
ATOM     14  C   UNL     1      11.647  13.235  19.436  0.00  0.00    +0.000 A 
ATOM     15  C   UNL     1      10.513  13.063  20.241  0.00  0.00    +0.000 A 
ATOM     16  C   UNL     1      10.224  14.022  21.207  0.00  0.00    +0.000 A 
ATOM     17  C   UNL     1       9.494  13.643  22.316  0.00  0.00    +0.000 A 
ATOM     18  C   UNL     1       8.871  12.414  22.274  0.00  0.00    +0.000 A 
ATOM     19  N   UNL     1       8.857  11.603  21.179  0.00  0.00    +0.000 NA
ATOM     20  C   UNL     1       9.709  11.901  20.160  0.00  0.00    +0.000 A 
ENDBRANCH   8  11
ENDBRANCH   1   9
BRANCH   4  21
ATOM     21  S   UNL     1       5.284   4.279  17.424  0.00  0.00    +0.000 S 
ATOM     22  O   UNL     1       5.581   3.785  16.099  0.00  0.00    +0.000 OA
ATOM     23  O   UNL     1       5.297   3.383  18.574  0.00  0.00    +0.000 OA
BRANCH  21  24
ATOM     24  N   UNL     1       3.771   5.001  17.423  0.00  0.00    +0.000 N 
ATOM     25  H   UNL     1       3.484   5.375  16.512  0.00  0.00    +0.000 HD
BRANCH  24  26
ATOM     26  C   UNL     1       2.739   4.611  18.330  0.00  0.00    +0.000 A 
ATOM     27  C   UNL     1       1.960   3.496  18.029  0.00  0.00    +0.000 A 
ATOM     28  C   UNL     1       1.029   3.038  18.966  0.00  0.00    +0.000 A 
ATOM     29  C   UNL     1       0.860   3.727  20.169  0.00  0.00    +0.000 A 
ATOM     30  C   UNL     1       1.621   4.859  20.443  0.00  0.00    +0.000 A 
ATOM     31  C   UNL     1       2.563   5.306  19.522  0.00  0.00    +0.000 A 
ENDBRANCH  24  26
ENDBRANCH  21  24
ENDBRANCH   4  21
TORSDOF 5
ENDMDL
MODEL 4
REMARK VINA RESULT:      -9.0      5.795      7.663
REMARK  Name = 
REMARK  5 active torsions:
REMARK  status: ('A' for Active; 'I' for Inactive)
REMARK    1  A    between atoms: C_2  and  C_20
REMARK    2  A    between atoms: N_3  and  C_4
REMARK    3  A    between atoms: C_7  and  S_8
REMARK    4  A    between atoms: S_8  and  N_11
REMARK    5  A    between atoms: N_11  and  C_12
REMARK                            x       y       z     vdW  Elec       q    Type
REMARK                         _______ _______ _______ _____ _____    ______ ____
ROOT
ATOM      1  C   UNL     1       2.297   7.576  19.194  0.00  0.00    +0.000 A 
ATOM      2  C   UNL     1       2.971   7.762  17.977  0.00  0.00    +0.000 A 
ATOM      3  C   UNL     1       4.007   6.904  17.571  0.00  0.00    +0.000 A 
ATOM      4  C   UNL     1       4.381   5.842  18.393  0.00  0.00    +0.000 A 
ATOM      5  C   UNL     1       3.704   5.620  19.594  0.00  0.00    +0.000 A 
ATOM      6  C   UNL     1       2.670   6.483  19.990  0.00  0.00    +0.000 A 
ENDROOT
BRANCH   1   9
ATOM      7  O   UNL     1       1.817   8.514  21.907  0.00  0.00    +0.000 OA
ATOM      8  C   UNL     1       1.089   8.843  20.971  0.00  0.00    +0.000 C 
ATOM      9  N   UNL     1       1.258   8.421  19.664  0.00  0.00    +0.000 N 
ATOM     10  H   UNL     1       0.551   8.727  18.996  0.00  0.00    +0.000 HD
BRANCH   8  11
ATOM     11  C   UNL     1      -0.024   9.794  21.291  0.00  0.00    +0.000 A 
ATOM     12  C   UNL     1      -0.324   9.920  22.667  0.00  0.00    +0.000 A 
ATOM     13  C   UNL     1      -1.179  10.907  23.129  0.00  0.00    +0.000 A 
ATOM     14  C   UNL     1      -1.617  11.869  22.238  0.00  0.00    +0.000 A 
ATOM     15  C   UNL     1      -1.357  11.727  20.868  0.00  0.00    +0.000 A 
ATOM     16  C   UNL     1      -1.842  12.691  19.989  0.00  0.00    +0.000 A 
ATOM     17  C   UNL     1      -2.079  12.329  18.678  0.00  0.00    +0.000 A 
ATOM     18  C   UNL     1      -1.573  11.118  18.254  0.00  0.00    +0.000 A 
ATOM     19  N   UNL     1      -0.785  10.312  19.018  0.00  0.00    +0.000 NA
ATOM     20  C   UNL     1      -0.696  10.589  20.349  0.00  0.00    +0.000 A 
ENDBRANCH   8  11
ENDBRANCH   1   9
BRANCH   4  21
ATOM     21  S   UNL     1       5.625   4.686  17.854  0.00  0.00    +0.000 S 
ATOM     22  O   UNL     1       6.345   5.292  16.757  0.00  0.00    +0.000 OA
ATOM     23  O   UNL     1       6.331   4.226  19.044  0.00  0.00    +0.000 OA
BRANCH  21  24
ATOM     24  N   UNL     1       4.764   3.363  17.291  0.00  0.00    +0.000 N 
ATOM     25  H   UNL     1       5.349   2.608  16.915  0.00  0.00    +0.000 HD
BRANCH  24  26
ATOM     26  C   UNL     1       3.485   3.006  17.816  0.00  0.00    +0.000 A 
ATOM     27  C   UNL     1       3.417   2.100  18.873  0.00  0.00    +0.000 A 
ATOM     28  C   UNL     1       2.181   1.836  19.471  0.00  0.00    +0.000 A 
ATOM     29  C   UNL     1       1.027   2.447  18.975  0.00  0.00    +0.000 A 
ATOM     30  C   UNL     1       1.104   3.324  17.898  0.00  0.00    +0.000 A 
ATOM     31  C   UNL     1       2.335   3.605  17.313  0.00  0.00    +0.000 A 
ENDBRANCH  24  26
ENDBRANCH  21  24
ENDBRANCH   4  21
TORSDOF 5
ENDMDL
MODEL 5
REMARK VINA RESULT:      -9.0      5.550      7.730
REMARK  Name = 
REMARK  5 active torsions:
REMARK  status: ('A' for Active; 'I' for Inactive)
REMARK    1  A    between atoms: C_2  and  C_20
REMARK    2  A    between atoms: N_3  and  C_4
REMARK    3  A    between atoms: C_7  and  S_8
REMARK    4  A    between atoms: S_8  and  N_11
REMARK    5  A    between atoms: N_11  and  C_12
REMARK                            x       y       z     vdW  Elec       q    Type
REMARK                         _______ _______ _______ _____ _____    ______ ____
ROOT
ATOM      1  C   UNL     1       1.976   7.336  19.830  0.00  0.00    +0.000 A 
ATOM      2  C   UNL     1       1.880   6.243  20.705  0.00  0.00    +0.000 A 
ATOM      3  C   UNL     1       2.368   4.974  20.354  0.00  0.00    +0.000 A 
ATOM      4  C   UNL     1       2.961   4.787  19.106  0.00  0.00    +0.000 A 
ATOM      5  C   UNL     1       3.095   5.867  18.231  0.00  0.00    +0.000 A 
ATOM      6  C   UNL     1       2.604   7.132  18.593  0.00  0.00    +0.000 A 
ENDROOT
BRANCH   1   9
ATOM      7  O   UNL     1       0.994   9.357  17.980  0.00  0.00    +0.000 OA
ATOM      8  C   UNL     1       1.018   9.550  19.195  0.00  0.00    +0.000 C 
ATOM      9  N   UNL     1       1.484   8.635  20.123  0.00  0.00    +0.000 N 
ATOM     10  H   UNL     1       1.498   8.944  21.095  0.00  0.00    +0.000 HD
BRANCH   8  11
ATOM     11  C   UNL     1       0.466  10.858  19.676  0.00  0.00    +0.000 A 
ATOM     12  C   UNL     1       0.659  11.947  18.796  0.00  0.00    +0.000 A 
ATOM     13  C   UNL     1       0.028  13.162  19.007  0.00  0.00    +0.000 A 
ATOM     14  C   UNL     1      -0.919  13.247  20.010  0.00  0.00    +0.000 A 
ATOM     15  C   UNL     1      -1.084  12.185  20.910  0.00  0.00    +0.000 A 
ATOM     16  C   UNL     1      -2.018  12.313  21.934  0.00  0.00    +0.000 A 
ATOM     17  C   UNL     1      -1.834  11.583  23.092  0.00  0.00    +0.000 A 
ATOM     18  C   UNL     1      -0.890  10.577  23.061  0.00  0.00    +0.000 A 
ATOM     19  N   UNL     1      -0.206  10.207  21.943  0.00  0.00    +0.000 NA
ATOM     20  C   UNL     1      -0.268  11.031  20.861  0.00  0.00    +0.000 A 
ENDBRANCH   8  11
ENDBRANCH   1   9
BRANCH   4  21
ATOM     21  S   UNL     1       3.672   3.210  18.678  0.00  0.00    +0.000 S 
ATOM     22  O   UNL     1       3.202   2.239  19.639  0.00  0.00    +0.000 OA
ATOM     23  O   UNL     1       3.454   3.012  17.251  0.00  0.00    +0.000 OA
BRANCH  21  24
ATOM     24  N   UNL     1       5.324   3.422  18.865  0.00  0.00    +0.000 N 
ATOM     25  H   UNL     1       5.847   2.552  19.014  0.00  0.00    +0.000 HD
BRANCH  24  26
ATOM     26  C   UNL     1       6.025   4.517  18.273  0.00  0.00    +0.000 A 
ATOM     27  C   UNL     1       6.647   5.448  19.101  0.00  0.00    +0.000 A 
ATOM     28  C   UNL     1       7.434   6.454  18.531  0.00  0.00    +0.000 A 
ATOM     29  C   UNL     1       7.550   6.539  17.142  0.00  0.00    +0.000 A 
ATOM     30  C   UNL     1       6.896   5.622  16.324  0.00  0.00    +0.000 A 
ATOM     31  C   UNL     1       6.129   4.608  16.888  0.00  0.00    +0.000 A 
ENDBRANCH  24  26
ENDBRANCH  21  24
ENDBRANCH   4  21
TORSDOF 5
ENDMDL
MODEL 6
REMARK VINA RESULT:      -8.9      1.828      2.199
REMARK  Name = 
REMARK  5 active torsions:
REMARK  status: ('A' for Active; 'I' for Inactive)
REMARK    1  A    between atoms: C_2  and  C_20
REMARK    2  A    between atoms: N_3  and  C_4
REMARK    3  A    between atoms: C_7  and  S_8
REMARK    4  A    between atoms: S_8  and  N_11
REMARK    5  A    between atoms: N_11  and  C_12
REMARK                            x       y       z     vdW  Elec       q    Type
REMARK                         _______ _______ _______ _____ _____    ______ ____
ROOT
ATOM      1  C   UNL     1       7.906   8.503  17.845  0.00  0.00    +0.000 A 
ATOM      2  C   UNL     1       8.366   7.407  18.591  0.00  0.00    +0.000 A 
ATOM      3  C   UNL     1       7.636   6.209  18.666  0.00  0.00    +0.000 A 
ATOM      4  C   UNL     1       6.423   6.101  17.987  0.00  0.00    +0.000 A 
ATOM      5  C   UNL     1       5.961   7.168  17.214  0.00  0.00    +0.000 A 
ATOM      6  C   UNL     1       6.699   8.360  17.145  0.00  0.00    +0.000 A 
ENDROOT
BRANCH   1   9
ATOM      7  O   UNL     1       9.113  10.072  19.978  0.00  0.00    +0.000 OA
ATOM      8  C   UNL     1       9.156  10.438  18.804  0.00  0.00    +0.000 C 
ATOM      9  N   UNL     1       8.591   9.743  17.749  0.00  0.00    +0.000 N 
ATOM     10  H   UNL     1       8.653  10.185  16.832  0.00  0.00    +0.000 HD
BRANCH   8  11
ATOM     11  C   UNL     1       9.908  11.703  18.523  0.00  0.00    +0.000 A 
ATOM     12  C   UNL     1      11.157  11.526  17.887  0.00  0.00    +0.000 A 
ATOM     13  C   UNL     1      11.866  12.604  17.382  0.00  0.00    +0.000 A 
ATOM     14  C   UNL     1      11.258  13.845  17.371  0.00  0.00    +0.000 A 
ATOM     15  C   UNL     1      10.038  14.035  18.036  0.00  0.00    +0.000 A 
ATOM     16  C   UNL     1       9.467  15.304  18.042  0.00  0.00    +0.000 A 
ATOM     17  C   UNL     1       8.620  15.642  19.079  0.00  0.00    +0.000 A 
ATOM     18  C   UNL     1       8.182  14.621  19.897  0.00  0.00    +0.000 A 
ATOM     19  N   UNL     1       8.459  13.304  19.687  0.00  0.00    +0.000 NA
ATOM     20  C   UNL     1       9.422  12.997  18.774  0.00  0.00    +0.000 A 
ENDBRANCH   8  11
ENDBRANCH   1   9
BRANCH   4  21
ATOM     21  S   UNL     1       5.528   4.559  17.990  0.00  0.00    +0.000 S 
ATOM     22  O   UNL     1       5.882   3.842  16.787  0.00  0.00    +0.000 OA
ATOM     23  O   UNL     1       5.719   3.953  19.302  0.00  0.00    +0.000 OA
BRANCH  21  24
ATOM     24  N   UNL     1       3.914   5.003  17.920  0.00  0.00    +0.000 N 
ATOM     25  H   UNL     1       3.642   5.467  17.047  0.00  0.00    +0.000 HD
BRANCH  24  26
ATOM     26  C   UNL     1       2.897   4.299  18.635  0.00  0.00    +0.000 A 
ATOM     27  C   UNL     1       2.404   4.843  19.819  0.00  0.00    +0.000 A 
ATOM     28  C   UNL     1       1.328   4.223  20.461  0.00  0.00    +0.000 A 
ATOM     29  C   UNL     1       0.791   3.045  19.935  0.00  0.00    +0.000 A 
ATOM     30  C   UNL     1       1.315   2.494  18.769  0.00  0.00    +0.000 A 
ATOM     31  C   UNL     1       2.372   3.120  18.116  0.00  0.00    +0.000 A 
ENDBRANCH  24  26
ENDBRANCH  21  24
ENDBRANCH   4  21
TORSDOF 5
ENDMDL
MODEL 7
REMARK VINA RESULT:      -8.8      5.328      7.561
REMARK  Name = 
REMARK  5 active torsions:
REMARK  status: ('A' for Active; 'I' for Inactive)
REMARK    1  A    between atoms: C_2  and  C_20
REMARK    2  A    between atoms: N_3  and  C_4
REMARK    3  A    between atoms: C_7  and  S_8
REMARK    4  A    between atoms: S_8  and  N_11
REMARK    5  A    between atoms: N_11  and  C_12
REMARK                            x       y       z     vdW  Elec       q    Type
REMARK                         _______ _______ _______ _____ _____    ______ ____
ROOT
ATOM      1  C   UNL     1       1.943   7.502  19.783  0.00  0.00    +0.000 A 
ATOM      2  C   UNL     1       1.887   6.442  20.702  0.00  0.00    +0.000 A 
ATOM      3  C   UNL     1       2.353   5.158  20.374  0.00  0.00    +0.000 A 
ATOM      4  C   UNL     1       2.882   4.923  19.106  0.00  0.00    +0.000 A 
ATOM      5  C   UNL     1       2.976   5.970  18.186  0.00  0.00    +0.000 A 
ATOM      6  C   UNL     1       2.508   7.249  18.525  0.00  0.00    +0.000 A 
ENDROOT
BRANCH   1   9
ATOM      7  O   UNL     1      -0.271   8.310  21.490  0.00  0.00    +0.000 OA
ATOM      8  C   UNL     1       0.414   9.135  20.887  0.00  0.00    +0.000 C 
ATOM      9  N   UNL     1       1.470   8.813  20.052  0.00  0.00    +0.000 N 
ATOM     10  H   UNL     1       1.920   9.592  19.572  0.00  0.00    +0.000 HD
BRANCH   8  11
ATOM     11  C   UNL     1       0.084  10.578  21.119  0.00  0.00    +0.000 A 
ATOM     12  C   UNL     1      -0.785  10.824  22.206  0.00  0.00    +0.000 A 
ATOM     13  C   UNL     1      -1.013  12.110  22.668  0.00  0.00    +0.000 A 
ATOM     14  C   UNL     1      -0.255  13.141  22.147  0.00  0.00    +0.000 A 
ATOM     15  C   UNL     1       0.578  12.911  21.043  0.00  0.00    +0.000 A 
ATOM     16  C   UNL     1       1.301  13.976  20.514  0.00  0.00    +0.000 A 
ATOM     17  C   UNL     1       1.670  13.928  19.185  0.00  0.00    +0.000 A 
ATOM     18  C   UNL     1       1.535  12.720  18.533  0.00  0.00    +0.000 A 
ATOM     19  N   UNL     1       1.150  11.564  19.143  0.00  0.00    +0.000 NA
ATOM     20  C   UNL     1       0.632  11.652  20.399  0.00  0.00    +0.000 A 
ENDBRANCH   8  11
ENDBRANCH   1   9
BRANCH   4  21
ATOM     21  S   UNL     1       3.567   3.328  18.701  0.00  0.00    +0.000 S 
ATOM     22  O   UNL     1       3.009   2.363  19.621  0.00  0.00    +0.000 OA
ATOM     23  O   UNL     1       3.427   3.152  17.261  0.00  0.00    +0.000 OA
BRANCH  21  24
ATOM     24  N   UNL     1       5.211   3.484  18.986  0.00  0.00    +0.000 N 
ATOM     25  H   UNL     1       5.675   2.611  19.261  0.00  0.00    +0.000 HD
BRANCH  24  26
ATOM     26  C   UNL     1       6.006   4.478  18.340  0.00  0.00    +0.000 A 
ATOM     27  C   UNL     1       6.089   4.479  16.949  0.00  0.00    +0.000 A 
ATOM     28  C   UNL     1       6.767   5.518  16.304  0.00  0.00    +0.000 A 
ATOM     29  C   UNL     1       7.389   6.515  17.060  0.00  0.00    +0.000 A 
ATOM     30  C   UNL     1       7.327   6.484  18.450  0.00  0.00    +0.000 A 
ATOM     31  C   UNL     1       6.636   5.463  19.095  0.00  0.00    +0.000 A 
ENDBRANCH  24  26
ENDBRANCH  21  24
ENDBRANCH   4  21
TORSDOF 5
ENDMDL
MODEL 8
REMARK VINA RESULT:      -8.8      5.599      7.267
REMARK  Name = 
REMARK  5 active torsions:
REMARK  status: ('A' for Active; 'I' for Inactive)
REMARK    1  A    between atoms: C_2  and  C_20
REMARK    2  A    between atoms: N_3  and  C_4
REMARK    3  A    between atoms: C_7  and  S_8
REMARK    4  A    between atoms: S_8  and  N_11
REMARK    5  A    between atoms: N_11  and  C_12
REMARK                            x       y       z     vdW  Elec       q    Type
REMARK                         _______ _______ _______ _____ _____    ______ ____
ROOT
ATOM      1  C   UNL     1       2.597   7.661  18.300  0.00  0.00    +0.000 A 
ATOM      2  C   UNL     1       2.649   6.816  19.419  0.00  0.00    +0.000 A 
ATOM      3  C   UNL     1       3.657   5.849  19.566  0.00  0.00    +0.000 A 
ATOM      4  C   UNL     1       4.632   5.718  18.578  0.00  0.00    +0.000 A 
ATOM      5  C   UNL     1       4.617   6.568  17.470  0.00  0.00    +0.000 A 
ATOM      6  C   UNL     1       3.606   7.532  17.334  0.00  0.00    +0.000 A 
ENDROOT
BRANCH   1   9
ATOM      7  O   UNL     1       1.333   9.402  20.259  0.00  0.00    +0.000 OA
ATOM      8  C   UNL     1       1.037   9.450  19.066  0.00  0.00    +0.000 C 
ATOM      9  N   UNL     1       1.593   8.641  18.090  0.00  0.00    +0.000 N 
ATOM     10  H   UNL     1       1.218   8.749  17.147  0.00  0.00    +0.000 HD
BRANCH   8  11
ATOM     11  C   UNL     1       0.032  10.488  18.666  0.00  0.00    +0.000 A 
ATOM     12  C   UNL     1      -1.220   9.979  18.255  0.00  0.00    +0.000 A 
ATOM     13  C   UNL     1      -2.307  10.815  18.057  0.00  0.00    +0.000 A 
ATOM     14  C   UNL     1      -2.189  12.144  18.417  0.00  0.00    +0.000 A 
ATOM     15  C   UNL     1      -0.940  12.663  18.786  0.00  0.00    +0.000 A 
ATOM     16  C   UNL     1      -0.842  14.014  19.108  0.00  0.00    +0.000 A 
ATOM     17  C   UNL     1       0.374  14.646  18.943  0.00  0.00    +0.000 A 
ATOM     18  C   UNL     1       1.477  13.847  18.726  0.00  0.00    +0.000 A 
ATOM     19  N   UNL     1       1.452  12.486  18.757  0.00  0.00    +0.000 NA
ATOM     20  C   UNL     1       0.235  11.875  18.752  0.00  0.00    +0.000 A 
ENDBRANCH   8  11
ENDBRANCH   1   9
BRANCH   4  21
ATOM     21  S   UNL     1       5.973   4.564  18.788  0.00  0.00    +0.000 S 
ATOM     22  O   UNL     1       6.479   4.231  17.476  0.00  0.00    +0.000 OA
ATOM     23  O   UNL     1       6.857   5.112  19.810  0.00  0.00    +0.000 OA
BRANCH  21  24
ATOM     24  N   UNL     1       5.267   3.207  19.473  0.00  0.00    +0.000 N 
ATOM     25  H   UNL     1       5.654   2.945  20.386  0.00  0.00    +0.000 HD
BRANCH  24  26
ATOM     26  C   UNL     1       3.918   2.828  19.197  0.00  0.00    +0.000 A 
ATOM     27  C   UNL     1       3.016   2.720  20.254  0.00  0.00    +0.000 A 
ATOM     28  C   UNL     1       1.668   2.467  19.982  0.00  0.00    +0.000 A 
ATOM     29  C   UNL     1       1.251   2.283  18.662  0.00  0.00    +0.000 A 
ATOM     30  C   UNL     1       2.167   2.361  17.617  0.00  0.00    +0.000 A 
ATOM     31  C   UNL     1       3.506   2.633  17.883  0.00  0.00    +0.000 A 
ENDBRANCH  24  26
ENDBRANCH  21  24
ENDBRANCH   4  21
TORSDOF 5
ENDMDL
MODEL 9
REMARK VINA RESULT:      -8.8      5.522      6.902
REMARK  Name = 
REMARK  5 active torsions:
REMARK  status: ('A' for Active; 'I' for Inactive)
REMARK    1  A    between atoms: C_2  and  C_20
REMARK    2  A    between atoms: N_3  and  C_4
REMARK    3  A    between atoms: C_7  and  S_8
REMARK    4  A    between atoms: S_8  and  N_11
REMARK    5  A    between atoms: N_11  and  C_12
REMARK                            x       y       z     vdW  Elec       q    Type
REMARK                         _______ _______ _______ _____ _____    ______ ____
ROOT
ATOM      1  C   UNL     1       2.554   7.959  18.324  0.00  0.00    +0.000 A 
ATOM      2  C   UNL     1       2.591   7.043  19.387  0.00  0.00    +0.000 A 
ATOM      3  C   UNL     1       3.398   5.894  19.341  0.00  0.00    +0.000 A 
ATOM      4  C   UNL     1       4.183   5.651  18.215  0.00  0.00    +0.000 A 
ATOM      5  C   UNL     1       4.186   6.565  17.159  0.00  0.00    +0.000 A 
ATOM      6  C   UNL     1       3.376   7.710  17.215  0.00  0.00    +0.000 A 
ENDROOT
BRANCH   1   9
ATOM      7  O   UNL     1       0.952   9.079  20.480  0.00  0.00    +0.000 OA
ATOM      8  C   UNL     1       1.011   9.615  19.374  0.00  0.00    +0.000 C 
ATOM      9  N   UNL     1       1.745   9.125  18.307  0.00  0.00    +0.000 N 
ATOM     10  H   UNL     1       1.664   9.639  17.430  0.00  0.00    +0.000 HD
BRANCH   8  11
ATOM     11  C   UNL     1       0.261  10.902  19.212  0.00  0.00    +0.000 A 
ATOM     12  C   UNL     1      -1.138  10.802  19.385  0.00  0.00    +0.000 A 
ATOM     13  C   UNL     1      -1.935  11.932  19.470  0.00  0.00    +0.000 A 
ATOM     14  C   UNL     1      -1.320  13.168  19.538  0.00  0.00    +0.000 A 
ATOM     15  C   UNL     1       0.062  13.276  19.326  0.00  0.00    +0.000 A 
ATOM     16  C   UNL     1       0.650  14.537  19.362  0.00  0.00    +0.000 A 
ATOM     17  C   UNL     1       1.819  14.741  18.656  0.00  0.00    +0.000 A 
ATOM     18  C   UNL     1       2.473  13.625  18.179  0.00  0.00    +0.000 A 
ATOM     19  N   UNL     1       2.087  12.345  18.440  0.00  0.00    +0.000 NA
ATOM     20  C   UNL     1       0.855  12.154  18.988  0.00  0.00    +0.000 A 
ENDBRANCH   8  11
ENDBRANCH   1   9
BRANCH   4  21
ATOM     21  S   UNL     1       5.286   4.252  18.175  0.00  0.00    +0.000 S 
ATOM     22  O   UNL     1       5.968   4.264  16.902  0.00  0.00    +0.000 OA
ATOM     23  O   UNL     1       6.039   4.261  19.423  0.00  0.00    +0.000 OA
BRANCH  21  24
ATOM     24  N   UNL     1       4.281   2.913  18.255  0.00  0.00    +0.000 N 
ATOM     25  H   UNL     1       4.722   2.037  17.956  0.00  0.00    +0.000 HD
BRANCH  24  26
ATOM     26  C   UNL     1       3.203   2.823  19.188  0.00  0.00    +0.000 A 
ATOM     27  C   UNL     1       3.492   2.639  20.539  0.00  0.00    +0.000 A 
ATOM     28  C   UNL     1       2.451   2.670  21.472  0.00  0.00    +0.000 A 
ATOM     29  C   UNL     1       1.134   2.838  21.037  0.00  0.00    +0.000 A 
ATOM     30  C   UNL     1       0.856   2.988  19.681  0.00  0.00    +0.000 A 
ATOM     31  C   UNL     1       1.891   2.979  18.752  0.00  0.00    +0.000 A 
ENDBRANCH  24  26
ENDBRANCH  21  24
ENDBRANCH   4  21
TORSDOF 5
ENDMDL
