MODEL 1
REMARK VINA RESULT:      -8.2      0.000      0.000
REMARK  Name = 
REMARK  12 active torsions:
REMARK  status: ('A' for Active; 'I' for Inactive)
REMARK    1  A    between atoms: C_1  and  C_2
REMARK    2  A    between atoms: C_2  and  C_3
REMARK    3  A    between atoms: C_2  and  C_4
REMARK    4  A    between atoms: C_2  and  O_5
REMARK    5  A    between atoms: O_5  and  C_6
REMARK    6  A    between atoms: N_8  and  C_9
REMARK    7  A    between atoms: C_9  and  C_10
REMARK    8  A    between atoms: C_10  and  O_11
REMARK    9  A    between atoms: O_11  and  C_12
REMARK   10  A    between atoms: C_16  and  N_17
REMARK   11  A    between atoms: N_17  and  S_18
REMARK   12  A    between atoms: S_18  and  C_21
REMARK                            x       y       z     vdW  Elec       q    Type
REMARK                         _______ _______ _______ _____ _____    ______ ____
ROOT
ATOM      1  N   UNL     1       2.967   5.822  20.475  0.00  0.00    +0.000 N 
ATOM      2  H   UNL     1       3.912   5.921  20.837  0.00  0.00    +0.000 HD
ENDROOT
BRANCH   1   7
ATOM      3  C   UNL     1       1.082   8.996  19.975  0.00  0.00    +0.000 A 
ATOM      4  C   UNL     1       1.340   9.228  18.620  0.00  0.00    +0.000 A 
ATOM      5  C   UNL     1       2.118   8.334  17.881  0.00  0.00    +0.000 A 
ATOM      6  C   UNL     1       2.656   7.206  18.493  0.00  0.00    +0.000 A 
ATOM      7  C   UNL     1       2.396   6.960  19.840  0.00  0.00    +0.000 A 
ATOM      8  C   UNL     1       1.599   7.843  20.576  0.00  0.00    +0.000 A 
BRANCH   3   9
ATOM      9  O   UNL     1       0.359   9.828  20.798  0.00  0.00    +0.000 OA
BRANCH   9  10
ATOM     10  C   UNL     1       0.834  11.178  20.887  0.00  0.00    +0.000 C 
BRANCH  10  11
ATOM     11  C   UNL     1      -0.334  12.175  20.853  0.00  0.00    +0.000 C 
BRANCH  11  14
ATOM     12  C   UNL     1      -1.373  12.794  22.988  0.00  0.00    +0.000 C 
ATOM     13  O   UNL     1      -0.594  13.723  23.158  0.00  0.00    +0.000 OA
ATOM     14  N   UNL     1      -1.307  11.953  21.917  0.00  0.00    +0.000 N 
ATOM     15  H   UNL     1      -2.052  11.274  21.813  0.00  0.00    +0.000 HD
BRANCH  12  16
ATOM     16  O   UNL     1      -2.387  12.455  23.826  0.00  0.00    +0.000 OA
BRANCH  16  18
ATOM     17  C   UNL     1      -4.767  12.598  24.478  0.00  0.00    +0.000 C 
ATOM     18  C   UNL     1      -3.554  13.327  23.882  0.00  0.00    +0.000 C 
ATOM     19  C   UNL     1      -3.863  13.924  22.501  0.00  0.00    +0.000 C 
ATOM     20  C   UNL     1      -3.199  14.485  24.831  0.00  0.00    +0.000 C 
ENDBRANCH  16  18
ENDBRANCH  12  16
ENDBRANCH  11  14
ENDBRANCH  10  11
ENDBRANCH   9  10
ENDBRANCH   3   9
ENDBRANCH   1   7
BRANCH   1  21
ATOM     21  S   UNL     1       2.640   4.273  19.884  0.00  0.00    +0.000 S 
ATOM     22  O   UNL     1       3.223   3.336  20.820  0.00  0.00    +0.000 OA
ATOM     23  O   UNL     1       1.239   4.202  19.531  0.00  0.00    +0.000 OA
BRANCH  21  24
ATOM     24  C   UNL     1       3.598   4.170  18.385  0.00  0.00    +0.000 A 
ATOM     25  C   UNL     1       2.977   3.641  17.222  0.00  0.00    +0.000 A 
ATOM     26  C   UNL     1       3.639   3.609  15.981  0.00  0.00    +0.000 A 
ATOM     27  C   UNL     1       4.908   4.153  15.968  0.00  0.00    +0.000 A 
ATOM     28  C   UNL     1       5.499   4.653  17.107  0.00  0.00    +0.000 A 
ATOM     29  C   UNL     1       6.746   5.156  16.767  0.00  0.00    +0.000 A 
ATOM     30  C   UNL     1       7.546   5.737  17.744  0.00  0.00    +0.000 A 
ATOM     31  C   UNL     1       7.051   5.715  19.058  0.00  0.00    +0.000 A 
ATOM     32  C   UNL     1       5.783   5.178  19.368  0.00  0.00    +0.000 A 
ATOM     33  C   UNL     1       4.936   4.662  18.350  0.00  0.00    +0.000 A 
ATOM     34  C   UNL     1       6.982   4.965  15.349  0.00  0.00    +0.000 C 
ATOM     35  O   UNL     1       7.925   5.247  14.619  0.00  0.00    +0.000 OA
ATOM     36  N   UNL     1       5.806   4.329  14.930  0.00  0.00    +0.000 N 
ATOM     37  H   UNL     1       5.662   4.047  13.971  0.00  0.00    +0.000 HD
ENDBRANCH  21  24
ENDBRANCH   1  21
TORSDOF 9
ENDMDL
MODEL 2
REMARK VINA RESULT:      -8.1      3.968      8.804
REMARK  Name = 
REMARK  12 active torsions:
REMARK  status: ('A' for Active; 'I' for Inactive)
REMARK    1  A    between atoms: C_1  and  C_2
REMARK    2  A    between atoms: C_2  and  C_3
REMARK    3  A    between atoms: C_2  and  C_4
REMARK    4  A    between atoms: C_2  and  O_5
REMARK    5  A    between atoms: O_5  and  C_6
REMARK    6  A    between atoms: N_8  and  C_9
REMARK    7  A    between atoms: C_9  and  C_10
REMARK    8  A    between atoms: C_10  and  O_11
REMARK    9  A    between atoms: O_11  and  C_12
REMARK   10  A    between atoms: C_16  and  N_17
REMARK   11  A    between atoms: N_17  and  S_18
REMARK   12  A    between atoms: S_18  and  C_21
REMARK                            x       y       z     vdW  Elec       q    Type
REMARK                         _______ _______ _______ _____ _____    ______ ____
ROOT
ATOM      1  N   UNL     1       3.910   4.604  19.845  0.00  0.00    +0.000 N 
ATOM      2  H   UNL     1       4.112   3.853  20.501  0.00  0.00    +0.000 HD
ENDROOT
BRANCH   1   7
ATOM      3  C   UNL     1       6.650   5.462  17.472  0.00  0.00    +0.000 A 
ATOM      4  C   UNL     1       6.269   4.697  16.365  0.00  0.00    +0.000 A 
ATOM      5  C   UNL     1       5.110   3.920  16.403  0.00  0.00    +0.000 A 
ATOM      6  C   UNL     1       4.327   3.888  17.553  0.00  0.00    +0.000 A 
ATOM      7  C   UNL     1       4.692   4.654  18.659  0.00  0.00    +0.000 A 
ATOM      8  C   UNL     1       5.841   5.451  18.614  0.00  0.00    +0.000 A 
BRANCH   3   9
ATOM      9  O   UNL     1       7.787   6.233  17.550  0.00  0.00    +0.000 OA
BRANCH   9  10
ATOM     10  C   UNL     1       7.586   7.648  17.437  0.00  0.00    +0.000 C 
BRANCH  10  11
ATOM     11  C   UNL     1       8.473   8.410  18.433  0.00  0.00    +0.000 C 
BRANCH  11  14
ATOM     12  C   UNL     1       9.096  10.709  19.022  0.00  0.00    +0.000 C 
ATOM     13  O   UNL     1       9.352  10.400  20.178  0.00  0.00    +0.000 OA
ATOM     14  N   UNL     1       8.622   9.823  18.101  0.00  0.00    +0.000 N 
ATOM     15  H   UNL     1       8.531  10.149  17.146  0.00  0.00    +0.000 HD
BRANCH  12  16
ATOM     16  O   UNL     1       9.226  11.955  18.494  0.00  0.00    +0.000 OA
BRANCH  16  18
ATOM     17  C   UNL     1      11.654  11.532  18.301  0.00  0.00    +0.000 C 
ATOM     18  C   UNL     1      10.545  12.575  18.510  0.00  0.00    +0.000 C 
ATOM     19  C   UNL     1      10.757  13.389  19.796  0.00  0.00    +0.000 C 
ATOM     20  C   UNL     1      10.595  13.547  17.319  0.00  0.00    +0.000 C 
ENDBRANCH  16  18
ENDBRANCH  12  16
ENDBRANCH  11  14
ENDBRANCH  10  11
ENDBRANCH   9  10
ENDBRANCH   3   9
ENDBRANCH   1   7
BRANCH   1  21
ATOM     21  S   UNL     1       2.272   5.018  19.794  0.00  0.00    +0.000 S 
ATOM     22  O   UNL     1       1.668   4.210  18.755  0.00  0.00    +0.000 OA
ATOM     23  O   UNL     1       1.752   5.007  21.144  0.00  0.00    +0.000 OA
BRANCH  21  24
ATOM     24  C   UNL     1       2.268   6.700  19.209  0.00  0.00    +0.000 A 
ATOM     25  C   UNL     1       2.846   6.975  17.940  0.00  0.00    +0.000 A 
ATOM     26  C   UNL     1       2.803   8.263  17.373  0.00  0.00    +0.000 A 
ATOM     27  C   UNL     1       2.137   9.219  18.114  0.00  0.00    +0.000 A 
ATOM     28  C   UNL     1       1.592   8.938  19.346  0.00  0.00    +0.000 A 
ATOM     29  C   UNL     1       0.967  10.082  19.819  0.00  0.00    +0.000 A 
ATOM     30  C   UNL     1       0.319  10.057  21.048  0.00  0.00    +0.000 A 
ATOM     31  C   UNL     1       0.400   8.861  21.779  0.00  0.00    +0.000 A 
ATOM     32  C   UNL     1       1.061   7.721  21.272  0.00  0.00    +0.000 A 
ATOM     33  C   UNL     1       1.649   7.729  19.978  0.00  0.00    +0.000 A 
ATOM     34  C   UNL     1       1.122  11.157  18.858  0.00  0.00    +0.000 C 
ATOM     35  O   UNL     1       0.743  12.322  18.849  0.00  0.00    +0.000 OA
ATOM     36  N   UNL     1       1.866  10.548  17.839  0.00  0.00    +0.000 N 
ATOM     37  H   UNL     1       2.153  11.050  17.012  0.00  0.00    +0.000 HD
ENDBRANCH  21  24
ENDBRANCH   1  21
TORSDOF 9
ENDMDL
MODEL 3
REMARK VINA RESULT:      -8.1      0.840      1.178
REMARK  Name = 
REMARK  12 active torsions:
REMARK  status: ('A' for Active; 'I' for Inactive)
REMARK    1  A    between atoms: C_1  and  C_2
REMARK    2  A    between atoms: C_2  and  C_3
REMARK    3  A    between atoms: C_2  and  C_4
REMARK    4  A    between atoms: C_2  and  O_5
REMARK    5  A    between atoms: O_5  and  C_6
REMARK    6  A    between atoms: N_8  and  C_9
REMARK    7  A    between atoms: C_9  and  C_10
REMARK    8  A    between atoms: C_10  and  O_11
REMARK    9  A    between atoms: O_11  and  C_12
REMARK   10  A    between atoms: C_16  and  N_17
REMARK   11  A    between atoms: N_17  and  S_18
REMARK   12  A    between atoms: S_18  and  C_21
REMARK                            x       y       z     vdW  Elec       q    Type
REMARK                         _______ _______ _______ _____ _____    ______ ____
ROOT
ATOM      1  N   UNL     1       2.910   5.856  20.501  0.00  0.00    +0.000 N 
ATOM      2  H   UNL     1       3.854   5.954  20.863  0.00  0.00    +0.000 HD
ENDROOT
BRANCH   1   7
ATOM      3  C   UNL     1       1.003   9.013  19.978  0.00  0.00    +0.000 A 
ATOM      4  C   UNL     1       1.289   9.256  18.630  0.00  0.00    +0.000 A 
ATOM      5  C   UNL     1       2.091   8.374  17.904  0.00  0.00    +0.000 A 
ATOM      6  C   UNL     1       2.628   7.248  18.520  0.00  0.00    +0.000 A 
ATOM      7  C   UNL     1       2.341   6.991  19.860  0.00  0.00    +0.000 A 
ATOM      8  C   UNL     1       1.519   7.861  20.583  0.00  0.00    +0.000 A 
BRANCH   3   9
ATOM      9  O   UNL     1       0.254   9.833  20.790  0.00  0.00    +0.000 OA
BRANCH   9  10
ATOM     10  C   UNL     1       0.486   9.691  22.198  0.00  0.00    +0.000 C 
BRANCH  10  11
ATOM     11  C   UNL     1      -0.632  10.364  23.009  0.00  0.00    +0.000 C 
BRANCH  11  14
ATOM     12  C   UNL     1      -1.482  12.616  22.530  0.00  0.00    +0.000 C 
ATOM     13  O   UNL     1      -0.927  13.092  23.512  0.00  0.00    +0.000 OA
ATOM     14  N   UNL     1      -1.434  11.290  22.217  0.00  0.00    +0.000 N 
ATOM     15  H   UNL     1      -1.843  11.007  21.334  0.00  0.00    +0.000 HD
BRANCH  12  16
ATOM     16  O   UNL     1      -2.225  13.314  21.632  0.00  0.00    +0.000 OA
BRANCH  16  18
ATOM     17  C   UNL     1      -4.418  14.199  20.913  0.00  0.00    +0.000 C 
ATOM     18  C   UNL     1      -3.472  13.914  22.090  0.00  0.00    +0.000 C 
ATOM     19  C   UNL     1      -3.204  15.173  22.929  0.00  0.00    +0.000 C 
ATOM     20  C   UNL     1      -4.159  12.877  22.995  0.00  0.00    +0.000 C 
ENDBRANCH  16  18
ENDBRANCH  12  16
ENDBRANCH  11  14
ENDBRANCH  10  11
ENDBRANCH   9  10
ENDBRANCH   3   9
ENDBRANCH   1   7
BRANCH   1  21
ATOM     21  S   UNL     1       2.581   4.304  19.916  0.00  0.00    +0.000 S 
ATOM     22  O   UNL     1       3.161   3.371  20.858  0.00  0.00    +0.000 OA
ATOM     23  O   UNL     1       1.180   4.234  19.561  0.00  0.00    +0.000 OA
BRANCH  21  24
ATOM     24  C   UNL     1       3.541   4.193  18.419  0.00  0.00    +0.000 A 
ATOM     25  C   UNL     1       2.915   3.679  17.252  0.00  0.00    +0.000 A 
ATOM     26  C   UNL     1       3.581   3.641  16.013  0.00  0.00    +0.000 A 
ATOM     27  C   UNL     1       4.858   4.166  16.006  0.00  0.00    +0.000 A 
ATOM     28  C   UNL     1       5.454   4.651  17.149  0.00  0.00    +0.000 A 
ATOM     29  C   UNL     1       6.709   5.135  16.815  0.00  0.00    +0.000 A 
ATOM     30  C   UNL     1       7.515   5.700  17.797  0.00  0.00    +0.000 A 
ATOM     31  C   UNL     1       7.016   5.679  19.109  0.00  0.00    +0.000 A 
ATOM     32  C   UNL     1       5.739   5.161  19.413  0.00  0.00    +0.000 A 
ATOM     33  C   UNL     1       4.887   4.663  18.390  0.00  0.00    +0.000 A 
ATOM     34  C   UNL     1       6.946   4.948  15.396  0.00  0.00    +0.000 C 
ATOM     35  O   UNL     1       7.896   5.218  14.671  0.00  0.00    +0.000 OA
ATOM     36  N   UNL     1       5.761   4.332  14.971  0.00  0.00    +0.000 N 
ATOM     37  H   UNL     1       5.616   4.056  14.011  0.00  0.00    +0.000 HD
ENDBRANCH  21  24
ENDBRANCH   1  21
TORSDOF 9
ENDMDL
MODEL 4
REMARK VINA RESULT:      -8.0      2.445      2.963
REMARK  Name = 
REMARK  12 active torsions:
REMARK  status: ('A' for Active; 'I' for Inactive)
REMARK    1  A    between atoms: C_1  and  C_2
REMARK    2  A    between atoms: C_2  and  C_3
REMARK    3  A    between atoms: C_2  and  C_4
REMARK    4  A    between atoms: C_2  and  O_5
REMARK    5  A    between atoms: O_5  and  C_6
REMARK    6  A    between atoms: N_8  and  C_9
REMARK    7  A    between atoms: C_9  and  C_10
REMARK    8  A    between atoms: C_10  and  O_11
REMARK    9  A    between atoms: O_11  and  C_12
REMARK   10  A    between atoms: C_16  and  N_17
REMARK   11  A    between atoms: N_17  and  S_18
REMARK   12  A    between atoms: S_18  and  C_21
REMARK                            x       y       z     vdW  Elec       q    Type
REMARK                         _______ _______ _______ _____ _____    ______ ____
ROOT
ATOM      1  N   UNL     1       2.800   6.012  20.494  0.00  0.00    +0.000 N 
ATOM      2  H   UNL     1       3.717   6.097  20.924  0.00  0.00    +0.000 HD
ENDROOT
BRANCH   1   7
ATOM      3  C   UNL     1       1.023   9.162  19.601  0.00  0.00    +0.000 A 
ATOM      4  C   UNL     1       1.480   9.342  18.291  0.00  0.00    +0.000 A 
ATOM      5  C   UNL     1       2.353   8.422  17.710  0.00  0.00    +0.000 A 
ATOM      6  C   UNL     1       2.791   7.319  18.436  0.00  0.00    +0.000 A 
ATOM      7  C   UNL     1       2.334   7.124  19.739  0.00  0.00    +0.000 A 
ATOM      8  C   UNL     1       1.441   8.033  20.315  0.00  0.00    +0.000 A 
BRANCH   3   9
ATOM      9  O   UNL     1       0.191  10.024  20.276  0.00  0.00    +0.000 OA
BRANCH   9  10
ATOM     10  C   UNL     1       0.188  11.379  19.807  0.00  0.00    +0.000 C 
BRANCH  10  11
ATOM     11  C   UNL     1      -0.679  11.521  18.546  0.00  0.00    +0.000 C 
BRANCH  11  14
ATOM     12  C   UNL     1      -2.906  10.965  17.678  0.00  0.00    +0.000 C 
ATOM     13  O   UNL     1      -2.628  11.371  16.557  0.00  0.00    +0.000 OA
ATOM     14  N   UNL     1      -2.040  11.030  18.729  0.00  0.00    +0.000 N 
ATOM     15  H   UNL     1      -2.324  10.582  19.593  0.00  0.00    +0.000 HD
BRANCH  12  16
ATOM     16  O   UNL     1      -4.093  10.416  18.044  0.00  0.00    +0.000 OA
BRANCH  16  18
ATOM     17  C   UNL     1      -6.463  10.529  18.739  0.00  0.00    +0.000 C 
ATOM     18  C   UNL     1      -5.217  11.310  18.295  0.00  0.00    +0.000 C 
ATOM     19  C   UNL     1      -5.500  12.198  17.073  0.00  0.00    +0.000 C 
ATOM     20  C   UNL     1      -4.805  12.226  19.461  0.00  0.00    +0.000 C 
ENDBRANCH  16  18
ENDBRANCH  12  16
ENDBRANCH  11  14
ENDBRANCH  10  11
ENDBRANCH   9  10
ENDBRANCH   3   9
ENDBRANCH   1   7
BRANCH   1  21
ATOM     21  S   UNL     1       2.449   4.440  19.984  0.00  0.00    +0.000 S 
ATOM     22  O   UNL     1       2.995   3.544  20.982  0.00  0.00    +0.000 OA
ATOM     23  O   UNL     1       1.052   4.378  19.611  0.00  0.00    +0.000 OA
BRANCH  21  24
ATOM     24  C   UNL     1       3.428   4.232  18.511  0.00  0.00    +0.000 A 
ATOM     25  C   UNL     1       2.799   3.710  17.349  0.00  0.00    +0.000 A 
ATOM     26  C   UNL     1       3.484   3.599  16.124  0.00  0.00    +0.000 A 
ATOM     27  C   UNL     1       4.785   4.061  16.126  0.00  0.00    +0.000 A 
ATOM     28  C   UNL     1       5.383   4.556  17.263  0.00  0.00    +0.000 A 
ATOM     29  C   UNL     1       6.666   4.969  16.938  0.00  0.00    +0.000 A 
ATOM     30  C   UNL     1       7.481   5.527  17.916  0.00  0.00    +0.000 A 
ATOM     31  C   UNL     1       6.958   5.574  19.218  0.00  0.00    +0.000 A 
ATOM     32  C   UNL     1       5.652   5.128  19.514  0.00  0.00    +0.000 A 
ATOM     33  C   UNL     1       4.796   4.637  18.492  0.00  0.00    +0.000 A 
ATOM     34  C   UNL     1       6.919   4.722  15.530  0.00  0.00    +0.000 C 
ATOM     35  O   UNL     1       7.893   4.923  14.815  0.00  0.00    +0.000 OA
ATOM     36  N   UNL     1       5.714   4.150  15.103  0.00  0.00    +0.000 N 
ATOM     37  H   UNL     1       5.572   3.849  14.150  0.00  0.00    +0.000 HD
ENDBRANCH  21  24
ENDBRANCH   1  21
TORSDOF 9
ENDMDL
MODEL 5
REMARK VINA RESULT:      -8.0      1.015      1.142
REMARK  Name = 
REMARK  12 active torsions:
REMARK  status: ('A' for Active; 'I' for Inactive)
REMARK    1  A    between atoms: C_1  and  C_2
REMARK    2  A    between atoms: C_2  and  C_3
REMARK    3  A    between atoms: C_2  and  C_4
REMARK    4  A    between atoms: C_2  and  O_5
REMARK    5  A    between atoms: O_5  and  C_6
REMARK    6  A    between atoms: N_8  and  C_9
REMARK    7  A    between atoms: C_9  and  C_10
REMARK    8  A    between atoms: C_10  and  O_11
REMARK    9  A    between atoms: O_11  and  C_12
REMARK   10  A    between atoms: C_16  and  N_17
REMARK   11  A    between atoms: N_17  and  S_18
REMARK   12  A    between atoms: S_18  and  C_21
REMARK                            x       y       z     vdW  Elec       q    Type
REMARK                         _______ _______ _______ _____ _____    ______ ____
ROOT
ATOM      1  N   UNL     1       2.898   6.064  20.435  0.00  0.00    +0.000 N 
ATOM      2  H   UNL     1       3.878   6.164  20.685  0.00  0.00    +0.000 HD
ENDROOT
BRANCH   1   7
ATOM      3  C   UNL     1       0.882   9.185  20.167  0.00  0.00    +0.000 A 
ATOM      4  C   UNL     1       1.052   9.475  18.809  0.00  0.00    +0.000 A 
ATOM      5  C   UNL     1       1.812   8.636  17.993  0.00  0.00    +0.000 A 
ATOM      6  C   UNL     1       2.423   7.506  18.528  0.00  0.00    +0.000 A 
ATOM      7  C   UNL     1       2.253   7.203  19.878  0.00  0.00    +0.000 A 
ATOM      8  C   UNL     1       1.472   8.030  20.692  0.00  0.00    +0.000 A 
BRANCH   3   9
ATOM      9  O   UNL     1       0.184   9.961  21.062  0.00  0.00    +0.000 OA
BRANCH   9  10
ATOM     10  C   UNL     1      -0.675  10.954  20.485  0.00  0.00    +0.000 C 
BRANCH  10  11
ATOM     11  C   UNL     1      -0.974  12.075  21.492  0.00  0.00    +0.000 C 
BRANCH  11  14
ATOM     12  C   UNL     1      -3.342  12.710  21.593  0.00  0.00    +0.000 C 
ATOM     13  O   UNL     1      -3.214  13.535  20.699  0.00  0.00    +0.000 OA
ATOM     14  N   UNL     1      -2.304  11.973  22.082  0.00  0.00    +0.000 N 
ATOM     15  H   UNL     1      -2.526  11.249  22.755  0.00  0.00    +0.000 HD
BRANCH  12  16
ATOM     16  O   UNL     1      -4.505  12.418  22.232  0.00  0.00    +0.000 OA
BRANCH  16  18
ATOM     17  C   UNL     1      -4.239  12.429  24.690  0.00  0.00    +0.000 C 
ATOM     18  C   UNL     1      -4.816  13.143  23.458  0.00  0.00    +0.000 C 
ATOM     19  C   UNL     1      -6.328  13.383  23.589  0.00  0.00    +0.000 C 
ATOM     20  C   UNL     1      -4.125  14.514  23.354  0.00  0.00    +0.000 C 
ENDBRANCH  16  18
ENDBRANCH  12  16
ENDBRANCH  11  14
ENDBRANCH  10  11
ENDBRANCH   9  10
ENDBRANCH   3   9
ENDBRANCH   1   7
BRANCH   1  21
ATOM     21  S   UNL     1       2.510   4.517  19.875  0.00  0.00    +0.000 S 
ATOM     22  O   UNL     1       3.035   3.578  20.844  0.00  0.00    +0.000 OA
ATOM     23  O   UNL     1       1.112   4.500  19.501  0.00  0.00    +0.000 OA
BRANCH  21  24
ATOM     24  C   UNL     1       3.485   4.334  18.396  0.00  0.00    +0.000 A 
ATOM     25  C   UNL     1       2.861   3.797  17.238  0.00  0.00    +0.000 A 
ATOM     26  C   UNL     1       3.541   3.703  16.009  0.00  0.00    +0.000 A 
ATOM     27  C   UNL     1       4.831   4.197  16.002  0.00  0.00    +0.000 A 
ATOM     28  C   UNL     1       5.423   4.705  17.136  0.00  0.00    +0.000 A 
ATOM     29  C   UNL     1       6.694   5.149  16.803  0.00  0.00    +0.000 A 
ATOM     30  C   UNL     1       7.502   5.726  17.776  0.00  0.00    +0.000 A 
ATOM     31  C   UNL     1       6.986   5.761  19.082  0.00  0.00    +0.000 A 
ATOM     32  C   UNL     1       5.693   5.283  19.386  0.00  0.00    +0.000 A 
ATOM     33  C   UNL     1       4.843   4.771  18.369  0.00  0.00    +0.000 A 
ATOM     34  C   UNL     1       6.944   4.909  15.394  0.00  0.00    +0.000 C 
ATOM     35  O   UNL     1       7.908   5.133  14.672  0.00  0.00    +0.000 OA
ATOM     36  N   UNL     1       5.750   4.308  14.974  0.00  0.00    +0.000 N 
ATOM     37  H   UNL     1       5.610   4.004  14.022  0.00  0.00    +0.000 HD
ENDBRANCH  21  24
ENDBRANCH   1  21
TORSDOF 9
ENDMDL
MODEL 6
REMARK VINA RESULT:      -8.0      0.870      1.269
REMARK  Name = 
REMARK  12 active torsions:
REMARK  status: ('A' for Active; 'I' for Inactive)
REMARK    1  A    between atoms: C_1  and  C_2
REMARK    2  A    between atoms: C_2  and  C_3
REMARK    3  A    between atoms: C_2  and  C_4
REMARK    4  A    between atoms: C_2  and  O_5
REMARK    5  A    between atoms: O_5  and  C_6
REMARK    6  A    between atoms: N_8  and  C_9
REMARK    7  A    between atoms: C_9  and  C_10
REMARK    8  A    between atoms: C_10  and  O_11
REMARK    9  A    between atoms: O_11  and  C_12
REMARK   10  A    between atoms: C_16  and  N_17
REMARK   11  A    between atoms: N_17  and  S_18
REMARK   12  A    between atoms: S_18  and  C_21
REMARK                            x       y       z     vdW  Elec       q    Type
REMARK                         _______ _______ _______ _____ _____    ______ ____
ROOT
ATOM      1  N   UNL     1       2.924   5.926  20.496  0.00  0.00    +0.000 N 
ATOM      2  H   UNL     1       3.877   6.032  20.835  0.00  0.00    +0.000 HD
ENDROOT
BRANCH   1   7
ATOM      3  C   UNL     1       0.888   9.002  19.977  0.00  0.00    +0.000 A 
ATOM      4  C   UNL     1       1.231   9.307  18.656  0.00  0.00    +0.000 A 
ATOM      5  C   UNL     1       2.114   8.493  17.944  0.00  0.00    +0.000 A 
ATOM      6  C   UNL     1       2.674   7.373  18.551  0.00  0.00    +0.000 A 
ATOM      7  C   UNL     1       2.332   7.054  19.864  0.00  0.00    +0.000 A 
ATOM      8  C   UNL     1       1.430   7.856  20.571  0.00  0.00    +0.000 A 
BRANCH   3   9
ATOM      9  O   UNL     1       0.057   9.754  20.775  0.00  0.00    +0.000 OA
BRANCH   9  10
ATOM     10  C   UNL     1       0.566  11.036  21.167  0.00  0.00    +0.000 C 
BRANCH  10  11
ATOM     11  C   UNL     1      -0.520  12.117  21.053  0.00  0.00    +0.000 C 
BRANCH  11  14
ATOM     12  C   UNL     1      -1.216  13.222  23.131  0.00  0.00    +0.000 C 
ATOM     13  O   UNL     1      -2.151  12.449  23.290  0.00  0.00    +0.000 OA
ATOM     14  N   UNL     1      -0.384  13.172  22.052  0.00  0.00    +0.000 N 
ATOM     15  H   UNL     1       0.418  13.790  22.054  0.00  0.00    +0.000 HD
BRANCH  12  16
ATOM     16  O   UNL     1      -0.879  14.234  23.973  0.00  0.00    +0.000 OA
BRANCH  16  18
ATOM     17  C   UNL     1      -2.713  15.480  22.880  0.00  0.00    +0.000 C 
ATOM     18  C   UNL     1      -1.807  15.349  24.114  0.00  0.00    +0.000 C 
ATOM     19  C   UNL     1      -1.059  16.655  24.420  0.00  0.00    +0.000 C 
ATOM     20  C   UNL     1      -2.711  15.026  25.318  0.00  0.00    +0.000 C 
ENDBRANCH  16  18
ENDBRANCH  12  16
ENDBRANCH  11  14
ENDBRANCH  10  11
ENDBRANCH   9  10
ENDBRANCH   3   9
ENDBRANCH   1   7
BRANCH   1  21
ATOM     21  S   UNL     1       2.590   4.369  19.928  0.00  0.00    +0.000 S 
ATOM     22  O   UNL     1       3.171   3.444  20.877  0.00  0.00    +0.000 OA
ATOM     23  O   UNL     1       1.188   4.298  19.577  0.00  0.00    +0.000 OA
BRANCH  21  24
ATOM     24  C   UNL     1       3.546   4.241  18.429  0.00  0.00    +0.000 A 
ATOM     25  C   UNL     1       2.912   3.730  17.266  0.00  0.00    +0.000 A 
ATOM     26  C   UNL     1       3.574   3.680  16.025  0.00  0.00    +0.000 A 
ATOM     27  C   UNL     1       4.858   4.190  16.014  0.00  0.00    +0.000 A 
ATOM     28  C   UNL     1       5.461   4.673  17.153  0.00  0.00    +0.000 A 
ATOM     29  C   UNL     1       6.721   5.142  16.815  0.00  0.00    +0.000 A 
ATOM     30  C   UNL     1       7.536   5.701  17.793  0.00  0.00    +0.000 A 
ATOM     31  C   UNL     1       7.039   5.691  19.106  0.00  0.00    +0.000 A 
ATOM     32  C   UNL     1       5.757   5.189  19.415  0.00  0.00    +0.000 A 
ATOM     33  C   UNL     1       4.898   4.696  18.396  0.00  0.00    +0.000 A 
ATOM     34  C   UNL     1       6.953   4.946  15.396  0.00  0.00    +0.000 C 
ATOM     35  O   UNL     1       7.904   5.203  14.668  0.00  0.00    +0.000 OA
ATOM     36  N   UNL     1       5.760   4.342  14.976  0.00  0.00    +0.000 N 
ATOM     37  H   UNL     1       5.610   4.065  14.017  0.00  0.00    +0.000 HD
ENDBRANCH  21  24
ENDBRANCH   1  21
TORSDOF 9
ENDMDL
MODEL 7
REMARK VINA RESULT:      -7.9      2.100     10.033
REMARK  Name = 
REMARK  12 active torsions:
REMARK  status: ('A' for Active; 'I' for Inactive)
REMARK    1  A    between atoms: C_1  and  C_2
REMARK    2  A    between atoms: C_2  and  C_3
REMARK    3  A    between atoms: C_2  and  C_4
REMARK    4  A    between atoms: C_2  and  O_5
REMARK    5  A    between atoms: O_5  and  C_6
REMARK    6  A    between atoms: N_8  and  C_9
REMARK    7  A    between atoms: C_9  and  C_10
REMARK    8  A    between atoms: C_10  and  O_11
REMARK    9  A    between atoms: O_11  and  C_12
REMARK   10  A    between atoms: C_16  and  N_17
REMARK   11  A    between atoms: N_17  and  S_18
REMARK   12  A    between atoms: S_18  and  C_21
REMARK                            x       y       z     vdW  Elec       q    Type
REMARK                         _______ _______ _______ _____ _____    ______ ____
ROOT
ATOM      1  N   UNL     1       2.813   7.060  19.927  0.00  0.00    +0.000 N 
ATOM      2  H   UNL     1       3.026   7.411  20.857  0.00  0.00    +0.000 HD
ENDROOT
BRANCH   1   7
ATOM      3  C   UNL     1       3.135   3.541  18.746  0.00  0.00    +0.000 A 
ATOM      4  C   UNL     1       2.221   2.910  19.596  0.00  0.00    +0.000 A 
ATOM      5  C   UNL     1       1.498   3.646  20.536  0.00  0.00    +0.000 A 
ATOM      6  C   UNL     1       1.692   5.019  20.647  0.00  0.00    +0.000 A 
ATOM      7  C   UNL     1       2.593   5.660  19.799  0.00  0.00    +0.000 A 
ATOM      8  C   UNL     1       3.301   4.928  18.840  0.00  0.00    +0.000 A 
BRANCH   3   9
ATOM      9  O   UNL     1       3.919   2.906  17.812  0.00  0.00    +0.000 OA
BRANCH   9  10
ATOM     10  C   UNL     1       3.944   3.507  16.510  0.00  0.00    +0.000 C 
BRANCH  10  11
ATOM     11  C   UNL     1       5.319   3.326  15.848  0.00  0.00    +0.000 C 
BRANCH  11  14
ATOM     12  C   UNL     1       6.822   5.266  15.868  0.00  0.00    +0.000 C 
ATOM     13  O   UNL     1       6.450   5.632  14.762  0.00  0.00    +0.000 OA
ATOM     14  N   UNL     1       6.363   4.132  16.471  0.00  0.00    +0.000 N 
ATOM     15  H   UNL     1       6.658   3.962  17.426  0.00  0.00    +0.000 HD
BRANCH  12  16
ATOM     16  O   UNL     1       7.739   5.905  16.641  0.00  0.00    +0.000 OA
BRANCH  16  18
ATOM     17  C   UNL     1       5.744   7.061  17.534  0.00  0.00    +0.000 C 
ATOM     18  C   UNL     1       7.254   6.813  17.673  0.00  0.00    +0.000 C 
ATOM     19  C   UNL     1       8.054   8.125  17.674  0.00  0.00    +0.000 C 
ATOM     20  C   UNL     1       7.484   6.116  19.025  0.00  0.00    +0.000 C 
ENDBRANCH  16  18
ENDBRANCH  12  16
ENDBRANCH  11  14
ENDBRANCH  10  11
ENDBRANCH   9  10
ENDBRANCH   3   9
ENDBRANCH   1   7
BRANCH   1  21
ATOM     21  S   UNL     1       1.910   8.145  18.997  0.00  0.00    +0.000 S 
ATOM     22  O   UNL     1       2.846   9.097  18.438  0.00  0.00    +0.000 OA
ATOM     23  O   UNL     1       1.016   7.389  18.147  0.00  0.00    +0.000 OA
BRANCH  21  24
ATOM     24  C   UNL     1       0.928   9.027  20.194  0.00  0.00    +0.000 A 
ATOM     25  C   UNL     1       1.133   8.751  21.572  0.00  0.00    +0.000 A 
ATOM     26  C   UNL     1       0.459   9.468  22.578  0.00  0.00    +0.000 A 
ATOM     27  C   UNL     1      -0.381  10.470  22.133  0.00  0.00    +0.000 A 
ATOM     28  C   UNL     1      -0.577  10.718  20.793  0.00  0.00    +0.000 A 
ATOM     29  C   UNL     1      -1.439  11.796  20.669  0.00  0.00    +0.000 A 
ATOM     30  C   UNL     1      -1.787  12.262  19.406  0.00  0.00    +0.000 A 
ATOM     31  C   UNL     1      -1.281  11.545  18.310  0.00  0.00    +0.000 A 
ATOM     32  C   UNL     1      -0.418  10.440  18.476  0.00  0.00    +0.000 A 
ATOM     33  C   UNL     1      -0.001  10.023  19.769  0.00  0.00    +0.000 A 
ATOM     34  C   UNL     1      -1.831  12.265  21.985  0.00  0.00    +0.000 C 
ATOM     35  O   UNL     1      -2.562  13.174  22.359  0.00  0.00    +0.000 OA
ATOM     36  N   UNL     1      -1.145  11.386  22.835  0.00  0.00    +0.000 N 
ATOM     37  H   UNL     1      -1.221  11.445  23.839  0.00  0.00    +0.000 HD
ENDBRANCH  21  24
ENDBRANCH   1  21
TORSDOF 9
ENDMDL
MODEL 8
REMARK VINA RESULT:      -7.8      2.324      3.075
REMARK  Name = 
REMARK  12 active torsions:
REMARK  status: ('A' for Active; 'I' for Inactive)
REMARK    1  A    between atoms: C_1  and  C_2
REMARK    2  A    between atoms: C_2  and  C_3
REMARK    3  A    between atoms: C_2  and  C_4
REMARK    4  A    between atoms: C_2  and  O_5
REMARK    5  A    between atoms: O_5  and  C_6
REMARK    6  A    between atoms: N_8  and  C_9
REMARK    7  A    between atoms: C_9  and  C_10
REMARK    8  A    between atoms: C_10  and  O_11
REMARK    9  A    between atoms: O_11  and  C_12
REMARK   10  A    between atoms: C_16  and  N_17
REMARK   11  A    between atoms: N_17  and  S_18
REMARK   12  A    between atoms: S_18  and  C_21
REMARK                            x       y       z     vdW  Elec       q    Type
REMARK                         _______ _______ _______ _____ _____    ______ ____
ROOT
ATOM      1  N   UNL     1       2.915   5.825  20.503  0.00  0.00    +0.000 N 
ATOM      2  H   UNL     1       3.849   5.910  20.896  0.00  0.00    +0.000 HD
ENDROOT
BRANCH   1   7
ATOM      3  C   UNL     1       1.200   9.084  19.940  0.00  0.00    +0.000 A 
ATOM      4  C   UNL     1       1.409   9.240  18.566  0.00  0.00    +0.000 A 
ATOM      5  C   UNL     1       2.097   8.269  17.836  0.00  0.00    +0.000 A 
ATOM      6  C   UNL     1       2.596   7.138  18.475  0.00  0.00    +0.000 A 
ATOM      7  C   UNL     1       2.384   6.967  19.842  0.00  0.00    +0.000 A 
ATOM      8  C   UNL     1       1.675   7.928  20.570  0.00  0.00    +0.000 A 
BRANCH   3   9
ATOM      9  O   UNL     1       0.567   9.993  20.754  0.00  0.00    +0.000 OA
BRANCH   9  10
ATOM     10  C   UNL     1      -0.810  10.251  20.445  0.00  0.00    +0.000 C 
BRANCH  10  11
ATOM     11  C   UNL     1      -0.980  11.641  19.813  0.00  0.00    +0.000 C 
BRANCH  11  14
ATOM     12  C   UNL     1       0.909  13.154  19.408  0.00  0.00    +0.000 C 
ATOM     13  O   UNL     1       0.985  12.830  18.231  0.00  0.00    +0.000 OA
ATOM     14  N   UNL     1       0.012  12.605  20.276  0.00  0.00    +0.000 N 
ATOM     15  H   UNL     1      -0.039  13.005  21.205  0.00  0.00    +0.000 HD
BRANCH  12  16
ATOM     16  O   UNL     1       1.696  14.076  20.022  0.00  0.00    +0.000 OA
BRANCH  16  18
ATOM     17  C   UNL     1       2.007  16.428  20.717  0.00  0.00    +0.000 C 
ATOM     18  C   UNL     1       1.588  15.466  19.595  0.00  0.00    +0.000 C 
ATOM     19  C   UNL     1       0.177  15.774  19.070  0.00  0.00    +0.000 C 
ATOM     20  C   UNL     1       2.578  15.653  18.432  0.00  0.00    +0.000 C 
ENDBRANCH  16  18
ENDBRANCH  12  16
ENDBRANCH  11  14
ENDBRANCH  10  11
ENDBRANCH   9  10
ENDBRANCH   3   9
ENDBRANCH   1   7
BRANCH   1  21
ATOM     21  S   UNL     1       2.581   4.277  19.913  0.00  0.00    +0.000 S 
ATOM     22  O   UNL     1       3.155   3.338  20.853  0.00  0.00    +0.000 OA
ATOM     23  O   UNL     1       1.181   4.213  19.554  0.00  0.00    +0.000 OA
BRANCH  21  24
ATOM     24  C   UNL     1       3.545   4.167  18.418  0.00  0.00    +0.000 A 
ATOM     25  C   UNL     1       2.926   3.641  17.253  0.00  0.00    +0.000 A 
ATOM     26  C   UNL     1       3.594   3.603  16.015  0.00  0.00    +0.000 A 
ATOM     27  C   UNL     1       4.867   4.139  16.008  0.00  0.00    +0.000 A 
ATOM     28  C   UNL     1       5.455   4.635  17.149  0.00  0.00    +0.000 A 
ATOM     29  C   UNL     1       6.707   5.130  16.814  0.00  0.00    +0.000 A 
ATOM     30  C   UNL     1       7.506   5.707  17.794  0.00  0.00    +0.000 A 
ATOM     31  C   UNL     1       7.005   5.689  19.106  0.00  0.00    +0.000 A 
ATOM     32  C   UNL     1       5.732   5.161  19.411  0.00  0.00    +0.000 A 
ATOM     33  C   UNL     1       4.887   4.649  18.389  0.00  0.00    +0.000 A 
ATOM     34  C   UNL     1       6.948   4.937  15.397  0.00  0.00    +0.000 C 
ATOM     35  O   UNL     1       7.896   5.212  14.672  0.00  0.00    +0.000 OA
ATOM     36  N   UNL     1       5.770   4.308  14.973  0.00  0.00    +0.000 N 
ATOM     37  H   UNL     1       5.628   4.026  14.014  0.00  0.00    +0.000 HD
ENDBRANCH  21  24
ENDBRANCH   1  21
TORSDOF 9
ENDMDL
MODEL 9
REMARK VINA RESULT:      -7.8      2.702     11.433
REMARK  Name = 
REMARK  12 active torsions:
REMARK  status: ('A' for Active; 'I' for Inactive)
REMARK    1  A    between atoms: C_1  and  C_2
REMARK    2  A    between atoms: C_2  and  C_3
REMARK    3  A    between atoms: C_2  and  C_4
REMARK    4  A    between atoms: C_2  and  O_5
REMARK    5  A    between atoms: O_5  and  C_6
REMARK    6  A    between atoms: N_8  and  C_9
REMARK    7  A    between atoms: C_9  and  C_10
REMARK    8  A    between atoms: C_10  and  O_11
REMARK    9  A    between atoms: O_11  and  C_12
REMARK   10  A    between atoms: C_16  and  N_17
REMARK   11  A    between atoms: N_17  and  S_18
REMARK   12  A    between atoms: S_18  and  C_21
REMARK                            x       y       z     vdW  Elec       q    Type
REMARK                         _______ _______ _______ _____ _____    ______ ____
ROOT
ATOM      1  N   UNL     1       0.404  11.304  19.889  0.00  0.00    +0.000 N 
ATOM      2  H   UNL     1       0.527  11.558  20.865  0.00  0.00    +0.000 HD
ENDROOT
BRANCH   1   7
ATOM      3  C   UNL     1       1.747   7.830  19.797  0.00  0.00    +0.000 A 
ATOM      4  C   UNL     1       2.321   7.820  18.521  0.00  0.00    +0.000 A 
ATOM      5  C   UNL     1       2.274   8.955  17.711  0.00  0.00    +0.000 A 
ATOM      6  C   UNL     1       1.641  10.110  18.162  0.00  0.00    +0.000 A 
ATOM      7  C   UNL     1       1.075  10.135  19.435  0.00  0.00    +0.000 A 
ATOM      8  C   UNL     1       1.140   9.005  20.257  0.00  0.00    +0.000 A 
BRANCH   3   9
ATOM      9  O   UNL     1       1.708   6.759  20.658  0.00  0.00    +0.000 OA
BRANCH   9  10
ATOM     10  C   UNL     1       1.670   5.466  20.039  0.00  0.00    +0.000 C 
BRANCH  10  11
ATOM     11  C   UNL     1       2.888   4.624  20.451  0.00  0.00    +0.000 C 
BRANCH  11  14
ATOM     12  C   UNL     1       4.943   4.515  19.116  0.00  0.00    +0.000 C 
ATOM     13  O   UNL     1       4.684   3.390  18.711  0.00  0.00    +0.000 OA
ATOM     14  N   UNL     1       4.154   5.190  19.999  0.00  0.00    +0.000 N 
ATOM     15  H   UNL     1       4.400   6.152  20.201  0.00  0.00    +0.000 HD
BRANCH  12  16
ATOM     16  O   UNL     1       6.038   5.242  18.770  0.00  0.00    +0.000 OA
BRANCH  16  18
ATOM     17  C   UNL     1       4.809   5.831  16.707  0.00  0.00    +0.000 C 
ATOM     18  C   UNL     1       6.180   5.651  17.378  0.00  0.00    +0.000 C 
ATOM     19  C   UNL     1       7.075   4.672  16.603  0.00  0.00    +0.000 C 
ATOM     20  C   UNL     1       6.874   7.024  17.385  0.00  0.00    +0.000 C 
ENDBRANCH  16  18
ENDBRANCH  12  16
ENDBRANCH  11  14
ENDBRANCH  10  11
ENDBRANCH   9  10
ENDBRANCH   3   9
ENDBRANCH   1   7
BRANCH   1  21
ATOM     21  S   UNL     1      -1.133  11.679  19.293  0.00  0.00    +0.000 S 
ATOM     22  O   UNL     1      -1.005  12.921  18.559  0.00  0.00    +0.000 OA
ATOM     23  O   UNL     1      -1.686  10.497  18.669  0.00  0.00    +0.000 OA
BRANCH  21  24
ATOM     24  C   UNL     1      -2.088  12.037  20.753  0.00  0.00    +0.000 A 
ATOM     25  C   UNL     1      -1.433  12.008  22.013  0.00  0.00    +0.000 A 
ATOM     26  C   UNL     1      -2.099  12.364  23.201  0.00  0.00    +0.000 A 
ATOM     27  C   UNL     1      -3.410  12.772  23.050  0.00  0.00    +0.000 A 
ATOM     28  C   UNL     1      -4.033  12.785  21.823  0.00  0.00    +0.000 A 
ATOM     29  C   UNL     1      -5.320  13.272  21.991  0.00  0.00    +0.000 A 
ATOM     30  C   UNL     1      -6.159  13.402  20.891  0.00  0.00    +0.000 A 
ATOM     31  C   UNL     1      -5.655  12.955  19.659  0.00  0.00    +0.000 A 
ATOM     32  C   UNL     1      -4.344  12.449  19.529  0.00  0.00    +0.000 A 
ATOM     33  C   UNL     1      -3.464  12.398  20.644  0.00  0.00    +0.000 A 
ATOM     34  C   UNL     1      -5.548  13.579  23.391  0.00  0.00    +0.000 C 
ATOM     35  O   UNL     1      -6.517  14.024  23.995  0.00  0.00    +0.000 OA
ATOM     36  N   UNL     1      -4.326  13.231  23.980  0.00  0.00    +0.000 N 
ATOM     37  H   UNL     1      -4.165  13.320  24.972  0.00  0.00    +0.000 HD
ENDBRANCH  21  24
ENDBRANCH   1  21
TORSDOF 9
ENDMDL
