MODEL 1
REMARK VINA RESULT:      -8.5      0.000      0.000
REMARK  Name = 
REMARK  6 active torsions:
REMARK  status: ('A' for Active; 'I' for Inactive)
REMARK    1  A    between atoms: C_2  and  C_3
REMARK    2  A    between atoms: C_3  and  O_4
REMARK    3  A    between atoms: O_4  and  C_5
REMARK    4  A    between atoms: C_5  and  C_7
REMARK    5  A    between atoms: C_9  and  C_10
REMARK    6  A    between atoms: N_23  and  C_24
REMARK                            x       y       z     vdW  Elec       q    Type
REMARK                         _______ _______ _______ _____ _____    ______ ____
ROOT
ATOM      1  C   UNL     1       4.205   5.415  19.299  0.00  0.00    +0.000 A 
ATOM      2  C   UNL     1       3.594   6.647  19.555  0.00  0.00    +0.000 A 
ATOM      3  C   UNL     1       2.232   6.701  19.803  0.00  0.00    +0.000 A 
ATOM      4  N   UNL     1       1.473   5.576  19.777  0.00  0.00    +0.000 NA
ATOM      5  C   UNL     1       2.050   4.389  19.529  0.00  0.00    +0.000 A 
ATOM      6  C   UNL     1       1.225   3.271  19.530  0.00  0.00    +0.000 A 
ATOM      7  C   UNL     1       1.718   1.988  19.301  0.00  0.00    +0.000 A 
ATOM      8  C   UNL     1       3.072   1.810  19.062  0.00  0.00    +0.000 A 
ATOM      9  C   UNL     1       3.922   2.918  19.051  0.00  0.00    +0.000 A 
ATOM     10  C   UNL     1       3.430   4.231  19.286  0.00  0.00    +0.000 A 
ENDROOT
BRANCH   3  11
ATOM     11  C   UNL     1       1.545   7.972  20.138  0.00  0.00    +0.000 A 
ATOM     12  C   UNL     1       0.988   8.216  21.393  0.00  0.00    +0.000 A 
ATOM     13  C   UNL     1       0.372   9.440  21.646  0.00  0.00    +0.000 A 
ATOM     14  C   UNL     1       0.326  10.399  20.644  0.00  0.00    +0.000 A 
ATOM     15  C   UNL     1       0.897  10.092  19.424  0.00  0.00    +0.000 A 
ATOM     16  N   UNL     1       1.494   8.911  19.153  0.00  0.00    +0.000 NA
ENDBRANCH   3  11
BRANCH   1  17
ATOM     17  C   UNL     1       5.688   5.399  19.179  0.00  0.00    +0.000 C 
ATOM     18  O   UNL     1       6.429   4.697  19.847  0.00  0.00    +0.000 OA
BRANCH  17  19
ATOM     19  O   UNL     1       6.106   6.339  18.292  0.00  0.00    +0.000 OA
BRANCH  19  20
ATOM     20  C   UNL     1       7.490   6.216  17.924  0.00  0.00    +0.000 C 
BRANCH  20  22
ATOM     21  O   UNL     1       8.068   4.152  16.839  0.00  0.00    +0.000 OA
ATOM     22  C   UNL     1       7.592   5.280  16.716  0.00  0.00    +0.000 C 
ATOM     23  N   UNL     1       7.120   5.810  15.530  0.00  0.00    +0.000 N 
ATOM     24  H   UNL     1       6.966   6.812  15.476  0.00  0.00    +0.000 HD
BRANCH  23  25
ATOM     25  C   UNL     1       6.886   5.089  14.330  0.00  0.00    +0.000 A 
ATOM     26  C   UNL     1       7.723   5.207  13.213  0.00  0.00    +0.000 A 
ATOM     27  C   UNL     1       7.504   4.442  12.064  0.00  0.00    +0.000 A 
ATOM     28  C   UNL     1       6.447   3.539  12.014  0.00  0.00    +0.000 A 
ATOM     29  C   UNL     1       5.597   3.413  13.111  0.00  0.00    +0.000 A 
ATOM     30  C   UNL     1       5.814   4.183  14.260  0.00  0.00    +0.000 A 
ATOM     31 BR   UNL     1       4.583   3.992  15.697  0.00  0.00    +0.000 Br
ENDBRANCH  23  25
ENDBRANCH  20  22
ENDBRANCH  19  20
ENDBRANCH  17  19
ENDBRANCH   1  17
TORSDOF 6
ENDMDL
MODEL 2
REMARK VINA RESULT:      -8.5      3.098      8.473
REMARK  Name = 
REMARK  6 active torsions:
REMARK  status: ('A' for Active; 'I' for Inactive)
REMARK    1  A    between atoms: C_2  and  C_3
REMARK    2  A    between atoms: C_3  and  O_4
REMARK    3  A    between atoms: O_4  and  C_5
REMARK    4  A    between atoms: C_5  and  C_7
REMARK    5  A    between atoms: C_9  and  C_10
REMARK    6  A    between atoms: N_23  and  C_24
REMARK                            x       y       z     vdW  Elec       q    Type
REMARK                         _______ _______ _______ _____ _____    ______ ____
ROOT
ATOM      1  C   UNL     1       2.958   5.842  18.306  0.00  0.00    +0.000 A 
ATOM      2  C   UNL     1       3.955   5.882  17.325  0.00  0.00    +0.000 A 
ATOM      3  C   UNL     1       4.386   4.705  16.733  0.00  0.00    +0.000 A 
ATOM      4  N   UNL     1       3.870   3.507  17.108  0.00  0.00    +0.000 NA
ATOM      5  C   UNL     1       2.914   3.458  18.050  0.00  0.00    +0.000 A 
ATOM      6  C   UNL     1       2.415   2.205  18.382  0.00  0.00    +0.000 A 
ATOM      7  C   UNL     1       1.410   2.038  19.333  0.00  0.00    +0.000 A 
ATOM      8  C   UNL     1       0.888   3.148  19.976  0.00  0.00    +0.000 A 
ATOM      9  C   UNL     1       1.376   4.419  19.665  0.00  0.00    +0.000 A 
ATOM     10  C   UNL     1       2.399   4.602  18.695  0.00  0.00    +0.000 A 
ENDROOT
BRANCH   3  11
ATOM     11  C   UNL     1       5.397   4.696  15.649  0.00  0.00    +0.000 A 
ATOM     12  C   UNL     1       5.267   3.903  14.508  0.00  0.00    +0.000 A 
ATOM     13  C   UNL     1       6.247   3.956  13.519  0.00  0.00    +0.000 A 
ATOM     14  C   UNL     1       7.335   4.803  13.682  0.00  0.00    +0.000 A 
ATOM     15  C   UNL     1       7.401   5.560  14.836  0.00  0.00    +0.000 A 
ATOM     16  N   UNL     1       6.468   5.521  15.811  0.00  0.00    +0.000 NA
ENDBRANCH   3  11
BRANCH   1  17
ATOM     17  C   UNL     1       2.438   7.144  18.805  0.00  0.00    +0.000 C 
ATOM     18  O   UNL     1       2.498   7.513  19.966  0.00  0.00    +0.000 OA
BRANCH  17  19
ATOM     19  O   UNL     1       1.807   7.820  17.810  0.00  0.00    +0.000 OA
BRANCH  19  20
ATOM     20  C   UNL     1       2.001   9.243  17.860  0.00  0.00    +0.000 C 
BRANCH  20  22
ATOM     21  O   UNL     1      -0.271   9.927  18.233  0.00  0.00    +0.000 OA
ATOM     22  C   UNL     1       0.869   9.861  18.688  0.00  0.00    +0.000 C 
ATOM     23  N   UNL     1       1.247  10.316  19.937  0.00  0.00    +0.000 N 
ATOM     24  H   UNL     1       2.237  10.431  20.130  0.00  0.00    +0.000 HD
BRANCH  23  25
ATOM     25  C   UNL     1       0.370  10.712  20.979  0.00  0.00    +0.000 A 
ATOM     26  C   UNL     1      -0.060   9.823  21.973  0.00  0.00    +0.000 A 
ATOM     27  C   UNL     1      -0.877  10.254  23.023  0.00  0.00    +0.000 A 
ATOM     28  C   UNL     1      -1.274  11.585  23.100  0.00  0.00    +0.000 A 
ATOM     29  C   UNL     1      -0.865  12.484  22.118  0.00  0.00    +0.000 A 
ATOM     30  C   UNL     1      -0.050  12.051  21.065  0.00  0.00    +0.000 A 
ATOM     31 BR   UNL     1       0.426  13.325  19.735  0.00  0.00    +0.000 Br
ENDBRANCH  23  25
ENDBRANCH  20  22
ENDBRANCH  19  20
ENDBRANCH  17  19
ENDBRANCH   1  17
TORSDOF 6
ENDMDL
MODEL 3
REMARK VINA RESULT:      -8.5      4.290      6.851
REMARK  Name = 
REMARK  6 active torsions:
REMARK  status: ('A' for Active; 'I' for Inactive)
REMARK    1  A    between atoms: C_2  and  C_3
REMARK    2  A    between atoms: C_3  and  O_4
REMARK    3  A    between atoms: O_4  and  C_5
REMARK    4  A    between atoms: C_5  and  C_7
REMARK    5  A    between atoms: C_9  and  C_10
REMARK    6  A    between atoms: N_23  and  C_24
REMARK                            x       y       z     vdW  Elec       q    Type
REMARK                         _______ _______ _______ _____ _____    ______ ____
ROOT
ATOM      1  C   UNL     1       6.344   5.330  17.968  0.00  0.00    +0.000 A 
ATOM      2  C   UNL     1       5.249   5.030  18.785  0.00  0.00    +0.000 A 
ATOM      3  C   UNL     1       4.156   4.365  18.254  0.00  0.00    +0.000 A 
ATOM      4  N   UNL     1       4.120   4.020  16.942  0.00  0.00    +0.000 NA
ATOM      5  C   UNL     1       5.165   4.305  16.149  0.00  0.00    +0.000 A 
ATOM      6  C   UNL     1       5.076   3.915  14.819  0.00  0.00    +0.000 A 
ATOM      7  C   UNL     1       6.108   4.145  13.910  0.00  0.00    +0.000 A 
ATOM      8  C   UNL     1       7.261   4.785  14.335  0.00  0.00    +0.000 A 
ATOM      9  C   UNL     1       7.373   5.193  15.666  0.00  0.00    +0.000 A 
ATOM     10  C   UNL     1       6.328   4.961  16.602  0.00  0.00    +0.000 A 
ENDROOT
BRANCH   3  11
ATOM     11  C   UNL     1       2.995   3.971  19.088  0.00  0.00    +0.000 A 
ATOM     12  C   UNL     1       1.935   3.212  18.590  0.00  0.00    +0.000 A 
ATOM     13  C   UNL     1       0.883   2.862  19.435  0.00  0.00    +0.000 A 
ATOM     14  C   UNL     1       0.910   3.271  20.761  0.00  0.00    +0.000 A 
ATOM     15  C   UNL     1       1.990   4.020  21.188  0.00  0.00    +0.000 A 
ATOM     16  N   UNL     1       3.017   4.377  20.388  0.00  0.00    +0.000 NA
ENDBRANCH   3  11
BRANCH   1  17
ATOM     17  C   UNL     1       7.544   5.918  18.622  0.00  0.00    +0.000 C 
ATOM     18  O   UNL     1       8.179   5.381  19.515  0.00  0.00    +0.000 OA
BRANCH  17  19
ATOM     19  O   UNL     1       7.778   7.172  18.154  0.00  0.00    +0.000 OA
BRANCH  19  20
ATOM     20  C   UNL     1       8.629   7.959  19.002  0.00  0.00    +0.000 C 
BRANCH  20  22
ATOM     21  O   UNL     1       7.776   9.777  17.682  0.00  0.00    +0.000 OA
ATOM     22  C   UNL     1       8.625   9.404  18.490  0.00  0.00    +0.000 C 
ATOM     23  N   UNL     1       9.627  10.204  19.006  0.00  0.00    +0.000 N 
ATOM     24  H   UNL     1      10.408   9.757  19.476  0.00  0.00    +0.000 HD
BRANCH  23  25
ATOM     25  C   UNL     1       9.713  11.615  18.883  0.00  0.00    +0.000 A 
ATOM     26  C   UNL     1      10.109  12.239  17.692  0.00  0.00    +0.000 A 
ATOM     27  C   UNL     1      10.128  13.632  17.579  0.00  0.00    +0.000 A 
ATOM     28  C   UNL     1       9.746  14.427  18.654  0.00  0.00    +0.000 A 
ATOM     29  C   UNL     1       9.357  13.828  19.850  0.00  0.00    +0.000 A 
ATOM     30  C   UNL     1       9.341  12.432  19.964  0.00  0.00    +0.000 A 
ATOM     31 BR   UNL     1       8.848  11.688  21.644  0.00  0.00    +0.000 Br
ENDBRANCH  23  25
ENDBRANCH  20  22
ENDBRANCH  19  20
ENDBRANCH  17  19
ENDBRANCH   1  17
TORSDOF 6
ENDMDL
MODEL 4
REMARK VINA RESULT:      -8.4      4.075      7.886
REMARK  Name = 
REMARK  6 active torsions:
REMARK  status: ('A' for Active; 'I' for Inactive)
REMARK    1  A    between atoms: C_2  and  C_3
REMARK    2  A    between atoms: C_3  and  O_4
REMARK    3  A    between atoms: O_4  and  C_5
REMARK    4  A    between atoms: C_5  and  C_7
REMARK    5  A    between atoms: C_9  and  C_10
REMARK    6  A    between atoms: N_23  and  C_24
REMARK                            x       y       z     vdW  Elec       q    Type
REMARK                         _______ _______ _______ _____ _____    ______ ____
ROOT
ATOM      1  C   UNL     1       6.678   5.309  18.006  0.00  0.00    +0.000 A 
ATOM      2  C   UNL     1       7.109   5.093  16.692  0.00  0.00    +0.000 A 
ATOM      3  C   UNL     1       6.190   4.740  15.717  0.00  0.00    +0.000 A 
ATOM      4  N   UNL     1       4.878   4.577  16.021  0.00  0.00    +0.000 NA
ATOM      5  C   UNL     1       4.455   4.780  17.279  0.00  0.00    +0.000 A 
ATOM      6  C   UNL     1       3.099   4.612  17.527  0.00  0.00    +0.000 A 
ATOM      7  C   UNL     1       2.548   4.812  18.791  0.00  0.00    +0.000 A 
ATOM      8  C   UNL     1       3.369   5.188  19.842  0.00  0.00    +0.000 A 
ATOM      9  C   UNL     1       4.738   5.359  19.621  0.00  0.00    +0.000 A 
ATOM     10  C   UNL     1       5.310   5.159  18.335  0.00  0.00    +0.000 A 
ENDROOT
BRANCH   3  11
ATOM     11  C   UNL     1       6.583   4.556  14.299  0.00  0.00    +0.000 A 
ATOM     12  C   UNL     1       5.972   3.619  13.466  0.00  0.00    +0.000 A 
ATOM     13  C   UNL     1       6.379   3.511  12.137  0.00  0.00    +0.000 A 
ATOM     14  C   UNL     1       7.384   4.342  11.663  0.00  0.00    +0.000 A 
ATOM     15  C   UNL     1       7.946   5.248  12.541  0.00  0.00    +0.000 A 
ATOM     16  N   UNL     1       7.574   5.367  13.834  0.00  0.00    +0.000 NA
ENDBRANCH   3  11
BRANCH   1  17
ATOM     17  C   UNL     1       7.682   5.820  18.979  0.00  0.00    +0.000 C 
ATOM     18  O   UNL     1       8.402   5.114  19.665  0.00  0.00    +0.000 OA
BRANCH  17  19
ATOM     19  O   UNL     1       7.618   7.174  19.064  0.00  0.00    +0.000 OA
BRANCH  19  20
ATOM     20  C   UNL     1       8.255   7.855  17.970  0.00  0.00    +0.000 C 
BRANCH  20  22
ATOM     21  O   UNL     1       7.727  10.191  17.766  0.00  0.00    +0.000 OA
ATOM     22  C   UNL     1       8.403   9.336  18.337  0.00  0.00    +0.000 C 
ATOM     23  N   UNL     1       9.331   9.597  19.327  0.00  0.00    +0.000 N 
ATOM     24  H   UNL     1       9.996   8.870  19.570  0.00  0.00    +0.000 HD
BRANCH  23  25
ATOM     25  C   UNL     1       9.497  10.831  20.009  0.00  0.00    +0.000 A 
ATOM     26  C   UNL     1       8.913  11.079  21.258  0.00  0.00    +0.000 A 
ATOM     27  C   UNL     1       9.141  12.281  21.935  0.00  0.00    +0.000 A 
ATOM     28  C   UNL     1       9.962  13.254  21.377  0.00  0.00    +0.000 A 
ATOM     29  C   UNL     1      10.546  13.032  20.131  0.00  0.00    +0.000 A 
ATOM     30  C   UNL     1      10.314  11.829  19.452  0.00  0.00    +0.000 A 
ATOM     31 BR   UNL     1      11.104  11.619  17.735  0.00  0.00    +0.000 Br
ENDBRANCH  23  25
ENDBRANCH  20  22
ENDBRANCH  19  20
ENDBRANCH  17  19
ENDBRANCH   1  17
TORSDOF 6
ENDMDL
MODEL 5
REMARK VINA RESULT:      -8.4      3.246      8.532
REMARK  Name = 
REMARK  6 active torsions:
REMARK  status: ('A' for Active; 'I' for Inactive)
REMARK    1  A    between atoms: C_2  and  C_3
REMARK    2  A    between atoms: C_3  and  O_4
REMARK    3  A    between atoms: O_4  and  C_5
REMARK    4  A    between atoms: C_5  and  C_7
REMARK    5  A    between atoms: C_9  and  C_10
REMARK    6  A    between atoms: N_23  and  C_24
REMARK                            x       y       z     vdW  Elec       q    Type
REMARK                         _______ _______ _______ _____ _____    ______ ____
ROOT
ATOM      1  C   UNL     1       2.872   6.153  18.728  0.00  0.00    +0.000 A 
ATOM      2  C   UNL     1       3.827   6.143  17.705  0.00  0.00    +0.000 A 
ATOM      3  C   UNL     1       4.346   4.938  17.260  0.00  0.00    +0.000 A 
ATOM      4  N   UNL     1       3.958   3.763  17.819  0.00  0.00    +0.000 NA
ATOM      5  C   UNL     1       3.044   3.763  18.802  0.00  0.00    +0.000 A 
ATOM      6  C   UNL     1       2.677   2.529  19.324  0.00  0.00    +0.000 A 
ATOM      7  C   UNL     1       1.725   2.408  20.336  0.00  0.00    +0.000 A 
ATOM      8  C   UNL     1       1.123   3.547  20.845  0.00  0.00    +0.000 A 
ATOM      9  C   UNL     1       1.478   4.800  20.341  0.00  0.00    +0.000 A 
ATOM     10  C   UNL     1       2.445   4.934  19.308  0.00  0.00    +0.000 A 
ENDROOT
BRANCH   3  11
ATOM     11  C   UNL     1       5.316   4.867  16.140  0.00  0.00    +0.000 A 
ATOM     12  C   UNL     1       6.592   5.424  16.218  0.00  0.00    +0.000 A 
ATOM     13  C   UNL     1       7.461   5.305  15.133  0.00  0.00    +0.000 A 
ATOM     14  C   UNL     1       7.041   4.629  13.996  0.00  0.00    +0.000 A 
ATOM     15  C   UNL     1       5.764   4.102  13.987  0.00  0.00    +0.000 A 
ATOM     16  N   UNL     1       4.903   4.210  15.021  0.00  0.00    +0.000 NA
ENDBRANCH   3  11
BRANCH   1  17
ATOM     17  C   UNL     1       2.248   7.461  19.068  0.00  0.00    +0.000 C 
ATOM     18  O   UNL     1       2.113   7.887  20.203  0.00  0.00    +0.000 OA
BRANCH  17  19
ATOM     19  O   UNL     1       1.769   8.067  17.952  0.00  0.00    +0.000 OA
BRANCH  19  20
ATOM     20  C   UNL     1       1.934   9.495  17.950  0.00  0.00    +0.000 C 
BRANCH  20  22
ATOM     21  O   UNL     1      -0.378  10.021  18.337  0.00  0.00    +0.000 OA
ATOM     22  C   UNL     1       0.779  10.120  18.740  0.00  0.00    +0.000 C 
ATOM     23  N   UNL     1       1.158  10.776  19.896  0.00  0.00    +0.000 N 
ATOM     24  H   UNL     1       2.138  11.005  20.023  0.00  0.00    +0.000 HD
BRANCH  23  25
ATOM     25  C   UNL     1       0.285  11.236  20.917  0.00  0.00    +0.000 A 
ATOM     26  C   UNL     1      -0.241  10.378  21.891  0.00  0.00    +0.000 A 
ATOM     27  C   UNL     1      -1.051  10.866  22.921  0.00  0.00    +0.000 A 
ATOM     28  C   UNL     1      -1.344  12.224  22.998  0.00  0.00    +0.000 A 
ATOM     29  C   UNL     1      -0.838  13.093  22.034  0.00  0.00    +0.000 A 
ATOM     30  C   UNL     1      -0.030  12.603  21.001  0.00  0.00    +0.000 A 
ATOM     31 BR   UNL     1       0.582  13.842  19.694  0.00  0.00    +0.000 Br
ENDBRANCH  23  25
ENDBRANCH  20  22
ENDBRANCH  19  20
ENDBRANCH  17  19
ENDBRANCH   1  17
TORSDOF 6
ENDMDL
MODEL 6
REMARK VINA RESULT:      -8.3      4.207      6.674
REMARK  Name = 
REMARK  6 active torsions:
REMARK  status: ('A' for Active; 'I' for Inactive)
REMARK    1  A    between atoms: C_2  and  C_3
REMARK    2  A    between atoms: C_3  and  O_4
REMARK    3  A    between atoms: O_4  and  C_5
REMARK    4  A    between atoms: C_5  and  C_7
REMARK    5  A    between atoms: C_9  and  C_10
REMARK    6  A    between atoms: N_23  and  C_24
REMARK                            x       y       z     vdW  Elec       q    Type
REMARK                         _______ _______ _______ _____ _____    ______ ____
ROOT
ATOM      1  C   UNL     1       6.404   5.486  17.851  0.00  0.00    +0.000 A 
ATOM      2  C   UNL     1       5.391   5.168  18.762  0.00  0.00    +0.000 A 
ATOM      3  C   UNL     1       4.303   4.416  18.346  0.00  0.00    +0.000 A 
ATOM      4  N   UNL     1       4.193   4.002  17.058  0.00  0.00    +0.000 NA
ATOM      5  C   UNL     1       5.159   4.305  16.176  0.00  0.00    +0.000 A 
ATOM      6  C   UNL     1       4.997   3.842  14.877  0.00  0.00    +0.000 A 
ATOM      7  C   UNL     1       5.945   4.082  13.883  0.00  0.00    +0.000 A 
ATOM      8  C   UNL     1       7.085   4.807  14.189  0.00  0.00    +0.000 A 
ATOM      9  C   UNL     1       7.269   5.289  15.487  0.00  0.00    +0.000 A 
ATOM     10  C   UNL     1       6.311   5.047  16.508  0.00  0.00    +0.000 A 
ENDROOT
BRANCH   3  11
ATOM     11  C   UNL     1       3.232   4.001  19.284  0.00  0.00    +0.000 A 
ATOM     12  C   UNL     1       1.907   4.414  19.139  0.00  0.00    +0.000 A 
ATOM     13  C   UNL     1       0.946   3.971  20.047  0.00  0.00    +0.000 A 
ATOM     14  C   UNL     1       1.324   3.123  21.079  0.00  0.00    +0.000 A 
ATOM     15  C   UNL     1       2.652   2.754  21.163  0.00  0.00    +0.000 A 
ATOM     16  N   UNL     1       3.602   3.174  20.301  0.00  0.00    +0.000 NA
ENDBRANCH   3  11
BRANCH   1  17
ATOM     17  C   UNL     1       7.611   6.174  18.384  0.00  0.00    +0.000 C 
ATOM     18  O   UNL     1       8.099   5.963  19.482  0.00  0.00    +0.000 OA
BRANCH  17  19
ATOM     19  O   UNL     1       8.037   7.131  17.519  0.00  0.00    +0.000 OA
BRANCH  19  20
ATOM     20  C   UNL     1       7.394   8.404  17.700  0.00  0.00    +0.000 C 
BRANCH  20  22
ATOM     21  O   UNL     1       9.146   9.067  19.205  0.00  0.00    +0.000 OA
ATOM     22  C   UNL     1       8.420   9.392  18.267  0.00  0.00    +0.000 C 
ATOM     23  N   UNL     1       8.440  10.626  17.646  0.00  0.00    +0.000 N 
ATOM     24  H   UNL     1       7.659  10.879  17.049  0.00  0.00    +0.000 HD
BRANCH  23  25
ATOM     25  C   UNL     1       9.431  11.627  17.815  0.00  0.00    +0.000 A 
ATOM     26  C   UNL     1      10.787  11.316  17.981  0.00  0.00    +0.000 A 
ATOM     27  C   UNL     1      11.751  12.323  18.086  0.00  0.00    +0.000 A 
ATOM     28  C   UNL     1      11.376  13.661  18.020  0.00  0.00    +0.000 A 
ATOM     29  C   UNL     1      10.032  13.993  17.863  0.00  0.00    +0.000 A 
ATOM     30  C   UNL     1       9.066  12.983  17.762  0.00  0.00    +0.000 A 
ATOM     31 BR   UNL     1       7.247  13.514  17.601  0.00  0.00    +0.000 Br
ENDBRANCH  23  25
ENDBRANCH  20  22
ENDBRANCH  19  20
ENDBRANCH  17  19
ENDBRANCH   1  17
TORSDOF 6
ENDMDL
MODEL 7
REMARK VINA RESULT:      -8.2      4.259      7.750
REMARK  Name = 
REMARK  6 active torsions:
REMARK  status: ('A' for Active; 'I' for Inactive)
REMARK    1  A    between atoms: C_2  and  C_3
REMARK    2  A    between atoms: C_3  and  O_4
REMARK    3  A    between atoms: O_4  and  C_5
REMARK    4  A    between atoms: C_5  and  C_7
REMARK    5  A    between atoms: C_9  and  C_10
REMARK    6  A    between atoms: N_23  and  C_24
REMARK                            x       y       z     vdW  Elec       q    Type
REMARK                         _______ _______ _______ _____ _____    ______ ____
ROOT
ATOM      1  C   UNL     1       6.532   5.190  17.889  0.00  0.00    +0.000 A 
ATOM      2  C   UNL     1       6.983   5.083  16.569  0.00  0.00    +0.000 A 
ATOM      3  C   UNL     1       6.177   4.484  15.614  0.00  0.00    +0.000 A 
ATOM      4  N   UNL     1       4.963   3.976  15.945  0.00  0.00    +0.000 NA
ATOM      5  C   UNL     1       4.523   4.072  17.209  0.00  0.00    +0.000 A 
ATOM      6  C   UNL     1       3.267   3.547  17.484  0.00  0.00    +0.000 A 
ATOM      7  C   UNL     1       2.703   3.606  18.758  0.00  0.00    +0.000 A 
ATOM      8  C   UNL     1       3.410   4.201  19.790  0.00  0.00    +0.000 A 
ATOM      9  C   UNL     1       4.678   4.732  19.541  0.00  0.00    +0.000 A 
ATOM     10  C   UNL     1       5.261   4.680  18.245  0.00  0.00    +0.000 A 
ENDROOT
BRANCH   3  11
ATOM     11  C   UNL     1       6.581   4.397  14.189  0.00  0.00    +0.000 A 
ATOM     12  C   UNL     1       6.007   3.487  13.301  0.00  0.00    +0.000 A 
ATOM     13  C   UNL     1       6.422   3.471  11.970  0.00  0.00    +0.000 A 
ATOM     14  C   UNL     1       7.397   4.364  11.550  0.00  0.00    +0.000 A 
ATOM     15  C   UNL     1       7.923   5.238  12.482  0.00  0.00    +0.000 A 
ATOM     16  N   UNL     1       7.543   5.269  13.777  0.00  0.00    +0.000 NA
ENDBRANCH   3  11
BRANCH   1  17
ATOM     17  C   UNL     1       7.377   5.964  18.839  0.00  0.00    +0.000 C 
ATOM     18  O   UNL     1       7.605   5.631  19.990  0.00  0.00    +0.000 OA
BRANCH  17  19
ATOM     19  O   UNL     1       7.778   7.134  18.278  0.00  0.00    +0.000 OA
BRANCH  19  20
ATOM     20  C   UNL     1       8.640   7.917  19.120  0.00  0.00    +0.000 C 
BRANCH  20  22
ATOM     21  O   UNL     1       7.929   9.699  17.673  0.00  0.00    +0.000 OA
ATOM     22  C   UNL     1       8.697   9.345  18.565  0.00  0.00    +0.000 C 
ATOM     23  N   UNL     1       9.659  10.152  19.144  0.00  0.00    +0.000 N 
ATOM     24  H   UNL     1      10.389   9.714  19.696  0.00  0.00    +0.000 HD
BRANCH  23  25
ATOM     25  C   UNL     1       9.771  11.557  18.985  0.00  0.00    +0.000 A 
ATOM     26  C   UNL     1      10.203  12.142  17.788  0.00  0.00    +0.000 A 
ATOM     27  C   UNL     1      10.249  13.531  17.638  0.00  0.00    +0.000 A 
ATOM     28  C   UNL     1       9.856  14.361  18.683  0.00  0.00    +0.000 A 
ATOM     29  C   UNL     1       9.430  13.801  19.885  0.00  0.00    +0.000 A 
ATOM     30  C   UNL     1       9.389  12.409  20.036  0.00  0.00    +0.000 A 
ATOM     31 BR   UNL     1       8.846  11.719  21.722  0.00  0.00    +0.000 Br
ENDBRANCH  23  25
ENDBRANCH  20  22
ENDBRANCH  19  20
ENDBRANCH  17  19
ENDBRANCH   1  17
TORSDOF 6
ENDMDL
MODEL 8
REMARK VINA RESULT:      -8.2      2.929      8.383
REMARK  Name = 
REMARK  6 active torsions:
REMARK  status: ('A' for Active; 'I' for Inactive)
REMARK    1  A    between atoms: C_2  and  C_3
REMARK    2  A    between atoms: C_3  and  O_4
REMARK    3  A    between atoms: O_4  and  C_5
REMARK    4  A    between atoms: C_5  and  C_7
REMARK    5  A    between atoms: C_9  and  C_10
REMARK    6  A    between atoms: N_23  and  C_24
REMARK                            x       y       z     vdW  Elec       q    Type
REMARK                         _______ _______ _______ _____ _____    ______ ____
ROOT
ATOM      1  C   UNL     1       2.988   5.930  18.642  0.00  0.00    +0.000 A 
ATOM      2  C   UNL     1       3.965   5.932  17.641  0.00  0.00    +0.000 A 
ATOM      3  C   UNL     1       4.317   4.743  17.021  0.00  0.00    +0.000 A 
ATOM      4  N   UNL     1       3.744   3.569  17.389  0.00  0.00    +0.000 NA
ATOM      5  C   UNL     1       2.808   3.557  18.351  0.00  0.00    +0.000 A 
ATOM      6  C   UNL     1       2.247   2.328  18.674  0.00  0.00    +0.000 A 
ATOM      7  C   UNL     1       1.255   2.199  19.644  0.00  0.00    +0.000 A 
ATOM      8  C   UNL     1       0.808   3.326  20.316  0.00  0.00    +0.000 A 
ATOM      9  C   UNL     1       1.359   4.573  20.014  0.00  0.00    +0.000 A 
ATOM     10  C   UNL     1       2.369   4.716  19.024  0.00  0.00    +0.000 A 
ENDROOT
BRANCH   3  11
ATOM     11  C   UNL     1       5.303   4.697  15.915  0.00  0.00    +0.000 A 
ATOM     12  C   UNL     1       5.050   4.039  14.711  0.00  0.00    +0.000 A 
ATOM     13  C   UNL     1       6.015   4.050  13.705  0.00  0.00    +0.000 A 
ATOM     14  C   UNL     1       7.212   4.720  13.917  0.00  0.00    +0.000 A 
ATOM     15  C   UNL     1       7.397   5.351  15.132  0.00  0.00    +0.000 A 
ATOM     16  N   UNL     1       6.481   5.349  16.124  0.00  0.00    +0.000 NA
ENDBRANCH   3  11
BRANCH   1  17
ATOM     17  C   UNL     1       2.551   7.250  19.173  0.00  0.00    +0.000 C 
ATOM     18  O   UNL     1       2.040   7.421  20.268  0.00  0.00    +0.000 OA
BRANCH  17  19
ATOM     19  O   UNL     1       2.712   8.219  18.235  0.00  0.00    +0.000 OA
BRANCH  19  20
ATOM     20  C   UNL     1       1.477   8.791  17.773  0.00  0.00    +0.000 C 
BRANCH  20  22
ATOM     21  O   UNL     1       1.782  11.044  18.549  0.00  0.00    +0.000 OA
ATOM     22  C   UNL     1       1.140  10.000  18.652  0.00  0.00    +0.000 C 
ATOM     23  N   UNL     1       0.093   9.803  19.531  0.00  0.00    +0.000 N 
ATOM     24  H   UNL     1      -0.217   8.852  19.708  0.00  0.00    +0.000 HD
BRANCH  23  25
ATOM     25  C   UNL     1      -0.565  10.811  20.283  0.00  0.00    +0.000 A 
ATOM     26  C   UNL     1      -1.287  11.846  19.674  0.00  0.00    +0.000 A 
ATOM     27  C   UNL     1      -1.976  12.793  20.438  0.00  0.00    +0.000 A 
ATOM     28  C   UNL     1      -1.960  12.717  21.827  0.00  0.00    +0.000 A 
ATOM     29  C   UNL     1      -1.242  11.701  22.453  0.00  0.00    +0.000 A 
ATOM     30  C   UNL     1      -0.549  10.755  21.687  0.00  0.00    +0.000 A 
ATOM     31 BR   UNL     1       0.450   9.428  22.614  0.00  0.00    +0.000 Br
ENDBRANCH  23  25
ENDBRANCH  20  22
ENDBRANCH  19  20
ENDBRANCH  17  19
ENDBRANCH   1  17
TORSDOF 6
ENDMDL
MODEL 9
REMARK VINA RESULT:      -8.2      0.894      1.246
REMARK  Name = 
REMARK  6 active torsions:
REMARK  status: ('A' for Active; 'I' for Inactive)
REMARK    1  A    between atoms: C_2  and  C_3
REMARK    2  A    between atoms: C_3  and  O_4
REMARK    3  A    between atoms: O_4  and  C_5
REMARK    4  A    between atoms: C_5  and  C_7
REMARK    5  A    between atoms: C_9  and  C_10
REMARK    6  A    between atoms: N_23  and  C_24
REMARK                            x       y       z     vdW  Elec       q    Type
REMARK                         _______ _______ _______ _____ _____    ______ ____
ROOT
ATOM      1  C   UNL     1       4.080   5.449  19.353  0.00  0.00    +0.000 A 
ATOM      2  C   UNL     1       3.604   6.747  19.141  0.00  0.00    +0.000 A 
ATOM      3  C   UNL     1       2.302   7.068  19.489  0.00  0.00    +0.000 A 
ATOM      4  N   UNL     1       1.470   6.132  20.013  0.00  0.00    +0.000 NA
ATOM      5  C   UNL     1       1.917   4.883  20.218  0.00  0.00    +0.000 A 
ATOM      6  C   UNL     1       1.023   3.974  20.770  0.00  0.00    +0.000 A 
ATOM      7  C   UNL     1       1.384   2.655  21.041  0.00  0.00    +0.000 A 
ATOM      8  C   UNL     1       2.670   2.226  20.752  0.00  0.00    +0.000 A 
ATOM      9  C   UNL     1       3.585   3.119  20.192  0.00  0.00    +0.000 A 
ATOM     10  C   UNL     1       3.229   4.467  19.914  0.00  0.00    +0.000 A 
ENDROOT
BRANCH   3  11
ATOM     11  C   UNL     1       1.766   8.443  19.340  0.00  0.00    +0.000 A 
ATOM     12  C   UNL     1       1.939   9.194  18.178  0.00  0.00    +0.000 A 
ATOM     13  C   UNL     1       1.393  10.474  18.098  0.00  0.00    +0.000 A 
ATOM     14  C   UNL     1       0.681  10.979  19.177  0.00  0.00    +0.000 A 
ATOM     15  C   UNL     1       0.547  10.181  20.297  0.00  0.00    +0.000 A 
ATOM     16  N   UNL     1       1.072   8.941  20.401  0.00  0.00    +0.000 NA
ENDBRANCH   3  11
BRANCH   1  17
ATOM     17  C   UNL     1       5.524   5.199  19.091  0.00  0.00    +0.000 C 
ATOM     18  O   UNL     1       6.128   4.200  19.446  0.00  0.00    +0.000 OA
BRANCH  17  19
ATOM     19  O   UNL     1       6.093   6.274  18.487  0.00  0.00    +0.000 OA
BRANCH  19  20
ATOM     20  C   UNL     1       7.488   6.100  18.186  0.00  0.00    +0.000 C 
BRANCH  20  22
ATOM     21  O   UNL     1       8.158   4.129  16.985  0.00  0.00    +0.000 OA
ATOM     22  C   UNL     1       7.610   5.229  16.930  0.00  0.00    +0.000 C 
ATOM     23  N   UNL     1       7.070   5.785  15.786  0.00  0.00    +0.000 N 
ATOM     24  H   UNL     1       6.854   6.776  15.786  0.00  0.00    +0.000 HD
BRANCH  23  25
ATOM     25  C   UNL     1       6.844   5.109  14.559  0.00  0.00    +0.000 A 
ATOM     26  C   UNL     1       7.692   5.263  13.454  0.00  0.00    +0.000 A 
ATOM     27  C   UNL     1       7.481   4.541  12.276  0.00  0.00    +0.000 A 
ATOM     28  C   UNL     1       6.420   3.645  12.184  0.00  0.00    +0.000 A 
ATOM     29  C   UNL     1       5.560   3.482  13.269  0.00  0.00    +0.000 A 
ATOM     30  C   UNL     1       5.770   4.209  14.447  0.00  0.00    +0.000 A 
ATOM     31 BR   UNL     1       4.526   3.972  15.865  0.00  0.00    +0.000 Br
ENDBRANCH  23  25
ENDBRANCH  20  22
ENDBRANCH  19  20
ENDBRANCH  17  19
ENDBRANCH   1  17
TORSDOF 6
ENDMDL
