MODEL 1
REMARK VINA RESULT:      -8.3      0.000      0.000
REMARK  Name = 
REMARK  5 active torsions:
REMARK  status: ('A' for Active; 'I' for Inactive)
REMARK    1  A    between atoms: C_1  and  C_2
REMARK    2  A    between atoms: C_7  and  N_8
REMARK    3  A    between atoms: C_9  and  C_11
REMARK    4  A    between atoms: N_16  and  C_17
REMARK    5  A    between atoms: C_17  and  C_18
REMARK                            x       y       z     vdW  Elec       q    Type
REMARK                         _______ _______ _______ _____ _____    ______ ____
ROOT
ATOM      1  N   UNL     1       2.165   6.636  19.801  0.00  0.00    +0.000 N 
ATOM      2  C   UNL     1       2.051   5.560  18.925  0.00  0.00    +0.000 C 
ATOM      3  O   UNL     1       1.603   5.652  17.779  0.00  0.00    +0.000 OA
ATOM      4  H   UNL     1       2.517   6.412  20.727  0.00  0.00    +0.000 HD
ENDROOT
BRANCH   1  11
ATOM      5  C   UNL     1      -0.339  13.428  20.037  0.00  0.00    +0.000 C 
ATOM      6  C   UNL     1       0.308  12.123  19.768  0.00  0.00    +0.000 A 
ATOM      7  N   UNL     1       0.970  11.899  18.589  0.00  0.00    +0.000 NA
ATOM      8  C   UNL     1       1.364  10.649  18.711  0.00  0.00    +0.000 A 
ATOM      9  C   UNL     1       2.085   9.791  17.841  0.00  0.00    +0.000 A 
ATOM     10  C   UNL     1       2.340   8.516  18.215  0.00  0.00    +0.000 A 
ATOM     11  C   UNL     1       1.885   7.971  19.501  0.00  0.00    +0.000 A 
ATOM     12  C   UNL     1       1.222   8.820  20.314  0.00  0.00    +0.000 A 
ATOM     13  N   UNL     1       0.955  10.133  19.935  0.00  0.00    +0.000 N 
ATOM     14  N   UNL     1       0.277  11.102  20.615  0.00  0.00    +0.000 NA
ENDBRANCH   1  11
BRANCH   2  15
ATOM     15  C   UNL     1       2.383   4.140  19.443  0.00  0.00    +0.000 C 
ATOM     16  C   UNL     1       1.529   3.920  20.711  0.00  0.00    +0.000 C 
ATOM     17  C   UNL     1       1.667   2.508  21.256  0.00  0.00    +0.000 C 
ATOM     18  C   UNL     1       3.131   2.219  21.510  0.00  0.00    +0.000 C 
ATOM     19  C   UNL     1       3.963   2.480  20.259  0.00  0.00    +0.000 C 
ATOM     20  N   UNL     1       3.838   3.848  19.671  0.00  0.00    +0.000 NA
BRANCH  20  21
ATOM     21  C   UNL     1       4.610   3.839  18.380  0.00  0.00    +0.000 C 
BRANCH  21  22
ATOM     22  C   UNL     1       5.513   5.066  18.216  0.00  0.00    +0.000 A 
ATOM     23  C   UNL     1       5.189   6.078  17.291  0.00  0.00    +0.000 A 
ATOM     24  C   UNL     1       6.106   7.092  16.992  0.00  0.00    +0.000 A 
ATOM     25  C   UNL     1       7.322   7.136  17.662  0.00  0.00    +0.000 A 
ATOM     26  F   UNL     1       8.211   8.093  17.359  0.00  0.00    +0.000 F 
ATOM     27  C   UNL     1       7.629   6.198  18.639  0.00  0.00    +0.000 A 
ATOM     28  C   UNL     1       6.734   5.157  18.907  0.00  0.00    +0.000 A 
ENDBRANCH  21  22
ENDBRANCH  20  21
ENDBRANCH   2  15
TORSDOF 4
ENDMDL
MODEL 2
REMARK VINA RESULT:      -8.3      2.874      4.864
REMARK  Name = 
REMARK  5 active torsions:
REMARK  status: ('A' for Active; 'I' for Inactive)
REMARK    1  A    between atoms: C_1  and  C_2
REMARK    2  A    between atoms: C_7  and  N_8
REMARK    3  A    between atoms: C_9  and  C_11
REMARK    4  A    between atoms: N_16  and  C_17
REMARK    5  A    between atoms: C_17  and  C_18
REMARK                            x       y       z     vdW  Elec       q    Type
REMARK                         _______ _______ _______ _____ _____    ______ ____
ROOT
ATOM      1  N   UNL     1       3.481   6.545  17.625  0.00  0.00    +0.000 N 
ATOM      2  C   UNL     1       4.858   6.632  17.438  0.00  0.00    +0.000 C 
ATOM      3  O   UNL     1       5.544   7.582  17.823  0.00  0.00    +0.000 OA
ATOM      4  H   UNL     1       3.035   5.725  17.225  0.00  0.00    +0.000 HD
ENDROOT
BRANCH   1  11
ATOM      5  C   UNL     1      -0.423   9.770  22.804  0.00  0.00    +0.000 C 
ATOM      6  C   UNL     1       0.336   9.340  21.606  0.00  0.00    +0.000 A 
ATOM      7  N   UNL     1       0.282  10.068  20.446  0.00  0.00    +0.000 NA
ATOM      8  C   UNL     1       1.038   9.365  19.629  0.00  0.00    +0.000 A 
ATOM      9  C   UNL     1       1.392   9.549  18.267  0.00  0.00    +0.000 A 
ATOM     10  C   UNL     1       2.184   8.642  17.650  0.00  0.00    +0.000 A 
ATOM     11  C   UNL     1       2.691   7.449  18.340  0.00  0.00    +0.000 A 
ATOM     12  C   UNL     1       2.355   7.316  19.641  0.00  0.00    +0.000 A 
ATOM     13  N   UNL     1       1.540   8.245  20.281  0.00  0.00    +0.000 N 
ATOM     14  N   UNL     1       1.083   8.245  21.566  0.00  0.00    +0.000 NA
ENDBRANCH   1  11
BRANCH   2  15
ATOM     15  C   UNL     1       5.564   5.546  16.591  0.00  0.00    +0.000 C 
ATOM     16  C   UNL     1       5.651   6.096  15.150  0.00  0.00    +0.000 C 
ATOM     17  C   UNL     1       6.438   5.174  14.232  0.00  0.00    +0.000 C 
ATOM     18  C   UNL     1       5.816   3.795  14.270  0.00  0.00    +0.000 C 
ATOM     19  C   UNL     1       5.703   3.286  15.703  0.00  0.00    +0.000 C 
ATOM     20  N   UNL     1       4.960   4.174  16.649  0.00  0.00    +0.000 NA
BRANCH  20  21
ATOM     21  C   UNL     1       5.098   3.564  18.017  0.00  0.00    +0.000 C 
BRANCH  21  22
ATOM     22  C   UNL     1       3.749   3.247  18.668  0.00  0.00    +0.000 A 
ATOM     23  C   UNL     1       2.760   2.535  17.961  0.00  0.00    +0.000 A 
ATOM     24  C   UNL     1       1.462   2.420  18.470  0.00  0.00    +0.000 A 
ATOM     25  C   UNL     1       1.162   2.960  19.714  0.00  0.00    +0.000 A 
ATOM     26  F   UNL     1      -0.087   2.871  20.191  0.00  0.00    +0.000 F 
ATOM     27  C   UNL     1       2.142   3.594  20.467  0.00  0.00    +0.000 A 
ATOM     28  C   UNL     1       3.429   3.750  19.941  0.00  0.00    +0.000 A 
ENDBRANCH  21  22
ENDBRANCH  20  21
ENDBRANCH   2  15
TORSDOF 4
ENDMDL
MODEL 3
REMARK VINA RESULT:      -8.2      2.801      4.767
REMARK  Name = 
REMARK  5 active torsions:
REMARK  status: ('A' for Active; 'I' for Inactive)
REMARK    1  A    between atoms: C_1  and  C_2
REMARK    2  A    between atoms: C_7  and  N_8
REMARK    3  A    between atoms: C_9  and  C_11
REMARK    4  A    between atoms: N_16  and  C_17
REMARK    5  A    between atoms: C_17  and  C_18
REMARK                            x       y       z     vdW  Elec       q    Type
REMARK                         _______ _______ _______ _____ _____    ______ ____
ROOT
ATOM      1  N   UNL     1       3.299   6.705  17.760  0.00  0.00    +0.000 N 
ATOM      2  C   UNL     1       4.673   6.797  17.554  0.00  0.00    +0.000 C 
ATOM      3  O   UNL     1       5.351   7.776  17.877  0.00  0.00    +0.000 OA
ATOM      4  H   UNL     1       2.859   5.857  17.412  0.00  0.00    +0.000 HD
ENDROOT
BRANCH   1  11
ATOM      5  C   UNL     1      -0.604  10.171  22.781  0.00  0.00    +0.000 C 
ATOM      6  C   UNL     1       0.151   9.684  21.603  0.00  0.00    +0.000 A 
ATOM      7  N   UNL     1       0.083  10.346  20.405  0.00  0.00    +0.000 NA
ATOM      8  C   UNL     1       0.841   9.607  19.622  0.00  0.00    +0.000 A 
ATOM      9  C   UNL     1       1.184   9.720  18.250  0.00  0.00    +0.000 A 
ATOM     10  C   UNL     1       1.981   8.787  17.678  0.00  0.00    +0.000 A 
ATOM     11  C   UNL     1       2.505   7.639  18.430  0.00  0.00    +0.000 A 
ATOM     12  C   UNL     1       2.178   7.574  19.737  0.00  0.00    +0.000 A 
ATOM     13  N   UNL     1       1.358   8.529  20.332  0.00  0.00    +0.000 N 
ATOM     14  N   UNL     1       0.909   8.595  21.618  0.00  0.00    +0.000 NA
ENDBRANCH   1  11
BRANCH   2  15
ATOM     15  C   UNL     1       5.384   5.673  16.763  0.00  0.00    +0.000 C 
ATOM     16  C   UNL     1       5.363   6.094  15.278  0.00  0.00    +0.000 C 
ATOM     17  C   UNL     1       6.142   5.130  14.398  0.00  0.00    +0.000 C 
ATOM     18  C   UNL     1       5.594   3.733  14.592  0.00  0.00    +0.000 C 
ATOM     19  C   UNL     1       5.587   3.350  16.069  0.00  0.00    +0.000 C 
ATOM     20  N   UNL     1       4.854   4.285  16.977  0.00  0.00    +0.000 NA
BRANCH  20  21
ATOM     21  C   UNL     1       5.100   3.808  18.382  0.00  0.00    +0.000 C 
BRANCH  21  22
ATOM     22  C   UNL     1       3.805   3.561  19.162  0.00  0.00    +0.000 A 
ATOM     23  C   UNL     1       3.471   4.362  20.272  0.00  0.00    +0.000 A 
ATOM     24  C   UNL     1       2.403   4.017  21.107  0.00  0.00    +0.000 A 
ATOM     25  C   UNL     1       1.625   2.908  20.801  0.00  0.00    +0.000 A 
ATOM     26  F   UNL     1       0.616   2.563  21.614  0.00  0.00    +0.000 F 
ATOM     27  C   UNL     1       1.882   2.151  19.665  0.00  0.00    +0.000 A 
ATOM     28  C   UNL     1       2.978   2.467  18.854  0.00  0.00    +0.000 A 
ENDBRANCH  21  22
ENDBRANCH  20  21
ENDBRANCH   2  15
TORSDOF 4
ENDMDL
MODEL 4
REMARK VINA RESULT:      -8.1      3.780      8.202
REMARK  Name = 
REMARK  5 active torsions:
REMARK  status: ('A' for Active; 'I' for Inactive)
REMARK    1  A    between atoms: C_1  and  C_2
REMARK    2  A    between atoms: C_7  and  N_8
REMARK    3  A    between atoms: C_9  and  C_11
REMARK    4  A    between atoms: N_16  and  C_17
REMARK    5  A    between atoms: C_17  and  C_18
REMARK                            x       y       z     vdW  Elec       q    Type
REMARK                         _______ _______ _______ _____ _____    ______ ____
ROOT
ATOM      1  N   UNL     1       2.225   7.362  19.862  0.00  0.00    +0.000 N 
ATOM      2  C   UNL     1       1.582   8.545  19.509  0.00  0.00    +0.000 C 
ATOM      3  O   UNL     1       1.526   8.977  18.354  0.00  0.00    +0.000 OA
ATOM      4  H   UNL     1       2.226   7.144  20.855  0.00  0.00    +0.000 HD
ENDROOT
BRANCH   1  11
ATOM      5  C   UNL     1       6.432   4.306  14.820  0.00  0.00    +0.000 C 
ATOM      6  C   UNL     1       5.472   4.680  15.885  0.00  0.00    +0.000 A 
ATOM      7  N   UNL     1       4.509   3.799  16.301  0.00  0.00    +0.000 NA
ATOM      8  C   UNL     1       3.853   4.493  17.207  0.00  0.00    +0.000 A 
ATOM      9  C   UNL     1       2.728   4.180  18.013  0.00  0.00    +0.000 A 
ATOM     10  C   UNL     1       2.232   5.108  18.864  0.00  0.00    +0.000 A 
ATOM     11  C   UNL     1       2.813   6.452  18.981  0.00  0.00    +0.000 A 
ATOM     12  C   UNL     1       3.896   6.709  18.217  0.00  0.00    +0.000 A 
ATOM     13  N   UNL     1       4.410   5.760  17.339  0.00  0.00    +0.000 N 
ATOM     14  N   UNL     1       5.465   5.866  16.481  0.00  0.00    +0.000 NA
ENDBRANCH   1  11
BRANCH   2  15
ATOM     15  C   UNL     1       1.010   9.446  20.629  0.00  0.00    +0.000 C 
ATOM     16  C   UNL     1       1.101   8.635  21.940  0.00  0.00    +0.000 C 
ATOM     17  C   UNL     1       0.682   9.453  23.150  0.00  0.00    +0.000 C 
ATOM     18  C   UNL     1      -0.713   9.992  22.921  0.00  0.00    +0.000 C 
ATOM     19  C   UNL     1      -0.794  10.756  21.603  0.00  0.00    +0.000 C 
ATOM     20  N   UNL     1      -0.364   9.998  20.388  0.00  0.00    +0.000 NA
BRANCH  20  21
ATOM     21  C   UNL     1      -0.377  10.972  19.242  0.00  0.00    +0.000 C 
BRANCH  21  22
ATOM     22  C   UNL     1      -1.591  10.796  18.323  0.00  0.00    +0.000 A 
ATOM     23  C   UNL     1      -1.547   9.895  17.241  0.00  0.00    +0.000 A 
ATOM     24  C   UNL     1      -2.568   9.878  16.284  0.00  0.00    +0.000 A 
ATOM     25  C   UNL     1      -3.666  10.714  16.439  0.00  0.00    +0.000 A 
ATOM     26  F   UNL     1      -4.633  10.716  15.510  0.00  0.00    +0.000 F 
ATOM     27  C   UNL     1      -3.772  11.551  17.542  0.00  0.00    +0.000 A 
ATOM     28  C   UNL     1      -2.731  11.603  18.476  0.00  0.00    +0.000 A 
ENDBRANCH  21  22
ENDBRANCH  20  21
ENDBRANCH   2  15
TORSDOF 4
ENDMDL
MODEL 5
REMARK VINA RESULT:      -8.1      1.662      2.273
REMARK  Name = 
REMARK  5 active torsions:
REMARK  status: ('A' for Active; 'I' for Inactive)
REMARK    1  A    between atoms: C_1  and  C_2
REMARK    2  A    between atoms: C_7  and  N_8
REMARK    3  A    between atoms: C_9  and  C_11
REMARK    4  A    between atoms: N_16  and  C_17
REMARK    5  A    between atoms: C_17  and  C_18
REMARK                            x       y       z     vdW  Elec       q    Type
REMARK                         _______ _______ _______ _____ _____    ______ ____
ROOT
ATOM      1  N   UNL     1       1.659   7.332  18.162  0.00  0.00    +0.000 N 
ATOM      2  C   UNL     1       2.421   6.342  18.776  0.00  0.00    +0.000 C 
ATOM      3  O   UNL     1       3.229   6.562  19.684  0.00  0.00    +0.000 OA
ATOM      4  H   UNL     1       1.061   7.017  17.403  0.00  0.00    +0.000 HD
ENDROOT
BRANCH   1  11
ATOM      5  C   UNL     1       2.725  14.491  18.427  0.00  0.00    +0.000 C 
ATOM      6  C   UNL     1       2.330  13.071  18.574  0.00  0.00    +0.000 A 
ATOM      7  N   UNL     1       1.574  12.661  19.641  0.00  0.00    +0.000 NA
ATOM      8  C   UNL     1       1.464  11.365  19.438  0.00  0.00    +0.000 A 
ATOM      9  C   UNL     1       0.824  10.338  20.178  0.00  0.00    +0.000 A 
ATOM     10  C   UNL     1       0.888   9.058  19.745  0.00  0.00    +0.000 A 
ATOM     11  C   UNL     1       1.616   8.680  18.527  0.00  0.00    +0.000 A 
ATOM     12  C   UNL     1       2.194   9.683  17.834  0.00  0.00    +0.000 A 
ATOM     13  N   UNL     1       2.133  11.002  18.274  0.00  0.00    +0.000 N 
ATOM     14  N   UNL     1       2.683  12.120  17.719  0.00  0.00    +0.000 NA
ENDBRANCH   1  11
BRANCH   2  15
ATOM     15  C   UNL     1       2.361   4.901  18.217  0.00  0.00    +0.000 C 
ATOM     16  C   UNL     1       1.477   4.086  19.186  0.00  0.00    +0.000 C 
ATOM     17  C   UNL     1       1.232   2.672  18.686  0.00  0.00    +0.000 C 
ATOM     18  C   UNL     1       2.564   1.998  18.444  0.00  0.00    +0.000 C 
ATOM     19  C   UNL     1       3.439   2.836  17.516  0.00  0.00    +0.000 C 
ATOM     20  N   UNL     1       3.684   4.244  17.954  0.00  0.00    +0.000 NA
BRANCH  20  21
ATOM     21  C   UNL     1       4.429   4.923  16.837  0.00  0.00    +0.000 C 
BRANCH  21  22
ATOM     22  C   UNL     1       5.718   5.603  17.307  0.00  0.00    +0.000 A 
ATOM     23  C   UNL     1       6.550   4.983  18.261  0.00  0.00    +0.000 A 
ATOM     24  C   UNL     1       7.614   5.682  18.842  0.00  0.00    +0.000 A 
ATOM     25  C   UNL     1       7.891   6.979  18.427  0.00  0.00    +0.000 A 
ATOM     26  F   UNL     1       8.894   7.658  19.000  0.00  0.00    +0.000 F 
ATOM     27  C   UNL     1       7.136   7.581  17.428  0.00  0.00    +0.000 A 
ATOM     28  C   UNL     1       6.044   6.901  16.878  0.00  0.00    +0.000 A 
ENDBRANCH  21  22
ENDBRANCH  20  21
ENDBRANCH   2  15
TORSDOF 4
ENDMDL
MODEL 6
REMARK VINA RESULT:      -8.1      0.933      1.742
REMARK  Name = 
REMARK  5 active torsions:
REMARK  status: ('A' for Active; 'I' for Inactive)
REMARK    1  A    between atoms: C_1  and  C_2
REMARK    2  A    between atoms: C_7  and  N_8
REMARK    3  A    between atoms: C_9  and  C_11
REMARK    4  A    between atoms: N_16  and  C_17
REMARK    5  A    between atoms: C_17  and  C_18
REMARK                            x       y       z     vdW  Elec       q    Type
REMARK                         _______ _______ _______ _____ _____    ______ ____
ROOT
ATOM      1  N   UNL     1       1.865   6.727  20.522  0.00  0.00    +0.000 N 
ATOM      2  C   UNL     1       2.262   5.982  19.414  0.00  0.00    +0.000 C 
ATOM      3  O   UNL     1       2.271   6.422  18.261  0.00  0.00    +0.000 OA
ATOM      4  H   UNL     1       1.871   6.229  21.409  0.00  0.00    +0.000 HD
ENDROOT
BRANCH   1  11
ATOM      5  C   UNL     1       0.768  13.613  18.566  0.00  0.00    +0.000 C 
ATOM      6  C   UNL     1       0.867  12.276  19.196  0.00  0.00    +0.000 A 
ATOM      7  N   UNL     1       0.563  12.102  20.521  0.00  0.00    +0.000 NA
ATOM      8  C   UNL     1       0.800  10.821  20.707  0.00  0.00    +0.000 A 
ATOM      9  C   UNL     1       0.704   9.993  21.856  0.00  0.00    +0.000 A 
ATOM     10  C   UNL     1       1.038   8.685  21.771  0.00  0.00    +0.000 A 
ATOM     11  C   UNL     1       1.514   8.078  20.521  0.00  0.00    +0.000 A 
ATOM     12  C   UNL     1       1.571   8.887  19.442  0.00  0.00    +0.000 A 
ATOM     13  N   UNL     1       1.230  10.234  19.522  0.00  0.00    +0.000 N 
ATOM     14  N   UNL     1       1.261  11.188  18.548  0.00  0.00    +0.000 NA
ENDBRANCH   1  11
BRANCH   2  15
ATOM     15  C   UNL     1       2.591   4.482  19.603  0.00  0.00    +0.000 C 
ATOM     16  C   UNL     1       1.976   4.060  20.955  0.00  0.00    +0.000 C 
ATOM     17  C   UNL     1       2.121   2.569  21.210  0.00  0.00    +0.000 C 
ATOM     18  C   UNL     1       3.585   2.194  21.118  0.00  0.00    +0.000 C 
ATOM     19  C   UNL     1       4.184   2.653  19.792  0.00  0.00    +0.000 C 
ATOM     20  N   UNL     1       4.040   4.110  19.487  0.00  0.00    +0.000 NA
BRANCH  20  21
ATOM     21  C   UNL     1       4.555   4.313  18.088  0.00  0.00    +0.000 C 
BRANCH  21  22
ATOM     22  C   UNL     1       5.740   5.281  18.024  0.00  0.00    +0.000 A 
ATOM     23  C   UNL     1       6.853   5.111  18.870  0.00  0.00    +0.000 A 
ATOM     24  C   UNL     1       7.840   6.099  18.961  0.00  0.00    +0.000 A 
ATOM     25  C   UNL     1       7.752   7.230  18.160  0.00  0.00    +0.000 A 
ATOM     26  F   UNL     1       8.684   8.188  18.264  0.00  0.00    +0.000 F 
ATOM     27  C   UNL     1       6.708   7.382  17.257  0.00  0.00    +0.000 A 
ATOM     28  C   UNL     1       5.696   6.418  17.198  0.00  0.00    +0.000 A 
ENDBRANCH  21  22
ENDBRANCH  20  21
ENDBRANCH   2  15
TORSDOF 4
ENDMDL
MODEL 7
REMARK VINA RESULT:      -8.0      1.362      1.683
REMARK  Name = 
REMARK  5 active torsions:
REMARK  status: ('A' for Active; 'I' for Inactive)
REMARK    1  A    between atoms: C_1  and  C_2
REMARK    2  A    between atoms: C_7  and  N_8
REMARK    3  A    between atoms: C_9  and  C_11
REMARK    4  A    between atoms: N_16  and  C_17
REMARK    5  A    between atoms: C_17  and  C_18
REMARK                            x       y       z     vdW  Elec       q    Type
REMARK                         _______ _______ _______ _____ _____    ______ ____
ROOT
ATOM      1  N   UNL     1       1.702   6.993  18.302  0.00  0.00    +0.000 N 
ATOM      2  C   UNL     1       2.580   6.069  18.864  0.00  0.00    +0.000 C 
ATOM      3  O   UNL     1       3.466   6.366  19.669  0.00  0.00    +0.000 OA
ATOM      4  H   UNL     1       1.045   6.617  17.625  0.00  0.00    +0.000 HD
ENDROOT
BRANCH   1  11
ATOM      5  C   UNL     1       0.311  13.277  21.624  0.00  0.00    +0.000 C 
ATOM      6  C   UNL     1       0.733  12.144  20.767  0.00  0.00    +0.000 A 
ATOM      7  N   UNL     1       1.307  12.369  19.544  0.00  0.00    +0.000 NA
ATOM      8  C   UNL     1       1.504  11.149  19.088  0.00  0.00    +0.000 A 
ATOM      9  C   UNL     1       2.048  10.666  17.870  0.00  0.00    +0.000 A 
ATOM     10  C   UNL     1       2.113   9.333  17.645  0.00  0.00    +0.000 A 
ATOM     11  C   UNL     1       1.625   8.350  18.622  0.00  0.00    +0.000 A 
ATOM     12  C   UNL     1       1.136   8.842  19.779  0.00  0.00    +0.000 A 
ATOM     13  N   UNL     1       1.065  10.212  20.016  0.00  0.00    +0.000 N 
ATOM     14  N   UNL     1       0.574  10.871  21.105  0.00  0.00    +0.000 NA
ENDBRANCH   1  11
BRANCH   2  15
ATOM     15  C   UNL     1       2.539   4.604  18.366  0.00  0.00    +0.000 C 
ATOM     16  C   UNL     1       1.708   3.809  19.396  0.00  0.00    +0.000 C 
ATOM     17  C   UNL     1       1.484   2.370  18.963  0.00  0.00    +0.000 C 
ATOM     18  C   UNL     1       2.826   1.719  18.703  0.00  0.00    +0.000 C 
ATOM     19  C   UNL     1       3.647   2.540  17.713  0.00  0.00    +0.000 C 
ATOM     20  N   UNL     1       3.870   3.970  18.085  0.00  0.00    +0.000 NA
BRANCH  20  21
ATOM     21  C   UNL     1       4.559   4.621  16.917  0.00  0.00    +0.000 C 
BRANCH  21  22
ATOM     22  C   UNL     1       5.793   5.429  17.328  0.00  0.00    +0.000 A 
ATOM     23  C   UNL     1       6.695   4.926  18.286  0.00  0.00    +0.000 A 
ATOM     24  C   UNL     1       7.706   5.738  18.813  0.00  0.00    +0.000 A 
ATOM     25  C   UNL     1       7.859   7.034  18.339  0.00  0.00    +0.000 A 
ATOM     26  F   UNL     1       8.812   7.821  18.860  0.00  0.00    +0.000 F 
ATOM     27  C   UNL     1       7.036   7.526  17.334  0.00  0.00    +0.000 A 
ATOM     28  C   UNL     1       5.996   6.731  16.838  0.00  0.00    +0.000 A 
ENDBRANCH  21  22
ENDBRANCH  20  21
ENDBRANCH   2  15
TORSDOF 4
ENDMDL
MODEL 8
REMARK VINA RESULT:      -7.9      1.795      2.045
REMARK  Name = 
REMARK  5 active torsions:
REMARK  status: ('A' for Active; 'I' for Inactive)
REMARK    1  A    between atoms: C_1  and  C_2
REMARK    2  A    between atoms: C_7  and  N_8
REMARK    3  A    between atoms: C_9  and  C_11
REMARK    4  A    between atoms: N_16  and  C_17
REMARK    5  A    between atoms: C_17  and  C_18
REMARK                            x       y       z     vdW  Elec       q    Type
REMARK                         _______ _______ _______ _____ _____    ______ ____
ROOT
ATOM      1  N   UNL     1       2.308   7.187  18.726  0.00  0.00    +0.000 N 
ATOM      2  C   UNL     1       2.192   5.979  19.409  0.00  0.00    +0.000 C 
ATOM      3  O   UNL     1       1.676   5.869  20.525  0.00  0.00    +0.000 OA
ATOM      4  H   UNL     1       2.787   7.139  17.831  0.00  0.00    +0.000 HD
ENDROOT
BRANCH   1  11
ATOM      5  C   UNL     1      -0.728  12.489  22.615  0.00  0.00    +0.000 C 
ATOM      6  C   UNL     1      -0.067  11.598  21.633  0.00  0.00    +0.000 A 
ATOM      7  N   UNL     1       0.175  12.024  20.354  0.00  0.00    +0.000 NA
ATOM      8  C   UNL     1       0.728  10.967  19.796  0.00  0.00    +0.000 A 
ATOM      9  C   UNL     1       1.203  10.725  18.482  0.00  0.00    +0.000 A 
ATOM     10  C   UNL     1       1.715   9.513  18.165  0.00  0.00    +0.000 A 
ATOM     11  C   UNL     1       1.791   8.417  19.139  0.00  0.00    +0.000 A 
ATOM     12  C   UNL     1       1.352   8.688  20.387  0.00  0.00    +0.000 A 
ATOM     13  N   UNL     1       0.823   9.932  20.719  0.00  0.00    +0.000 N 
ATOM     14  N   UNL     1       0.311  10.357  21.909  0.00  0.00    +0.000 NA
ENDBRANCH   1  11
BRANCH   2  15
ATOM     15  C   UNL     1       2.854   4.717  18.808  0.00  0.00    +0.000 C 
ATOM     16  C   UNL     1       1.765   3.623  18.766  0.00  0.00    +0.000 C 
ATOM     17  C   UNL     1       2.251   2.357  18.080  0.00  0.00    +0.000 C 
ATOM     18  C   UNL     1       3.506   1.872  18.773  0.00  0.00    +0.000 C 
ATOM     19  C   UNL     1       4.555   2.977  18.839  0.00  0.00    +0.000 C 
ATOM     20  N   UNL     1       4.112   4.252  19.483  0.00  0.00    +0.000 NA
BRANCH  20  21
ATOM     21  C   UNL     1       5.232   5.240  19.307  0.00  0.00    +0.000 C 
BRANCH  21  22
ATOM     22  C   UNL     1       5.767   5.286  17.872  0.00  0.00    +0.000 A 
ATOM     23  C   UNL     1       5.011   5.879  16.842  0.00  0.00    +0.000 A 
ATOM     24  C   UNL     1       5.397   5.744  15.504  0.00  0.00    +0.000 A 
ATOM     25  C   UNL     1       6.573   5.073  15.194  0.00  0.00    +0.000 A 
ATOM     26  F   UNL     1       6.932   4.923  13.911  0.00  0.00    +0.000 F 
ATOM     27  C   UNL     1       7.380   4.553  16.198  0.00  0.00    +0.000 A 
ATOM     28  C   UNL     1       6.972   4.646  17.534  0.00  0.00    +0.000 A 
ENDBRANCH  21  22
ENDBRANCH  20  21
ENDBRANCH   2  15
TORSDOF 4
ENDMDL
MODEL 9
REMARK VINA RESULT:      -7.9      2.723      4.889
REMARK  Name = 
REMARK  5 active torsions:
REMARK  status: ('A' for Active; 'I' for Inactive)
REMARK    1  A    between atoms: C_1  and  C_2
REMARK    2  A    between atoms: C_7  and  N_8
REMARK    3  A    between atoms: C_9  and  C_11
REMARK    4  A    between atoms: N_16  and  C_17
REMARK    5  A    between atoms: C_17  and  C_18
REMARK                            x       y       z     vdW  Elec       q    Type
REMARK                         _______ _______ _______ _____ _____    ______ ____
ROOT
ATOM      1  N   UNL     1       3.342   6.405  17.873  0.00  0.00    +0.000 N 
ATOM      2  C   UNL     1       4.580   5.829  18.142  0.00  0.00    +0.000 C 
ATOM      3  O   UNL     1       5.184   5.968  19.210  0.00  0.00    +0.000 OA
ATOM      4  H   UNL     1       2.975   6.239  16.939  0.00  0.00    +0.000 HD
ENDROOT
BRANCH   1  11
ATOM      5  C   UNL     1      -0.368  11.694  21.146  0.00  0.00    +0.000 C 
ATOM      6  C   UNL     1       0.295  10.455  20.677  0.00  0.00    +0.000 A 
ATOM      7  N   UNL     1       0.331   9.338  21.469  0.00  0.00    +0.000 NA
ATOM      8  C   UNL     1       1.017   8.486  20.736  0.00  0.00    +0.000 A 
ATOM      9  C   UNL     1       1.431   7.149  20.970  0.00  0.00    +0.000 A 
ATOM     10  C   UNL     1       2.163   6.499  20.036  0.00  0.00    +0.000 A 
ATOM     11  C   UNL     1       2.562   7.135  18.773  0.00  0.00    +0.000 A 
ATOM     12  C   UNL     1       2.133   8.398  18.572  0.00  0.00    +0.000 A 
ATOM     13  N   UNL     1       1.381   9.073  19.529  0.00  0.00    +0.000 N 
ATOM     14  N   UNL     1       0.900  10.349  19.500  0.00  0.00    +0.000 NA
ENDBRANCH   1  11
BRANCH   2  15
ATOM     15  C   UNL     1       5.314   5.074  17.008  0.00  0.00    +0.000 C 
ATOM     16  C   UNL     1       5.515   6.087  15.859  0.00  0.00    +0.000 C 
ATOM     17  C   UNL     1       6.338   5.506  14.721  0.00  0.00    +0.000 C 
ATOM     18  C   UNL     1       5.678   4.233  14.236  0.00  0.00    +0.000 C 
ATOM     19  C   UNL     1       5.452   3.262  15.391  0.00  0.00    +0.000 C 
ATOM     20  N   UNL     1       4.670   3.799  16.546  0.00  0.00    +0.000 NA
BRANCH  20  21
ATOM     21  C   UNL     1       4.697   2.744  17.617  0.00  0.00    +0.000 C 
BRANCH  21  22
ATOM     22  C   UNL     1       3.564   2.900  18.636  0.00  0.00    +0.000 A 
ATOM     23  C   UNL     1       3.829   2.842  20.019  0.00  0.00    +0.000 A 
ATOM     24  C   UNL     1       2.781   2.780  20.945  0.00  0.00    +0.000 A 
ATOM     25  C   UNL     1       1.468   2.840  20.498  0.00  0.00    +0.000 A 
ATOM     26  F   UNL     1       0.463   2.755  21.382  0.00  0.00    +0.000 F 
ATOM     27  C   UNL     1       1.182   2.981  19.146  0.00  0.00    +0.000 A 
ATOM     28  C   UNL     1       2.227   2.998  18.215  0.00  0.00    +0.000 A 
ENDBRANCH  21  22
ENDBRANCH  20  21
ENDBRANCH   2  15
TORSDOF 4
ENDMDL
