MODEL 1
REMARK VINA RESULT:      -8.5      0.000      0.000
REMARK  Name = 
REMARK  7 active torsions:
REMARK  status: ('A' for Active; 'I' for Inactive)
REMARK    1  A    between atoms: C_1  and  C_2
REMARK    2  A    between atoms: C_2  and  C_3
REMARK    3  A    between atoms: C_3  and  C_4
REMARK    4  A    between atoms: N_14  and  C_15
REMARK    5  A    between atoms: C_15  and  C_16
REMARK    6  A    between atoms: C_22  and  C_23
REMARK    7  A    between atoms: C_24  and  C_25
REMARK                            x       y       z     vdW  Elec       q    Type
REMARK                         _______ _______ _______ _____ _____    ______ ____
ROOT
ATOM      1  C   UNL     1       2.138   5.530  19.326  0.00  0.00    +0.000 C 
ATOM      2  N   UNL     1       1.699   4.735  18.198  0.00  0.00    +0.000 N 
ATOM      3  C   UNL     1       2.681   3.912  17.704  0.00  0.00    +0.000 C 
ATOM      4  O   UNL     1       2.498   3.139  16.782  0.00  0.00    +0.000 OA
ATOM      5  N   UNL     1       3.827   4.129  18.401  0.00  0.00    +0.000 N 
ATOM      6  C   UNL     1       3.624   5.081  19.365  0.00  0.00    +0.000 C 
ATOM      7  O   UNL     1       4.466   5.494  20.153  0.00  0.00    +0.000 OA
ATOM      8  H   UNL     1       0.757   4.703  17.836  0.00  0.00    +0.000 HD
ENDROOT
BRANCH   1   9
ATOM      9  C   UNL     1       2.009   7.036  19.067  0.00  0.00    +0.000 A 
ATOM     10  C   UNL     1       1.466   7.882  20.058  0.00  0.00    +0.000 A 
ATOM     11  C   UNL     1       1.347   9.260  19.849  0.00  0.00    +0.000 A 
ATOM     12  C   UNL     1       1.776   9.811  18.652  0.00  0.00    +0.000 A 
ATOM     13  F   UNL     1       1.678  11.132  18.456  0.00  0.00    +0.000 F 
ATOM     14  C   UNL     1       2.315   9.009  17.655  0.00  0.00    +0.000 A 
ATOM     15  C   UNL     1       2.430   7.631  17.861  0.00  0.00    +0.000 A 
ENDBRANCH   1   9
BRANCH   1  17
ATOM     16  C   UNL     1       1.004   3.612  20.656  0.00  0.00    +0.000 C 
ATOM     17  C   UNL     1       1.389   5.090  20.604  0.00  0.00    +0.000 C 
ENDBRANCH   1  17
BRANCH   5  18
ATOM     18  C   UNL     1       5.107   3.511  18.132  0.00  0.00    +0.000 C 
BRANCH  18  19
ATOM     19  C   UNL     1       5.992   4.434  17.327  0.00  0.00    +0.000 A 
ATOM     20  C   UNL     1       6.574   5.498  17.909  0.00  0.00    +0.000 A 
ATOM     21  C   UNL     1       7.396   6.477  17.190  0.00  0.00    +0.000 A 
ATOM     22  O   UNL     1       7.846   7.465  17.757  0.00  0.00    +0.000 OA
ATOM     23  O   UNL     1       7.634   6.215  15.855  0.00  0.00    +0.000 OA
ATOM     24  C   UNL     1       7.026   5.130  15.179  0.00  0.00    +0.000 A 
ATOM     25  C   UNL     1       7.298   5.006  13.799  0.00  0.00    +0.000 A 
ATOM     26  C   UNL     1       8.265   5.936  13.116  0.00  0.00    +0.000 C 
ATOM     27  C   UNL     1       6.660   3.976  13.083  0.00  0.00    +0.000 A 
ATOM     28  C   UNL     1       6.841   3.750  11.607  0.00  0.00    +0.000 C 
ATOM     29  C   UNL     1       5.795   3.109  13.764  0.00  0.00    +0.000 A 
ATOM     30  C   UNL     1       5.571   3.238  15.138  0.00  0.00    +0.000 A 
ATOM     31  C   UNL     1       6.184   4.253  15.876  0.00  0.00    +0.000 A 
ENDBRANCH  18  19
ENDBRANCH   5  18
TORSDOF 4
ENDMDL
MODEL 2
REMARK VINA RESULT:      -8.1      4.088      9.036
REMARK  Name = 
REMARK  7 active torsions:
REMARK  status: ('A' for Active; 'I' for Inactive)
REMARK    1  A    between atoms: C_1  and  C_2
REMARK    2  A    between atoms: C_2  and  C_3
REMARK    3  A    between atoms: C_3  and  C_4
REMARK    4  A    between atoms: N_14  and  C_15
REMARK    5  A    between atoms: C_15  and  C_16
REMARK    6  A    between atoms: C_22  and  C_23
REMARK    7  A    between atoms: C_24  and  C_25
REMARK                            x       y       z     vdW  Elec       q    Type
REMARK                         _______ _______ _______ _____ _____    ______ ____
ROOT
ATOM      1  C   UNL     1       2.600   6.249  18.439  0.00  0.00    +0.000 C 
ATOM      2  N   UNL     1       2.216   6.400  19.827  0.00  0.00    +0.000 N 
ATOM      3  C   UNL     1       1.871   7.689  20.153  0.00  0.00    +0.000 C 
ATOM      4  O   UNL     1       1.484   8.013  21.260  0.00  0.00    +0.000 OA
ATOM      5  N   UNL     1       2.048   8.479  19.062  0.00  0.00    +0.000 N 
ATOM      6  C   UNL     1       2.499   7.736  18.003  0.00  0.00    +0.000 C 
ATOM      7  O   UNL     1       2.754   8.162  16.885  0.00  0.00    +0.000 OA
ATOM      8  H   UNL     1       2.121   5.648  20.494  0.00  0.00    +0.000 HD
ENDROOT
BRANCH   1   9
ATOM      9  C   UNL     1       4.027   5.709  18.282  0.00  0.00    +0.000 A 
ATOM     10  C   UNL     1       4.519   5.367  17.004  0.00  0.00    +0.000 A 
ATOM     11  C   UNL     1       5.820   4.882  16.834  0.00  0.00    +0.000 A 
ATOM     12  C   UNL     1       6.648   4.740  17.937  0.00  0.00    +0.000 A 
ATOM     13  F   UNL     1       7.899   4.291  17.774  0.00  0.00    +0.000 F 
ATOM     14  C   UNL     1       6.197   5.066  19.208  0.00  0.00    +0.000 A 
ATOM     15  C   UNL     1       4.895   5.547  19.380  0.00  0.00    +0.000 A 
ENDBRANCH   1   9
BRANCH   1  17
ATOM     16  C   UNL     1       1.453   3.935  18.187  0.00  0.00    +0.000 C 
ATOM     17  C   UNL     1       1.561   5.379  17.697  0.00  0.00    +0.000 C 
ENDBRANCH   1  17
BRANCH   5  18
ATOM     18  C   UNL     1       1.868   9.914  19.023  0.00  0.00    +0.000 C 
BRANCH  18  19
ATOM     19  C   UNL     1       0.407  10.270  18.871  0.00  0.00    +0.000 A 
ATOM     20  C   UNL     1      -0.305   9.795  17.834  0.00  0.00    +0.000 A 
ATOM     21  C   UNL     1      -1.708  10.139  17.578  0.00  0.00    +0.000 A 
ATOM     22  O   UNL     1      -2.288   9.731  16.580  0.00  0.00    +0.000 OA
ATOM     23  O   UNL     1      -2.326  10.934  18.523  0.00  0.00    +0.000 OA
ATOM     24  C   UNL     1      -1.623  11.490  19.618  0.00  0.00    +0.000 A 
ATOM     25  C   UNL     1      -2.352  12.340  20.479  0.00  0.00    +0.000 A 
ATOM     26  C   UNL     1      -3.828  12.556  20.280  0.00  0.00    +0.000 C 
ATOM     27  C   UNL     1      -1.669  12.958  21.542  0.00  0.00    +0.000 A 
ATOM     28  C   UNL     1      -2.320  13.904  22.515  0.00  0.00    +0.000 C 
ATOM     29  C   UNL     1      -0.302  12.700  21.714  0.00  0.00    +0.000 A 
ATOM     30  C   UNL     1       0.385  11.829  20.864  0.00  0.00    +0.000 A 
ATOM     31  C   UNL     1      -0.263  11.203  19.796  0.00  0.00    +0.000 A 
ENDBRANCH  18  19
ENDBRANCH   5  18
TORSDOF 4
ENDMDL
MODEL 3
REMARK VINA RESULT:      -8.0      2.282      6.921
REMARK  Name = 
REMARK  7 active torsions:
REMARK  status: ('A' for Active; 'I' for Inactive)
REMARK    1  A    between atoms: C_1  and  C_2
REMARK    2  A    between atoms: C_2  and  C_3
REMARK    3  A    between atoms: C_3  and  C_4
REMARK    4  A    between atoms: N_14  and  C_15
REMARK    5  A    between atoms: C_15  and  C_16
REMARK    6  A    between atoms: C_22  and  C_23
REMARK    7  A    between atoms: C_24  and  C_25
REMARK                            x       y       z     vdW  Elec       q    Type
REMARK                         _______ _______ _______ _____ _____    ______ ____
ROOT
ATOM      1  C   UNL     1       6.523   5.271  16.695  0.00  0.00    +0.000 C 
ATOM      2  N   UNL     1       6.402   4.063  17.484  0.00  0.00    +0.000 N 
ATOM      3  C   UNL     1       5.098   3.693  17.706  0.00  0.00    +0.000 C 
ATOM      4  O   UNL     1       4.787   2.686  18.315  0.00  0.00    +0.000 OA
ATOM      5  N   UNL     1       4.278   4.624  17.153  0.00  0.00    +0.000 N 
ATOM      6  C   UNL     1       5.014   5.611  16.553  0.00  0.00    +0.000 C 
ATOM      7  O   UNL     1       4.563   6.589  15.970  0.00  0.00    +0.000 OA
ATOM      8  H   UNL     1       7.170   3.482  17.789  0.00  0.00    +0.000 HD
ENDROOT
BRANCH   1   9
ATOM      9  C   UNL     1       7.285   6.379  17.434  0.00  0.00    +0.000 A 
ATOM     10  C   UNL     1       7.384   7.668  16.869  0.00  0.00    +0.000 A 
ATOM     11  C   UNL     1       8.065   8.697  17.528  0.00  0.00    +0.000 A 
ATOM     12  C   UNL     1       8.647   8.454  18.762  0.00  0.00    +0.000 A 
ATOM     13  F   UNL     1       9.286   9.441  19.402  0.00  0.00    +0.000 F 
ATOM     14  C   UNL     1       8.569   7.198  19.347  0.00  0.00    +0.000 A 
ATOM     15  C   UNL     1       7.893   6.167  18.688  0.00  0.00    +0.000 A 
ENDBRANCH   1   9
BRANCH   1  17
ATOM     16  C   UNL     1       6.283   4.099  14.393  0.00  0.00    +0.000 C 
ATOM     17  C   UNL     1       7.153   4.943  15.324  0.00  0.00    +0.000 C 
ENDBRANCH   1  17
BRANCH   5  18
ATOM     18  C   UNL     1       2.833   4.633  17.239  0.00  0.00    +0.000 C 
BRANCH  18  19
ATOM     19  C   UNL     1       2.378   5.100  18.602  0.00  0.00    +0.000 A 
ATOM     20  C   UNL     1       2.201   4.217  19.601  0.00  0.00    +0.000 A 
ATOM     21  C   UNL     1       1.703   4.576  20.933  0.00  0.00    +0.000 A 
ATOM     22  O   UNL     1       1.496   3.720  21.783  0.00  0.00    +0.000 OA
ATOM     23  O   UNL     1       1.492   5.921  21.167  0.00  0.00    +0.000 OA
ATOM     24  C   UNL     1       1.631   6.894  20.149  0.00  0.00    +0.000 A 
ATOM     25  C   UNL     1       1.324   8.228  20.496  0.00  0.00    +0.000 A 
ATOM     26  C   UNL     1       0.962   8.593  21.911  0.00  0.00    +0.000 C 
ATOM     27  C   UNL     1       1.391   9.212  19.492  0.00  0.00    +0.000 A 
ATOM     28  C   UNL     1       1.066  10.662  19.722  0.00  0.00    +0.000 C 
ATOM     29  C   UNL     1       1.770   8.836  18.196  0.00  0.00    +0.000 A 
ATOM     30  C   UNL     1       2.098   7.512  17.891  0.00  0.00    +0.000 A 
ATOM     31  C   UNL     1       2.037   6.512  18.863  0.00  0.00    +0.000 A 
ENDBRANCH  18  19
ENDBRANCH   5  18
TORSDOF 4
ENDMDL
MODEL 4
REMARK VINA RESULT:      -7.7      3.567      5.933
REMARK  Name = 
REMARK  7 active torsions:
REMARK  status: ('A' for Active; 'I' for Inactive)
REMARK    1  A    between atoms: C_1  and  C_2
REMARK    2  A    between atoms: C_2  and  C_3
REMARK    3  A    between atoms: C_3  and  C_4
REMARK    4  A    between atoms: N_14  and  C_15
REMARK    5  A    between atoms: C_15  and  C_16
REMARK    6  A    between atoms: C_22  and  C_23
REMARK    7  A    between atoms: C_24  and  C_25
REMARK                            x       y       z     vdW  Elec       q    Type
REMARK                         _______ _______ _______ _____ _____    ______ ____
ROOT
ATOM      1  C   UNL     1      -0.701  10.371  18.828  0.00  0.00    +0.000 C 
ATOM      2  N   UNL     1       0.271  10.343  17.756  0.00  0.00    +0.000 N 
ATOM      3  C   UNL     1       1.388   9.604  18.060  0.00  0.00    +0.000 C 
ATOM      4  O   UNL     1       2.303   9.428  17.277  0.00  0.00    +0.000 OA
ATOM      5  N   UNL     1       1.278   9.148  19.335  0.00  0.00    +0.000 N 
ATOM      6  C   UNL     1       0.095   9.562  19.888  0.00  0.00    +0.000 C 
ATOM      7  O   UNL     1      -0.292   9.314  21.023  0.00  0.00    +0.000 OA
ATOM      8  H   UNL     1       0.143  10.744  16.838  0.00  0.00    +0.000 HD
ENDROOT
BRANCH   1   9
ATOM      9  C   UNL     1      -0.999  11.797  19.311  0.00  0.00    +0.000 A 
ATOM     10  C   UNL     1      -0.113  12.850  19.001  0.00  0.00    +0.000 A 
ATOM     11  C   UNL     1      -0.368  14.159  19.421  0.00  0.00    +0.000 A 
ATOM     12  C   UNL     1      -1.515  14.434  20.150  0.00  0.00    +0.000 A 
ATOM     13  F   UNL     1      -1.769  15.689  20.539  0.00  0.00    +0.000 F 
ATOM     14  C   UNL     1      -2.408  13.423  20.473  0.00  0.00    +0.000 A 
ATOM     15  C   UNL     1      -2.152  12.112  20.058  0.00  0.00    +0.000 A 
ENDBRANCH   1   9
BRANCH   1  17
ATOM     16  C   UNL     1      -2.448   9.895  16.970  0.00  0.00    +0.000 C 
ATOM     17  C   UNL     1      -1.980   9.620  18.398  0.00  0.00    +0.000 C 
ENDBRANCH   1  17
BRANCH   5  18
ATOM     18  C   UNL     1       2.285   8.395  20.052  0.00  0.00    +0.000 C 
BRANCH  18  19
ATOM     19  C   UNL     1       2.243   6.935  19.666  0.00  0.00    +0.000 A 
ATOM     20  C   UNL     1       1.456   6.076  20.338  0.00  0.00    +0.000 A 
ATOM     21  C   UNL     1       1.402   4.634  20.070  0.00  0.00    +0.000 A 
ATOM     22  O   UNL     1       0.718   3.888  20.760  0.00  0.00    +0.000 OA
ATOM     23  O   UNL     1       2.154   4.180  19.005  0.00  0.00    +0.000 OA
ATOM     24  C   UNL     1       3.024   5.029  18.280  0.00  0.00    +0.000 A 
ATOM     25  C   UNL     1       3.788   4.431  17.253  0.00  0.00    +0.000 A 
ATOM     26  C   UNL     1       3.602   2.980  16.898  0.00  0.00    +0.000 C 
ATOM     27  C   UNL     1       4.709   5.232  16.553  0.00  0.00    +0.000 A 
ATOM     28  C   UNL     1       5.600   4.716  15.457  0.00  0.00    +0.000 C 
ATOM     29  C   UNL     1       4.824   6.588  16.890  0.00  0.00    +0.000 A 
ATOM     30  C   UNL     1       4.031   7.158  17.890  0.00  0.00    +0.000 A 
ATOM     31  C   UNL     1       3.111   6.389  18.606  0.00  0.00    +0.000 A 
ENDBRANCH  18  19
ENDBRANCH   5  18
TORSDOF 4
ENDMDL
MODEL 5
REMARK VINA RESULT:      -7.5      5.548      8.857
REMARK  Name = 
REMARK  7 active torsions:
REMARK  status: ('A' for Active; 'I' for Inactive)
REMARK    1  A    between atoms: C_1  and  C_2
REMARK    2  A    between atoms: C_2  and  C_3
REMARK    3  A    between atoms: C_3  and  C_4
REMARK    4  A    between atoms: N_14  and  C_15
REMARK    5  A    between atoms: C_15  and  C_16
REMARK    6  A    between atoms: C_22  and  C_23
REMARK    7  A    between atoms: C_24  and  C_25
REMARK                            x       y       z     vdW  Elec       q    Type
REMARK                         _______ _______ _______ _____ _____    ______ ____
ROOT
ATOM      1  C   UNL     1      -1.091  14.093  20.828  0.00  0.00    +0.000 C 
ATOM      2  N   UNL     1       0.248  14.090  21.381  0.00  0.00    +0.000 N 
ATOM      3  C   UNL     1       1.088  13.204  20.752  0.00  0.00    +0.000 C 
ATOM      4  O   UNL     1       2.263  13.080  21.046  0.00  0.00    +0.000 OA
ATOM      5  N   UNL     1       0.386  12.530  19.804  0.00  0.00    +0.000 N 
ATOM      6  C   UNL     1      -0.915  12.959  19.782  0.00  0.00    +0.000 C 
ATOM      7  O   UNL     1      -1.795  12.542  19.039  0.00  0.00    +0.000 OA
ATOM      8  H   UNL     1       0.587  14.714  22.099  0.00  0.00    +0.000 HD
ENDROOT
BRANCH   1   9
ATOM      9  C   UNL     1      -2.157  13.738  21.873  0.00  0.00    +0.000 A 
ATOM     10  C   UNL     1      -3.235  14.617  22.111  0.00  0.00    +0.000 A 
ATOM     11  C   UNL     1      -4.224  14.311  23.051  0.00  0.00    +0.000 A 
ATOM     12  C   UNL     1      -4.154  13.121  23.759  0.00  0.00    +0.000 A 
ATOM     13  F   UNL     1      -5.108  12.819  24.647  0.00  0.00    +0.000 F 
ATOM     14  C   UNL     1      -3.107  12.234  23.550  0.00  0.00    +0.000 A 
ATOM     15  C   UNL     1      -2.115  12.540  22.613  0.00  0.00    +0.000 A 
ENDBRANCH   1   9
BRANCH   1  17
ATOM     16  C   UNL     1      -0.386  15.838  19.042  0.00  0.00    +0.000 C 
ATOM     17  C   UNL     1      -1.373  15.447  20.141  0.00  0.00    +0.000 C 
ENDBRANCH   1  17
BRANCH   5  18
ATOM     18  C   UNL     1       0.897  11.457  18.980  0.00  0.00    +0.000 C 
BRANCH  18  19
ATOM     19  C   UNL     1       0.934  10.156  19.749  0.00  0.00    +0.000 A 
ATOM     20  C   UNL     1       0.363  10.068  20.963  0.00  0.00    +0.000 A 
ATOM     21  C   UNL     1       0.406   8.865  21.802  0.00  0.00    +0.000 A 
ATOM     22  O   UNL     1      -0.072   8.862  22.930  0.00  0.00    +0.000 OA
ATOM     23  O   UNL     1       1.004   7.751  21.247  0.00  0.00    +0.000 OA
ATOM     24  C   UNL     1       1.648   7.790  19.987  0.00  0.00    +0.000 A 
ATOM     25  C   UNL     1       2.278   6.602  19.557  0.00  0.00    +0.000 A 
ATOM     26  C   UNL     1       2.178   5.338  20.367  0.00  0.00    +0.000 C 
ATOM     27  C   UNL     1       2.982   6.623  18.338  0.00  0.00    +0.000 A 
ATOM     28  C   UNL     1       3.717   5.436  17.778  0.00  0.00    +0.000 C 
ATOM     29  C   UNL     1       3.019   7.811  17.595  0.00  0.00    +0.000 A 
ATOM     30  C   UNL     1       2.358   8.962  18.032  0.00  0.00    +0.000 A 
ATOM     31  C   UNL     1       1.656   8.975  19.240  0.00  0.00    +0.000 A 
ENDBRANCH  18  19
ENDBRANCH   5  18
TORSDOF 4
ENDMDL
MODEL 6
REMARK VINA RESULT:      -7.4      6.341     11.122
REMARK  Name = 
REMARK  7 active torsions:
REMARK  status: ('A' for Active; 'I' for Inactive)
REMARK    1  A    between atoms: C_1  and  C_2
REMARK    2  A    between atoms: C_2  and  C_3
REMARK    3  A    between atoms: C_3  and  C_4
REMARK    4  A    between atoms: N_14  and  C_15
REMARK    5  A    between atoms: C_15  and  C_16
REMARK    6  A    between atoms: C_22  and  C_23
REMARK    7  A    between atoms: C_24  and  C_25
REMARK                            x       y       z     vdW  Elec       q    Type
REMARK                         _______ _______ _______ _____ _____    ______ ____
ROOT
ATOM      1  C   UNL     1       0.585   9.601  20.692  0.00  0.00    +0.000 C 
ATOM      2  N   UNL     1       1.376  10.672  21.262  0.00  0.00    +0.000 N 
ATOM      3  C   UNL     1       0.909  11.920  20.931  0.00  0.00    +0.000 C 
ATOM      4  O   UNL     1       1.413  12.949  21.341  0.00  0.00    +0.000 OA
ATOM      5  N   UNL     1      -0.156  11.784  20.097  0.00  0.00    +0.000 N 
ATOM      6  C   UNL     1      -0.416  10.458  19.871  0.00  0.00    +0.000 C 
ATOM      7  O   UNL     1      -1.310  10.014  19.163  0.00  0.00    +0.000 OA
ATOM      8  H   UNL     1       2.146  10.554  21.904  0.00  0.00    +0.000 HD
ENDROOT
BRANCH   1   9
ATOM      9  C   UNL     1       1.413   8.678  19.788  0.00  0.00    +0.000 A 
ATOM     10  C   UNL     1       1.742   9.080  18.476  0.00  0.00    +0.000 A 
ATOM     11  C   UNL     1       2.505   8.262  17.637  0.00  0.00    +0.000 A 
ATOM     12  C   UNL     1       2.954   7.035  18.101  0.00  0.00    +0.000 A 
ATOM     13  F   UNL     1       3.698   6.256  17.304  0.00  0.00    +0.000 F 
ATOM     14  C   UNL     1       2.649   6.608  19.385  0.00  0.00    +0.000 A 
ATOM     15  C   UNL     1       1.884   7.423  20.224  0.00  0.00    +0.000 A 
ENDBRANCH   1   9
BRANCH   1  17
ATOM     16  C   UNL     1      -0.401   9.622  23.092  0.00  0.00    +0.000 C 
ATOM     17  C   UNL     1      -0.136   8.824  21.816  0.00  0.00    +0.000 C 
ENDBRANCH   1  17
BRANCH   5  18
ATOM     18  C   UNL     1      -0.876  12.868  19.466  0.00  0.00    +0.000 C 
BRANCH  18  19
ATOM     19  C   UNL     1      -2.006  13.349  20.346  0.00  0.00    +0.000 A 
ATOM     20  C   UNL     1      -1.752  14.125  21.415  0.00  0.00    +0.000 A 
ATOM     21  C   UNL     1      -2.781  14.584  22.356  0.00  0.00    +0.000 A 
ATOM     22  O   UNL     1      -2.483  15.233  23.351  0.00  0.00    +0.000 OA
ATOM     23  O   UNL     1      -4.085  14.251  22.049  0.00  0.00    +0.000 OA
ATOM     24  C   UNL     1      -4.412  13.413  20.957  0.00  0.00    +0.000 A 
ATOM     25  C   UNL     1      -5.777  13.093  20.786  0.00  0.00    +0.000 A 
ATOM     26  C   UNL     1      -6.829  13.700  21.675  0.00  0.00    +0.000 C 
ATOM     27  C   UNL     1      -6.131  12.211  19.747  0.00  0.00    +0.000 A 
ATOM     28  C   UNL     1      -7.542  11.769  19.473  0.00  0.00    +0.000 C 
ATOM     29  C   UNL     1      -5.124  11.698  18.919  0.00  0.00    +0.000 A 
ATOM     30  C   UNL     1      -3.786  12.059  19.093  0.00  0.00    +0.000 A 
ATOM     31  C   UNL     1      -3.401  12.927  20.117  0.00  0.00    +0.000 A 
ENDBRANCH  18  19
ENDBRANCH   5  18
TORSDOF 4
ENDMDL
MODEL 7
REMARK VINA RESULT:      -7.3      6.547     11.757
REMARK  Name = 
REMARK  7 active torsions:
REMARK  status: ('A' for Active; 'I' for Inactive)
REMARK    1  A    between atoms: C_1  and  C_2
REMARK    2  A    between atoms: C_2  and  C_3
REMARK    3  A    between atoms: C_3  and  C_4
REMARK    4  A    between atoms: N_14  and  C_15
REMARK    5  A    between atoms: C_15  and  C_16
REMARK    6  A    between atoms: C_22  and  C_23
REMARK    7  A    between atoms: C_24  and  C_25
REMARK                            x       y       z     vdW  Elec       q    Type
REMARK                         _______ _______ _______ _____ _____    ______ ____
ROOT
ATOM      1  C   UNL     1       0.374   9.687  20.701  0.00  0.00    +0.000 C 
ATOM      2  N   UNL     1       1.084  10.785  21.323  0.00  0.00    +0.000 N 
ATOM      3  C   UNL     1       0.544  12.013  21.025  0.00  0.00    +0.000 C 
ATOM      4  O   UNL     1       0.974  13.056  21.481  0.00  0.00    +0.000 OA
ATOM      5  N   UNL     1      -0.493  11.839  20.165  0.00  0.00    +0.000 N 
ATOM      6  C   UNL     1      -0.664  10.508  19.889  0.00  0.00    +0.000 C 
ATOM      7  O   UNL     1      -1.515  10.034  19.147  0.00  0.00    +0.000 OA
ATOM      8  H   UNL     1       1.848  10.694  21.977  0.00  0.00    +0.000 HD
ENDROOT
BRANCH   1   9
ATOM      9  C   UNL     1       1.276   8.852  19.784  0.00  0.00    +0.000 A 
ATOM     10  C   UNL     1       1.794   7.618  20.232  0.00  0.00    +0.000 A 
ATOM     11  C   UNL     1       2.610   6.833  19.411  0.00  0.00    +0.000 A 
ATOM     12  C   UNL     1       2.914   7.267  18.130  0.00  0.00    +0.000 A 
ATOM     13  F   UNL     1       3.682   6.510  17.337  0.00  0.00    +0.000 F 
ATOM     14  C   UNL     1       2.422   8.475  17.657  0.00  0.00    +0.000 A 
ATOM     15  C   UNL     1       1.609   9.263  18.478  0.00  0.00    +0.000 A 
ENDBRANCH   1   9
BRANCH   1  17
ATOM     16  C   UNL     1      -0.276   9.404  23.197  0.00  0.00    +0.000 C 
ATOM     17  C   UNL     1      -0.317   8.827  21.782  0.00  0.00    +0.000 C 
ENDBRANCH   1  17
BRANCH   5  18
ATOM     18  C   UNL     1      -1.270  12.897  19.556  0.00  0.00    +0.000 C 
BRANCH  18  19
ATOM     19  C   UNL     1      -2.643  12.987  20.181  0.00  0.00    +0.000 A 
ATOM     20  C   UNL     1      -3.691  12.363  19.614  0.00  0.00    +0.000 A 
ATOM     21  C   UNL     1      -5.065  12.449  20.120  0.00  0.00    +0.000 A 
ATOM     22  O   UNL     1      -5.993  11.916  19.524  0.00  0.00    +0.000 OA
ATOM     23  O   UNL     1      -5.244  13.151  21.295  0.00  0.00    +0.000 OA
ATOM     24  C   UNL     1      -4.187  13.854  21.922  0.00  0.00    +0.000 A 
ATOM     25  C   UNL     1      -4.511  14.588  23.085  0.00  0.00    +0.000 A 
ATOM     26  C   UNL     1      -5.897  14.536  23.668  0.00  0.00    +0.000 C 
ATOM     27  C   UNL     1      -3.497  15.348  23.697  0.00  0.00    +0.000 A 
ATOM     28  C   UNL     1      -3.714  16.193  24.923  0.00  0.00    +0.000 C 
ATOM     29  C   UNL     1      -2.211  15.338  23.143  0.00  0.00    +0.000 A 
ATOM     30  C   UNL     1      -1.914  14.576  22.010  0.00  0.00    +0.000 A 
ATOM     31  C   UNL     1      -2.897  13.815  21.375  0.00  0.00    +0.000 A 
ENDBRANCH  18  19
ENDBRANCH   5  18
TORSDOF 4
ENDMDL
MODEL 8
REMARK VINA RESULT:      -7.3      8.523     10.967
REMARK  Name = 
REMARK  7 active torsions:
REMARK  status: ('A' for Active; 'I' for Inactive)
REMARK    1  A    between atoms: C_1  and  C_2
REMARK    2  A    between atoms: C_2  and  C_3
REMARK    3  A    between atoms: C_3  and  C_4
REMARK    4  A    between atoms: N_14  and  C_15
REMARK    5  A    between atoms: C_15  and  C_16
REMARK    6  A    between atoms: C_22  and  C_23
REMARK    7  A    between atoms: C_24  and  C_25
REMARK                            x       y       z     vdW  Elec       q    Type
REMARK                         _______ _______ _______ _____ _____    ______ ____
ROOT
ATOM      1  C   UNL     1       1.929  14.713  20.198  0.00  0.00    +0.000 C 
ATOM      2  N   UNL     1       1.327  14.982  21.487  0.00  0.00    +0.000 N 
ATOM      3  C   UNL     1       0.528  13.958  21.933  0.00  0.00    +0.000 C 
ATOM      4  O   UNL     1      -0.036  13.976  23.011  0.00  0.00    +0.000 OA
ATOM      5  N   UNL     1       0.489  12.987  20.984  0.00  0.00    +0.000 N 
ATOM      6  C   UNL     1       1.261  13.341  19.908  0.00  0.00    +0.000 C 
ATOM      7  O   UNL     1       1.425  12.676  18.894  0.00  0.00    +0.000 OA
ATOM      8  H   UNL     1       1.514  15.789  22.064  0.00  0.00    +0.000 HD
ENDROOT
BRANCH   1   9
ATOM      9  C   UNL     1       1.548  15.761  19.144  0.00  0.00    +0.000 A 
ATOM     10  C   UNL     1       0.201  16.153  18.989  0.00  0.00    +0.000 A 
ATOM     11  C   UNL     1      -0.169  17.114  18.042  0.00  0.00    +0.000 A 
ATOM     12  C   UNL     1       0.802  17.700  17.244  0.00  0.00    +0.000 A 
ATOM     13  F   UNL     1       0.451  18.631  16.349  0.00  0.00    +0.000 F 
ATOM     14  C   UNL     1       2.135  17.338  17.370  0.00  0.00    +0.000 A 
ATOM     15  C   UNL     1       2.507  16.374  18.313  0.00  0.00    +0.000 A 
ENDBRANCH   1   9
BRANCH   1  17
ATOM     16  C   UNL     1       4.035  15.094  21.665  0.00  0.00    +0.000 C 
ATOM     17  C   UNL     1       3.459  14.567  20.351  0.00  0.00    +0.000 C 
ENDBRANCH   1  17
BRANCH   5  18
ATOM     18  C   UNL     1      -0.306  11.780  21.045  0.00  0.00    +0.000 C 
BRANCH  18  19
ATOM     19  C   UNL     1      -1.669  12.000  20.430  0.00  0.00    +0.000 A 
ATOM     20  C   UNL     1      -2.611  12.693  21.094  0.00  0.00    +0.000 A 
ATOM     21  C   UNL     1      -3.976  12.901  20.598  0.00  0.00    +0.000 A 
ATOM     22  O   UNL     1      -4.814  13.482  21.277  0.00  0.00    +0.000 OA
ATOM     23  O   UNL     1      -4.251  12.414  19.336  0.00  0.00    +0.000 OA
ATOM     24  C   UNL     1      -3.312  11.651  18.601  0.00  0.00    +0.000 A 
ATOM     25  C   UNL     1      -3.735  11.154  17.348  0.00  0.00    +0.000 A 
ATOM     26  C   UNL     1      -5.089  11.509  16.795  0.00  0.00    +0.000 C 
ATOM     27  C   UNL     1      -2.849  10.340  16.619  0.00  0.00    +0.000 A 
ATOM     28  C   UNL     1      -3.183   9.727  15.287  0.00  0.00    +0.000 C 
ATOM     29  C   UNL     1      -1.583  10.065  17.154  0.00  0.00    +0.000 A 
ATOM     30  C   UNL     1      -1.181  10.598  18.381  0.00  0.00    +0.000 A 
ATOM     31  C   UNL     1      -2.039  11.405  19.132  0.00  0.00    +0.000 A 
ENDBRANCH  18  19
ENDBRANCH   5  18
TORSDOF 4
ENDMDL
MODEL 9
REMARK VINA RESULT:      -7.3      6.459     10.833
REMARK  Name = 
REMARK  7 active torsions:
REMARK  status: ('A' for Active; 'I' for Inactive)
REMARK    1  A    between atoms: C_1  and  C_2
REMARK    2  A    between atoms: C_2  and  C_3
REMARK    3  A    between atoms: C_3  and  C_4
REMARK    4  A    between atoms: N_14  and  C_15
REMARK    5  A    between atoms: C_15  and  C_16
REMARK    6  A    between atoms: C_22  and  C_23
REMARK    7  A    between atoms: C_24  and  C_25
REMARK                            x       y       z     vdW  Elec       q    Type
REMARK                         _______ _______ _______ _____ _____    ______ ____
ROOT
ATOM      1  C   UNL     1       0.025  10.227  19.588  0.00  0.00    +0.000 C 
ATOM      2  N   UNL     1      -0.352  10.153  20.984  0.00  0.00    +0.000 N 
ATOM      3  C   UNL     1      -0.123  11.323  21.666  0.00  0.00    +0.000 C 
ATOM      4  O   UNL     1      -0.407  11.475  22.840  0.00  0.00    +0.000 OA
ATOM      5  N   UNL     1       0.457  12.216  20.823  0.00  0.00    +0.000 N 
ATOM      6  C   UNL     1       0.613  11.664  19.578  0.00  0.00    +0.000 C 
ATOM      7  O   UNL     1       1.106  12.218  18.605  0.00  0.00    +0.000 OA
ATOM      8  H   UNL     1      -0.811   9.370  21.427  0.00  0.00    +0.000 HD
ENDROOT
BRANCH   1   9
ATOM      9  C   UNL     1       1.082   9.181  19.211  0.00  0.00    +0.000 A 
ATOM     10  C   UNL     1       1.455   8.185  20.138  0.00  0.00    +0.000 A 
ATOM     11  C   UNL     1       2.409   7.214  19.814  0.00  0.00    +0.000 A 
ATOM     12  C   UNL     1       2.996   7.222  18.558  0.00  0.00    +0.000 A 
ATOM     13  F   UNL     1       3.897   6.285  18.240  0.00  0.00    +0.000 F 
ATOM     14  C   UNL     1       2.653   8.187  17.622  0.00  0.00    +0.000 A 
ATOM     15  C   UNL     1       1.703   9.161  17.946  0.00  0.00    +0.000 A 
ENDBRANCH   1   9
BRANCH   1  17
ATOM     16  C   UNL     1      -2.164  11.345  18.755  0.00  0.00    +0.000 C 
ATOM     17  C   UNL     1      -1.234  10.133  18.698  0.00  0.00    +0.000 C 
ENDBRANCH   1  17
BRANCH   5  18
ATOM     18  C   UNL     1       0.923  13.538  21.184  0.00  0.00    +0.000 C 
BRANCH  18  19
ATOM     19  C   UNL     1      -0.095  14.590  20.806  0.00  0.00    +0.000 A 
ATOM     20  C   UNL     1      -1.317  14.586  21.367  0.00  0.00    +0.000 A 
ATOM     21  C   UNL     1      -2.382  15.531  21.013  0.00  0.00    +0.000 A 
ATOM     22  O   UNL     1      -3.499  15.438  21.506  0.00  0.00    +0.000 OA
ATOM     23  O   UNL     1      -2.050  16.519  20.108  0.00  0.00    +0.000 OA
ATOM     24  C   UNL     1      -0.791  16.558  19.462  0.00  0.00    +0.000 A 
ATOM     25  C   UNL     1      -0.595  17.582  18.509  0.00  0.00    +0.000 A 
ATOM     26  C   UNL     1      -1.650  18.630  18.275  0.00  0.00    +0.000 C 
ATOM     27  C   UNL     1       0.622  17.612  17.802  0.00  0.00    +0.000 A 
ATOM     28  C   UNL     1       0.947  18.631  16.745  0.00  0.00    +0.000 C 
ATOM     29  C   UNL     1       1.592  16.639  18.078  0.00  0.00    +0.000 A 
ATOM     30  C   UNL     1       1.381  15.658  19.050  0.00  0.00    +0.000 A 
ATOM     31  C   UNL     1       0.183  15.597  19.765  0.00  0.00    +0.000 A 
ENDBRANCH  18  19
ENDBRANCH   5  18
TORSDOF 4
ENDMDL
