MODEL 1
REMARK VINA RESULT:      -8.6      0.000      0.000
REMARK  Name = 
REMARK  5 active torsions:
REMARK  status: ('A' for Active; 'I' for Inactive)
REMARK    1  A    between atoms: C_2  and  C_3
REMARK    2  A    between atoms: C_6  and  C_7
REMARK    3  A    between atoms: C_7  and  N_8
REMARK    4  A    between atoms: C_9  and  C_11
REMARK    5  A    between atoms: C_11  and  C_12
REMARK                            x       y       z     vdW  Elec       q    Type
REMARK                         _______ _______ _______ _____ _____    ______ ____
ROOT
ATOM      1  N   UNL     1       2.195   6.421  19.938  0.00  0.00    +0.000 N 
ATOM      2  C   UNL     1       2.438   5.093  20.215  0.00  0.00    +0.000 C 
ATOM      3  O   UNL     1       2.208   4.611  21.325  0.00  0.00    +0.000 OA
ATOM      4  H   UNL     1       2.640   6.851  19.139  0.00  0.00    +0.000 HD
ENDROOT
BRANCH   2   5
ATOM      5  C   UNL     1       3.049   4.252  19.073  0.00  0.00    +0.000 C 
ATOM      6  C   UNL     1       1.998   3.752  18.048  0.00  0.00    +0.000 C 
ATOM      7  C   UNL     1       2.583   2.470  17.450  0.00  0.00    +0.000 C 
ATOM      8  C   UNL     1       3.554   1.928  18.492  0.00  0.00    +0.000 C 
ATOM      9  C   UNL     1       3.430   2.870  19.680  0.00  0.00    +0.000 C 
BRANCH   5  10
ATOM     10  C   UNL     1       4.240   4.995  18.434  0.00  0.00    +0.000 A 
ATOM     11  C   UNL     1       4.119   5.628  17.181  0.00  0.00    +0.000 A 
ATOM     12  C   UNL     1       5.172   6.363  16.623  0.00  0.00    +0.000 A 
ATOM     13  C   UNL     1       6.387   6.455  17.292  0.00  0.00    +0.000 A 
ATOM     14  C   UNL     1       6.549   5.793  18.502  0.00  0.00    +0.000 A 
ATOM     15 CL   UNL     1       8.060   5.881  19.325  0.00  0.00    +0.000 Cl
ATOM     16  C   UNL     1       5.496   5.062  19.065  0.00  0.00    +0.000 A 
ENDBRANCH   5  10
ENDBRANCH   2   5
BRANCH   1  17
ATOM     17  C   UNL     1       1.662   7.285  20.968  0.00  0.00    +0.000 C 
BRANCH  17  21
ATOM     18  C   UNL     1       0.203  11.015  19.346  0.00  0.00    +0.000 A 
ATOM     19  C   UNL     1      -0.147  10.635  20.646  0.00  0.00    +0.000 A 
ATOM     20  C   UNL     1       0.311   9.420  21.168  0.00  0.00    +0.000 A 
ATOM     21  C   UNL     1       1.134   8.573  20.401  0.00  0.00    +0.000 A 
ATOM     22  C   UNL     1       1.480   8.965  19.106  0.00  0.00    +0.000 A 
ATOM     23  C   UNL     1       1.050  10.192  18.599  0.00  0.00    +0.000 A 
BRANCH  18  25
ATOM     24  O   UNL     1      -1.200  12.352  18.046  0.00  0.00    +0.000 OA
ATOM     25  C   UNL     1      -0.242  12.332  18.816  0.00  0.00    +0.000 C 
ATOM     26  N   UNL     1       0.429  13.482  19.213  0.00  0.00    +0.000 N 
ATOM     27  C   UNL     1      -0.042  14.793  18.797  0.00  0.00    +0.000 C 
ATOM     28  C   UNL     1       1.224  15.626  18.672  0.00  0.00    +0.000 C 
ATOM     29  C   UNL     1       2.123  15.050  19.754  0.00  0.00    +0.000 C 
ATOM     30  C   UNL     1       1.781  13.566  19.754  0.00  0.00    +0.000 C 
ENDBRANCH  18  25
ENDBRANCH  17  21
ENDBRANCH   1  17
TORSDOF 5
ENDMDL
MODEL 2
REMARK VINA RESULT:      -8.4      0.568      1.055
REMARK  Name = 
REMARK  5 active torsions:
REMARK  status: ('A' for Active; 'I' for Inactive)
REMARK    1  A    between atoms: C_2  and  C_3
REMARK    2  A    between atoms: C_6  and  C_7
REMARK    3  A    between atoms: C_7  and  N_8
REMARK    4  A    between atoms: C_9  and  C_11
REMARK    5  A    between atoms: C_11  and  C_12
REMARK                            x       y       z     vdW  Elec       q    Type
REMARK                         _______ _______ _______ _____ _____    ______ ____
ROOT
ATOM      1  N   UNL     1       2.340   6.265  20.232  0.00  0.00    +0.000 N 
ATOM      2  C   UNL     1       1.903   4.980  19.994  0.00  0.00    +0.000 C 
ATOM      3  O   UNL     1       0.912   4.519  20.562  0.00  0.00    +0.000 OA
ATOM      4  H   UNL     1       3.284   6.523  19.984  0.00  0.00    +0.000 HD
ENDROOT
BRANCH   2   5
ATOM      5  C   UNL     1       2.742   4.138  19.009  0.00  0.00    +0.000 C 
ATOM      6  C   UNL     1       1.895   3.474  17.893  0.00  0.00    +0.000 C 
ATOM      7  C   UNL     1       2.673   2.225  17.472  0.00  0.00    +0.000 C 
ATOM      8  C   UNL     1       3.535   1.847  18.671  0.00  0.00    +0.000 C 
ATOM      9  C   UNL     1       3.159   2.841  19.760  0.00  0.00    +0.000 C 
BRANCH   5  10
ATOM     10  C   UNL     1       3.936   4.958  18.481  0.00  0.00    +0.000 A 
ATOM     11  C   UNL     1       3.815   5.776  17.339  0.00  0.00    +0.000 A 
ATOM     12  C   UNL     1       4.872   6.577  16.892  0.00  0.00    +0.000 A 
ATOM     13  C   UNL     1       6.092   6.555  17.557  0.00  0.00    +0.000 A 
ATOM     14  C   UNL     1       6.254   5.715  18.652  0.00  0.00    +0.000 A 
ATOM     15 CL   UNL     1       7.770   5.662  19.467  0.00  0.00    +0.000 Cl
ATOM     16  C   UNL     1       5.197   4.917  19.105  0.00  0.00    +0.000 A 
ENDBRANCH   5  10
ENDBRANCH   2   5
BRANCH   1  17
ATOM     17  C   UNL     1       1.631   7.104  21.174  0.00  0.00    +0.000 C 
BRANCH  17  21
ATOM     18  C   UNL     1       0.733  11.001  19.539  0.00  0.00    +0.000 A 
ATOM     19  C   UNL     1       1.296  10.015  18.722  0.00  0.00    +0.000 A 
ATOM     20  C   UNL     1       1.602   8.757  19.253  0.00  0.00    +0.000 A 
ATOM     21  C   UNL     1       1.340   8.464  20.605  0.00  0.00    +0.000 A 
ATOM     22  C   UNL     1       0.775   9.456  21.410  0.00  0.00    +0.000 A 
ATOM     23  C   UNL     1       0.439  10.699  20.872  0.00  0.00    +0.000 A 
BRANCH  18  25
ATOM     24  O   UNL     1      -0.631  12.370  18.231  0.00  0.00    +0.000 OA
ATOM     25  C   UNL     1       0.359  12.319  18.957  0.00  0.00    +0.000 C 
ATOM     26  N   UNL     1       1.132  13.434  19.257  0.00  0.00    +0.000 N 
ATOM     27  C   UNL     1       0.738  14.753  18.791  0.00  0.00    +0.000 C 
ATOM     28  C   UNL     1       2.053  15.481  18.561  0.00  0.00    +0.000 C 
ATOM     29  C   UNL     1       2.960  14.896  19.632  0.00  0.00    +0.000 C 
ATOM     30  C   UNL     1       2.512  13.444  19.731  0.00  0.00    +0.000 C 
ENDBRANCH  18  25
ENDBRANCH  17  21
ENDBRANCH   1  17
TORSDOF 5
ENDMDL
MODEL 3
REMARK VINA RESULT:      -8.3      0.974      1.320
REMARK  Name = 
REMARK  5 active torsions:
REMARK  status: ('A' for Active; 'I' for Inactive)
REMARK    1  A    between atoms: C_2  and  C_3
REMARK    2  A    between atoms: C_6  and  C_7
REMARK    3  A    between atoms: C_7  and  N_8
REMARK    4  A    between atoms: C_9  and  C_11
REMARK    5  A    between atoms: C_11  and  C_12
REMARK                            x       y       z     vdW  Elec       q    Type
REMARK                         _______ _______ _______ _____ _____    ______ ____
ROOT
ATOM      1  N   UNL     1       2.144   6.387  20.023  0.00  0.00    +0.000 N 
ATOM      2  C   UNL     1       2.400   5.068  20.328  0.00  0.00    +0.000 C 
ATOM      3  O   UNL     1       2.196   4.613  21.455  0.00  0.00    +0.000 OA
ATOM      4  H   UNL     1       2.569   6.799  19.205  0.00  0.00    +0.000 HD
ENDROOT
BRANCH   2   5
ATOM      5  C   UNL     1       2.991   4.200  19.196  0.00  0.00    +0.000 C 
ATOM      6  C   UNL     1       1.932   3.733  18.163  0.00  0.00    +0.000 C 
ATOM      7  C   UNL     1       2.477   2.429  17.575  0.00  0.00    +0.000 C 
ATOM      8  C   UNL     1       3.419   1.858  18.628  0.00  0.00    +0.000 C 
ATOM      9  C   UNL     1       3.317   2.809  19.811  0.00  0.00    +0.000 C 
BRANCH   5  10
ATOM     10  C   UNL     1       4.212   4.898  18.564  0.00  0.00    +0.000 A 
ATOM     11  C   UNL     1       5.452   4.951  19.232  0.00  0.00    +0.000 A 
ATOM     12  C   UNL     1       6.584   5.522  18.639  0.00  0.00    +0.000 A 
ATOM     13  C   UNL     1       6.497   6.085  17.371  0.00  0.00    +0.000 A 
ATOM     14  C   UNL     1       5.273   6.094  16.715  0.00  0.00    +0.000 A 
ATOM     15 CL   UNL     1       5.150   6.813  15.154  0.00  0.00    +0.000 Cl
ATOM     16  C   UNL     1       4.140   5.520  17.303  0.00  0.00    +0.000 A 
ENDBRANCH   5  10
ENDBRANCH   2   5
BRANCH   1  17
ATOM     17  C   UNL     1       1.629   7.274  21.042  0.00  0.00    +0.000 C 
BRANCH  17  21
ATOM     18  C   UNL     1       0.266  11.022  19.378  0.00  0.00    +0.000 A 
ATOM     19  C   UNL     1      -0.120  10.651  20.670  0.00  0.00    +0.000 A 
ATOM     20  C   UNL     1       0.307   9.430  21.206  0.00  0.00    +0.000 A 
ATOM     21  C   UNL     1       1.135   8.569  20.461  0.00  0.00    +0.000 A 
ATOM     22  C   UNL     1       1.517   8.953  19.173  0.00  0.00    +0.000 A 
ATOM     23  C   UNL     1       1.119  10.185  18.653  0.00  0.00    +0.000 A 
BRANCH  18  25
ATOM     24  O   UNL     1      -1.086  12.378  18.044  0.00  0.00    +0.000 OA
ATOM     25  C   UNL     1      -0.146  12.345  18.835  0.00  0.00    +0.000 C 
ATOM     26  N   UNL     1       0.537  13.485  19.242  0.00  0.00    +0.000 N 
ATOM     27  C   UNL     1       0.097  14.802  18.813  0.00  0.00    +0.000 C 
ATOM     28  C   UNL     1       1.379  15.614  18.712  0.00  0.00    +0.000 C 
ATOM     29  C   UNL     1       2.244  15.026  19.815  0.00  0.00    +0.000 C 
ATOM     30  C   UNL     1       1.878  13.548  19.812  0.00  0.00    +0.000 C 
ENDBRANCH  18  25
ENDBRANCH  17  21
ENDBRANCH   1  17
TORSDOF 5
ENDMDL
MODEL 4
REMARK VINA RESULT:      -8.3      1.828      2.841
REMARK  Name = 
REMARK  5 active torsions:
REMARK  status: ('A' for Active; 'I' for Inactive)
REMARK    1  A    between atoms: C_2  and  C_3
REMARK    2  A    between atoms: C_6  and  C_7
REMARK    3  A    between atoms: C_7  and  N_8
REMARK    4  A    between atoms: C_9  and  C_11
REMARK    5  A    between atoms: C_11  and  C_12
REMARK                            x       y       z     vdW  Elec       q    Type
REMARK                         _______ _______ _______ _____ _____    ______ ____
ROOT
ATOM      1  N   UNL     1       3.724   6.313  18.510  0.00  0.00    +0.000 N 
ATOM      2  C   UNL     1       3.801   5.338  17.539  0.00  0.00    +0.000 C 
ATOM      3  O   UNL     1       2.869   4.562  17.327  0.00  0.00    +0.000 OA
ATOM      4  H   UNL     1       4.572   6.741  18.853  0.00  0.00    +0.000 HD
ENDROOT
BRANCH   2   5
ATOM      5  C   UNL     1       5.130   5.245  16.760  0.00  0.00    +0.000 C 
ATOM      6  C   UNL     1       5.029   5.778  15.306  0.00  0.00    +0.000 C 
ATOM      7  C   UNL     1       6.108   5.032  14.518  0.00  0.00    +0.000 C 
ATOM      8  C   UNL     1       6.356   3.733  15.275  0.00  0.00    +0.000 C 
ATOM      9  C   UNL     1       5.355   3.743  16.421  0.00  0.00    +0.000 C 
BRANCH   5  10
ATOM     10  C   UNL     1       6.278   5.874  17.575  0.00  0.00    +0.000 A 
ATOM     11  C   UNL     1       6.923   5.158  18.604  0.00  0.00    +0.000 A 
ATOM     12  C   UNL     1       8.010   5.693  19.304  0.00  0.00    +0.000 A 
ATOM     13  C   UNL     1       8.462   6.975  19.014  0.00  0.00    +0.000 A 
ATOM     14  C   UNL     1       7.808   7.722  18.042  0.00  0.00    +0.000 A 
ATOM     15 CL   UNL     1       8.344   9.322  17.694  0.00  0.00    +0.000 Cl
ATOM     16  C   UNL     1       6.724   7.188  17.337  0.00  0.00    +0.000 A 
ENDBRANCH   5  10
ENDBRANCH   2   5
BRANCH   1  17
ATOM     17  C   UNL     1       2.527   6.438  19.312  0.00  0.00    +0.000 C 
BRANCH  17  21
ATOM     18  C   UNL     1       0.763  10.375  19.063  0.00  0.00    +0.000 A 
ATOM     19  C   UNL     1       1.309   9.781  17.919  0.00  0.00    +0.000 A 
ATOM     20  C   UNL     1       1.895   8.512  18.001  0.00  0.00    +0.000 A 
ATOM     21  C   UNL     1       1.933   7.816  19.224  0.00  0.00    +0.000 A 
ATOM     22  C   UNL     1       1.382   8.418  20.358  0.00  0.00    +0.000 A 
ATOM     23  C   UNL     1       0.768   9.667  20.269  0.00  0.00    +0.000 A 
BRANCH  18  25
ATOM     24  O   UNL     1      -1.082  11.727  18.600  0.00  0.00    +0.000 OA
ATOM     25  C   UNL     1       0.093  11.699  18.960  0.00  0.00    +0.000 C 
ATOM     26  N   UNL     1       0.811  12.846  19.276  0.00  0.00    +0.000 N 
ATOM     27  C   UNL     1       0.161  14.146  19.287  0.00  0.00    +0.000 C 
ATOM     28  C   UNL     1       1.250  15.116  18.858  0.00  0.00    +0.000 C 
ATOM     29  C   UNL     1       2.512  14.491  19.430  0.00  0.00    +0.000 C 
ATOM     30  C   UNL     1       2.263  12.994  19.301  0.00  0.00    +0.000 C 
ENDBRANCH  18  25
ENDBRANCH  17  21
ENDBRANCH   1  17
TORSDOF 5
ENDMDL
MODEL 5
REMARK VINA RESULT:      -8.2      2.529      3.134
REMARK  Name = 
REMARK  5 active torsions:
REMARK  status: ('A' for Active; 'I' for Inactive)
REMARK    1  A    between atoms: C_2  and  C_3
REMARK    2  A    between atoms: C_6  and  C_7
REMARK    3  A    between atoms: C_7  and  N_8
REMARK    4  A    between atoms: C_9  and  C_11
REMARK    5  A    between atoms: C_11  and  C_12
REMARK                            x       y       z     vdW  Elec       q    Type
REMARK                         _______ _______ _______ _____ _____    ______ ____
ROOT
ATOM      1  N   UNL     1       3.080   6.602  17.992  0.00  0.00    +0.000 N 
ATOM      2  C   UNL     1       2.462   5.375  17.884  0.00  0.00    +0.000 C 
ATOM      3  O   UNL     1       1.296   5.269  17.503  0.00  0.00    +0.000 OA
ATOM      4  H   UNL     1       3.912   6.691  18.557  0.00  0.00    +0.000 HD
ENDROOT
BRANCH   2   5
ATOM      5  C   UNL     1       3.296   4.145  18.302  0.00  0.00    +0.000 C 
ATOM      6  C   UNL     1       2.663   2.797  17.868  0.00  0.00    +0.000 C 
ATOM      7  C   UNL     1       3.171   1.760  18.873  0.00  0.00    +0.000 C 
ATOM      8  C   UNL     1       3.518   2.538  20.136  0.00  0.00    +0.000 C 
ATOM      9  C   UNL     1       3.121   3.977  19.839  0.00  0.00    +0.000 C 
BRANCH   5  10
ATOM     10  C   UNL     1       4.764   4.314  17.862  0.00  0.00    +0.000 A 
ATOM     11  C   UNL     1       5.186   3.958  16.565  0.00  0.00    +0.000 A 
ATOM     12  C   UNL     1       6.501   4.172  16.134  0.00  0.00    +0.000 A 
ATOM     13  C   UNL     1       7.438   4.718  17.002  0.00  0.00    +0.000 A 
ATOM     14  C   UNL     1       7.061   5.026  18.303  0.00  0.00    +0.000 A 
ATOM     15 CL   UNL     1       8.223   5.680  19.394  0.00  0.00    +0.000 Cl
ATOM     16  C   UNL     1       5.746   4.819  18.736  0.00  0.00    +0.000 A 
ENDBRANCH   5  10
ENDBRANCH   2   5
BRANCH   1  17
ATOM     17  C   UNL     1       2.351   7.806  17.658  0.00  0.00    +0.000 C 
BRANCH  17  21
ATOM     18  C   UNL     1       0.641   9.670  21.162  0.00  0.00    +0.000 A 
ATOM     19  C   UNL     1       0.613  10.338  19.933  0.00  0.00    +0.000 A 
ATOM     20  C   UNL     1       1.181   9.742  18.800  0.00  0.00    +0.000 A 
ATOM     21  C   UNL     1       1.774   8.468  18.878  0.00  0.00    +0.000 A 
ATOM     22  C   UNL     1       1.793   7.810  20.111  0.00  0.00    +0.000 A 
ATOM     23  C   UNL     1       1.197   8.389  21.232  0.00  0.00    +0.000 A 
BRANCH  18  25
ATOM     24  O   UNL     1       0.277   9.840  23.461  0.00  0.00    +0.000 OA
ATOM     25  C   UNL     1      -0.010  10.283  22.350  0.00  0.00    +0.000 C 
ATOM     26  N   UNL     1      -0.907  11.329  22.166  0.00  0.00    +0.000 N 
ATOM     27  C   UNL     1      -1.483  12.019  23.308  0.00  0.00    +0.000 C 
ATOM     28  C   UNL     1      -2.870  12.429  22.841  0.00  0.00    +0.000 C 
ATOM     29  C   UNL     1      -2.669  12.694  21.357  0.00  0.00    +0.000 C 
ATOM     30  C   UNL     1      -1.633  11.657  20.944  0.00  0.00    +0.000 C 
ENDBRANCH  18  25
ENDBRANCH  17  21
ENDBRANCH   1  17
TORSDOF 5
ENDMDL
MODEL 6
REMARK VINA RESULT:      -8.2      2.134      3.180
REMARK  Name = 
REMARK  5 active torsions:
REMARK  status: ('A' for Active; 'I' for Inactive)
REMARK    1  A    between atoms: C_2  and  C_3
REMARK    2  A    between atoms: C_6  and  C_7
REMARK    3  A    between atoms: C_7  and  N_8
REMARK    4  A    between atoms: C_9  and  C_11
REMARK    5  A    between atoms: C_11  and  C_12
REMARK                            x       y       z     vdW  Elec       q    Type
REMARK                         _______ _______ _______ _____ _____    ______ ____
ROOT
ATOM      1  N   UNL     1       2.617   6.462  20.134  0.00  0.00    +0.000 N 
ATOM      2  C   UNL     1       2.098   5.187  20.061  0.00  0.00    +0.000 C 
ATOM      3  O   UNL     1       1.136   4.839  20.747  0.00  0.00    +0.000 OA
ATOM      4  H   UNL     1       3.549   6.639  19.788  0.00  0.00    +0.000 HD
ENDROOT
BRANCH   2   5
ATOM      5  C   UNL     1       2.810   4.207  19.103  0.00  0.00    +0.000 C 
ATOM      6  C   UNL     1       1.866   3.601  18.031  0.00  0.00    +0.000 C 
ATOM      7  C   UNL     1       2.481   2.250  17.657  0.00  0.00    +0.000 C 
ATOM      8  C   UNL     1       3.316   1.825  18.859  0.00  0.00    +0.000 C 
ATOM      9  C   UNL     1       3.085   2.903  19.907  0.00  0.00    +0.000 C 
BRANCH   5  10
ATOM     10  C   UNL     1       4.082   4.854  18.519  0.00  0.00    +0.000 A 
ATOM     11  C   UNL     1       5.303   4.833  19.223  0.00  0.00    +0.000 A 
ATOM     12  C   UNL     1       6.479   5.356  18.672  0.00  0.00    +0.000 A 
ATOM     13  C   UNL     1       6.457   5.944  17.414  0.00  0.00    +0.000 A 
ATOM     14  C   UNL     1       5.255   6.027  16.723  0.00  0.00    +0.000 A 
ATOM     15 CL   UNL     1       5.213   6.777  15.174  0.00  0.00    +0.000 Cl
ATOM     16  C   UNL     1       4.078   5.500  17.268  0.00  0.00    +0.000 A 
ENDBRANCH   5  10
ENDBRANCH   2   5
BRANCH   1  17
ATOM     17  C   UNL     1       2.031   7.425  21.039  0.00  0.00    +0.000 C 
BRANCH  17  21
ATOM     18  C   UNL     1      -0.327  10.370  18.932  0.00  0.00    +0.000 A 
ATOM     19  C   UNL     1       0.762   9.764  18.297  0.00  0.00    +0.000 A 
ATOM     20  C   UNL     1       1.537   8.822  18.983  0.00  0.00    +0.000 A 
ATOM     21  C   UNL     1       1.227   8.464  20.309  0.00  0.00    +0.000 A 
ATOM     22  C   UNL     1       0.134   9.074  20.931  0.00  0.00    +0.000 A 
ATOM     23  C   UNL     1      -0.658   9.988  20.236  0.00  0.00    +0.000 A 
BRANCH  18  25
ATOM     24  O   UNL     1      -1.196  12.502  18.552  0.00  0.00    +0.000 OA
ATOM     25  C   UNL     1      -1.180  11.330  18.181  0.00  0.00    +0.000 C 
ATOM     26  N   UNL     1      -1.916  10.874  17.094  0.00  0.00    +0.000 N 
ATOM     27  C   UNL     1      -2.678  11.802  16.275  0.00  0.00    +0.000 C 
ATOM     28  C   UNL     1      -3.880  10.996  15.809  0.00  0.00    +0.000 C 
ATOM     29  C   UNL     1      -3.319   9.589  15.680  0.00  0.00    +0.000 C 
ATOM     30  C   UNL     1      -2.310   9.497  16.817  0.00  0.00    +0.000 C 
ENDBRANCH  18  25
ENDBRANCH  17  21
ENDBRANCH   1  17
TORSDOF 5
ENDMDL
MODEL 7
REMARK VINA RESULT:      -8.1      2.365      3.606
REMARK  Name = 
REMARK  5 active torsions:
REMARK  status: ('A' for Active; 'I' for Inactive)
REMARK    1  A    between atoms: C_2  and  C_3
REMARK    2  A    between atoms: C_6  and  C_7
REMARK    3  A    between atoms: C_7  and  N_8
REMARK    4  A    between atoms: C_9  and  C_11
REMARK    5  A    between atoms: C_11  and  C_12
REMARK                            x       y       z     vdW  Elec       q    Type
REMARK                         _______ _______ _______ _____ _____    ______ ____
ROOT
ATOM      1  N   UNL     1       3.846   5.956  18.583  0.00  0.00    +0.000 N 
ATOM      2  C   UNL     1       3.967   5.083  17.523  0.00  0.00    +0.000 C 
ATOM      3  O   UNL     1       3.095   4.252  17.267  0.00  0.00    +0.000 OA
ATOM      4  H   UNL     1       4.668   6.422  18.938  0.00  0.00    +0.000 HD
ENDROOT
BRANCH   2   5
ATOM      5  C   UNL     1       5.269   5.176  16.699  0.00  0.00    +0.000 C 
ATOM      6  C   UNL     1       5.059   5.777  15.284  0.00  0.00    +0.000 C 
ATOM      7  C   UNL     1       6.180   5.196  14.419  0.00  0.00    +0.000 C 
ATOM      8  C   UNL     1       6.590   3.890  15.089  0.00  0.00    +0.000 C 
ATOM      9  C   UNL     1       5.636   3.728  16.263  0.00  0.00    +0.000 C 
BRANCH   5  10
ATOM     10  C   UNL     1       6.375   5.875  17.515  0.00  0.00    +0.000 A 
ATOM     11  C   UNL     1       7.071   5.197  18.536  0.00  0.00    +0.000 A 
ATOM     12  C   UNL     1       8.122   5.801  19.236  0.00  0.00    +0.000 A 
ATOM     13  C   UNL     1       8.484   7.113  18.954  0.00  0.00    +0.000 A 
ATOM     14  C   UNL     1       7.776   7.821  17.991  0.00  0.00    +0.000 A 
ATOM     15 CL   UNL     1       8.200   9.456  17.654  0.00  0.00    +0.000 Cl
ATOM     16  C   UNL     1       6.728   7.219  17.286  0.00  0.00    +0.000 A 
ENDBRANCH   5  10
ENDBRANCH   2   5
BRANCH   1  17
ATOM     17  C   UNL     1       2.674   5.904  19.428  0.00  0.00    +0.000 C 
BRANCH  17  21
ATOM     18  C   UNL     1       0.824   9.776  19.937  0.00  0.00    +0.000 A 
ATOM     19  C   UNL     1       1.443   9.453  18.726  0.00  0.00    +0.000 A 
ATOM     20  C   UNL     1       2.057   8.205  18.564  0.00  0.00    +0.000 A 
ATOM     21  C   UNL     1       2.050   7.260  19.607  0.00  0.00    +0.000 A 
ATOM     22  C   UNL     1       1.425   7.593  20.811  0.00  0.00    +0.000 A 
ATOM     23  C   UNL     1       0.784   8.823  20.960  0.00  0.00    +0.000 A 
BRANCH  18  25
ATOM     24  O   UNL     1       0.579  11.891  20.893  0.00  0.00    +0.000 OA
ATOM     25  C   UNL     1       0.126  11.081  20.086  0.00  0.00    +0.000 C 
ATOM     26  N   UNL     1      -0.997  11.340  19.309  0.00  0.00    +0.000 N 
ATOM     27  C   UNL     1      -1.642  12.642  19.352  0.00  0.00    +0.000 C 
ATOM     28  C   UNL     1      -3.114  12.342  19.117  0.00  0.00    +0.000 C 
ATOM     29  C   UNL     1      -3.074  11.142  18.184  0.00  0.00    +0.000 C 
ATOM     30  C   UNL     1      -1.857  10.359  18.656  0.00  0.00    +0.000 C 
ENDBRANCH  18  25
ENDBRANCH  17  21
ENDBRANCH   1  17
TORSDOF 5
ENDMDL
MODEL 8
REMARK VINA RESULT:      -8.1      2.720      3.441
REMARK  Name = 
REMARK  5 active torsions:
REMARK  status: ('A' for Active; 'I' for Inactive)
REMARK    1  A    between atoms: C_2  and  C_3
REMARK    2  A    between atoms: C_6  and  C_7
REMARK    3  A    between atoms: C_7  and  N_8
REMARK    4  A    between atoms: C_9  and  C_11
REMARK    5  A    between atoms: C_11  and  C_12
REMARK                            x       y       z     vdW  Elec       q    Type
REMARK                         _______ _______ _______ _____ _____    ______ ____
ROOT
ATOM      1  N   UNL     1       3.062   6.882  18.157  0.00  0.00    +0.000 N 
ATOM      2  C   UNL     1       2.469   5.657  17.943  0.00  0.00    +0.000 C 
ATOM      3  O   UNL     1       1.338   5.560  17.464  0.00  0.00    +0.000 OA
ATOM      4  H   UNL     1       3.845   6.951  18.791  0.00  0.00    +0.000 HD
ENDROOT
BRANCH   2   5
ATOM      5  C   UNL     1       3.281   4.415  18.370  0.00  0.00    +0.000 C 
ATOM      6  C   UNL     1       2.542   3.077  18.105  0.00  0.00    +0.000 C 
ATOM      7  C   UNL     1       3.099   2.088  19.132  0.00  0.00    +0.000 C 
ATOM      8  C   UNL     1       3.612   2.934  20.291  0.00  0.00    +0.000 C 
ATOM      9  C   UNL     1       3.256   4.367  19.925  0.00  0.00    +0.000 C 
BRANCH   5  10
ATOM     10  C   UNL     1       4.702   4.470  17.775  0.00  0.00    +0.000 A 
ATOM     11  C   UNL     1       5.821   4.765  18.580  0.00  0.00    +0.000 A 
ATOM     12  C   UNL     1       7.123   4.750  18.064  0.00  0.00    +0.000 A 
ATOM     13  C   UNL     1       7.336   4.471  16.720  0.00  0.00    +0.000 A 
ATOM     14  C   UNL     1       6.245   4.231  15.894  0.00  0.00    +0.000 A 
ATOM     15 CL   UNL     1       6.498   3.911  14.221  0.00  0.00    +0.000 Cl
ATOM     16  C   UNL     1       4.943   4.240  16.407  0.00  0.00    +0.000 A 
ENDBRANCH   5  10
ENDBRANCH   2   5
BRANCH   1  17
ATOM     17  C   UNL     1       2.348   8.095  17.822  0.00  0.00    +0.000 C 
BRANCH  17  21
ATOM     18  C   UNL     1       0.387   9.823  21.262  0.00  0.00    +0.000 A 
ATOM     19  C   UNL     1       0.942   8.542  21.347  0.00  0.00    +0.000 A 
ATOM     20  C   UNL     1       1.564   7.973  20.228  0.00  0.00    +0.000 A 
ATOM     21  C   UNL     1       1.649   8.682  19.015  0.00  0.00    +0.000 A 
ATOM     22  C   UNL     1       1.094   9.963  18.945  0.00  0.00    +0.000 A 
ATOM     23  C   UNL     1       0.504  10.542  20.069  0.00  0.00    +0.000 A 
BRANCH  18  25
ATOM     24  O   UNL     1       0.126  10.032  23.572  0.00  0.00    +0.000 OA
ATOM     25  C   UNL     1      -0.225  10.444  22.468  0.00  0.00    +0.000 C 
ATOM     26  N   UNL     1      -1.157  11.462  22.305  0.00  0.00    +0.000 N 
ATOM     27  C   UNL     1      -1.697  12.161  23.460  0.00  0.00    +0.000 C 
ATOM     28  C   UNL     1      -3.116  12.524  23.050  0.00  0.00    +0.000 C 
ATOM     29  C   UNL     1      -2.991  12.762  21.554  0.00  0.00    +0.000 C 
ATOM     30  C   UNL     1      -1.948  11.744  21.113  0.00  0.00    +0.000 C 
ENDBRANCH  18  25
ENDBRANCH  17  21
ENDBRANCH   1  17
TORSDOF 5
ENDMDL
MODEL 9
REMARK VINA RESULT:      -8.1      2.855      4.230
REMARK  Name = 
REMARK  5 active torsions:
REMARK  status: ('A' for Active; 'I' for Inactive)
REMARK    1  A    between atoms: C_2  and  C_3
REMARK    2  A    between atoms: C_6  and  C_7
REMARK    3  A    between atoms: C_7  and  N_8
REMARK    4  A    between atoms: C_9  and  C_11
REMARK    5  A    between atoms: C_11  and  C_12
REMARK                            x       y       z     vdW  Elec       q    Type
REMARK                         _______ _______ _______ _____ _____    ______ ____
ROOT
ATOM      1  N   UNL     1       3.454   7.059  18.015  0.00  0.00    +0.000 N 
ATOM      2  C   UNL     1       4.449   6.657  17.150  0.00  0.00    +0.000 C 
ATOM      3  O   UNL     1       4.603   7.189  16.050  0.00  0.00    +0.000 OA
ATOM      4  H   UNL     1       3.171   6.446  18.765  0.00  0.00    +0.000 HD
ENDROOT
BRANCH   2   5
ATOM      5  C   UNL     1       5.333   5.481  17.616  0.00  0.00    +0.000 C 
ATOM      6  C   UNL     1       6.386   5.887  18.680  0.00  0.00    +0.000 C 
ATOM      7  C   UNL     1       7.536   4.890  18.525  0.00  0.00    +0.000 C 
ATOM      8  C   UNL     1       7.456   4.381  17.091  0.00  0.00    +0.000 C 
ATOM      9  C   UNL     1       6.318   5.163  16.453  0.00  0.00    +0.000 C 
BRANCH   5  10
ATOM     10  C   UNL     1       4.459   4.280  18.030  0.00  0.00    +0.000 A 
ATOM     11  C   UNL     1       3.979   3.360  17.077  0.00  0.00    +0.000 A 
ATOM     12  C   UNL     1       3.243   2.230  17.450  0.00  0.00    +0.000 A 
ATOM     13  C   UNL     1       2.938   2.008  18.788  0.00  0.00    +0.000 A 
ATOM     14  C   UNL     1       3.352   2.929  19.741  0.00  0.00    +0.000 A 
ATOM     15 CL   UNL     1       2.958   2.676  21.398  0.00  0.00    +0.000 Cl
ATOM     16  C   UNL     1       4.093   4.058  19.372  0.00  0.00    +0.000 A 
ENDBRANCH   5  10
ENDBRANCH   2   5
BRANCH   1  17
ATOM     17  C   UNL     1       2.557   8.128  17.633  0.00  0.00    +0.000 C 
BRANCH  17  21
ATOM     18  C   UNL     1       0.545   9.835  21.055  0.00  0.00    +0.000 A 
ATOM     19  C   UNL     1       1.077   8.544  21.132  0.00  0.00    +0.000 A 
ATOM     20  C   UNL     1       1.716   7.983  20.019  0.00  0.00    +0.000 A 
ATOM     21  C   UNL     1       1.840   8.709  18.820  0.00  0.00    +0.000 A 
ATOM     22  C   UNL     1       1.308   9.999  18.757  0.00  0.00    +0.000 A 
ATOM     23  C   UNL     1       0.702  10.570  19.876  0.00  0.00    +0.000 A 
BRANCH  18  25
ATOM     24  O   UNL     1       0.226  10.006  23.360  0.00  0.00    +0.000 OA
ATOM     25  C   UNL     1      -0.084  10.448  22.256  0.00  0.00    +0.000 C 
ATOM     26  N   UNL     1      -0.987  11.491  22.088  0.00  0.00    +0.000 N 
ATOM     27  C   UNL     1      -1.541  12.181  23.241  0.00  0.00    +0.000 C 
ATOM     28  C   UNL     1      -2.939  12.587  22.802  0.00  0.00    +0.000 C 
ATOM     29  C   UNL     1      -2.767  12.851  21.314  0.00  0.00    +0.000 C 
ATOM     30  C   UNL     1      -1.738  11.816  20.881  0.00  0.00    +0.000 C 
ENDBRANCH  18  25
ENDBRANCH  17  21
ENDBRANCH   1  17
TORSDOF 5
ENDMDL
