MODEL 1
REMARK VINA RESULT:      -8.9      0.000      0.000
REMARK  Name = 
REMARK  6 active torsions:
REMARK  status: ('A' for Active; 'I' for Inactive)
REMARK    1  A    between atoms: C_1  and  C_2
REMARK    2  A    between atoms: C_4  and  N_5
REMARK    3  A    between atoms: N_5  and  C_6
REMARK    4  A    between atoms: C_6  and  C_7
REMARK    5  A    between atoms: C_11  and  O_12
REMARK    6  A    between atoms: O_12  and  C_13
REMARK                            x       y       z     vdW  Elec       q    Type
REMARK                         _______ _______ _______ _____ _____    ______ ____
ROOT
ATOM      1  C   UNL     1       3.187   3.077  17.093  0.00  0.00    +0.000 C 
ENDROOT
BRANCH   1   2
ATOM      2  C   UNL     1       2.513   3.646  18.325  0.00  0.00    +0.000 A 
ATOM      3  C   UNL     1       1.573   2.885  19.034  0.00  0.00    +0.000 A 
ATOM      4  C   UNL     1       0.912   3.419  20.140  0.00  0.00    +0.000 A 
ATOM      5  C   UNL     1       1.191   4.719  20.559  0.00  0.00    +0.000 A 
ATOM      6  C   UNL     1       2.184   5.464  19.918  0.00  0.00    +0.000 A 
ATOM      7  C   UNL     1       2.819   4.939  18.787  0.00  0.00    +0.000 A 
BRANCH   6   8
ATOM      8  O   UNL     1       2.562   6.735  20.294  0.00  0.00    +0.000 OA
BRANCH   8   9
ATOM      9  C   UNL     1       1.993   7.832  19.681  0.00  0.00    +0.000 A 
ATOM     10  C   UNL     1       2.154   8.156  18.331  0.00  0.00    +0.000 A 
ATOM     11  C   UNL     1       1.586   9.321  17.814  0.00  0.00    +0.000 A 
ATOM     12  C   UNL     1       0.795  10.131  18.627  0.00  0.00    +0.000 A 
ATOM     13  C   UNL     1       0.566   9.770  19.955  0.00  0.00    +0.000 A 
ATOM     14  C   UNL     1       1.164   8.622  20.481  0.00  0.00    +0.000 A 
ENDBRANCH   8   9
ENDBRANCH   6   8
ENDBRANCH   1   2
BRANCH   1  15
ATOM     15  N   UNL     1       4.634   3.194  17.167  0.00  0.00    +0.000 N 
ATOM     16  H   UNL     1       5.064   2.973  18.066  0.00  0.00    +0.000 HD
BRANCH  15  20
ATOM     17  C   UNL     1       6.801   4.038  12.775  0.00  0.00    +0.000 C 
ATOM     18  C   UNL     1       6.617   4.416  14.225  0.00  0.00    +0.000 A 
ATOM     19  C   UNL     1       5.658   3.592  15.005  0.00  0.00    +0.000 A 
ATOM     20  C   UNL     1       5.481   3.891  16.304  0.00  0.00    +0.000 A 
ATOM     21  N   UNL     1       6.222   4.984  16.816  0.00  0.00    +0.000 N 
ATOM     22  N   UNL     1       6.218   5.509  18.079  0.00  0.00    +0.000 NA
ATOM     23  C   UNL     1       7.108   6.495  17.961  0.00  0.00    +0.000 A 
ATOM     24  N   UNL     1       7.665   6.662  16.734  0.00  0.00    +0.000 NA
ATOM     25  C   UNL     1       7.109   5.715  16.012  0.00  0.00    +0.000 A 
ATOM     26  N   UNL     1       7.303   5.417  14.691  0.00  0.00    +0.000 NA
ENDBRANCH  15  20
ENDBRANCH   1  15
TORSDOF 5
ENDMDL
MODEL 2
REMARK VINA RESULT:      -8.8      0.949      2.337
REMARK  Name = 
REMARK  6 active torsions:
REMARK  status: ('A' for Active; 'I' for Inactive)
REMARK    1  A    between atoms: C_1  and  C_2
REMARK    2  A    between atoms: C_4  and  N_5
REMARK    3  A    between atoms: N_5  and  C_6
REMARK    4  A    between atoms: C_6  and  C_7
REMARK    5  A    between atoms: C_11  and  O_12
REMARK    6  A    between atoms: O_12  and  C_13
REMARK                            x       y       z     vdW  Elec       q    Type
REMARK                         _______ _______ _______ _____ _____    ______ ____
ROOT
ATOM      1  C   UNL     1       4.302   2.977  18.398  0.00  0.00    +0.000 C 
ENDROOT
BRANCH   1   2
ATOM      2  C   UNL     1       3.181   3.666  19.149  0.00  0.00    +0.000 A 
ATOM      3  C   UNL     1       2.010   2.965  19.473  0.00  0.00    +0.000 A 
ATOM      4  C   UNL     1       0.954   3.605  20.120  0.00  0.00    +0.000 A 
ATOM      5  C   UNL     1       1.057   4.951  20.463  0.00  0.00    +0.000 A 
ATOM      6  C   UNL     1       2.247   5.645  20.225  0.00  0.00    +0.000 A 
ATOM      7  C   UNL     1       3.291   5.012  19.543  0.00  0.00    +0.000 A 
BRANCH   6   8
ATOM      8  O   UNL     1       2.458   6.962  20.575  0.00  0.00    +0.000 OA
BRANCH   8   9
ATOM      9  C   UNL     1       1.887   7.972  19.830  0.00  0.00    +0.000 A 
ATOM     10  C   UNL     1       2.126   8.183  18.469  0.00  0.00    +0.000 A 
ATOM     11  C   UNL     1       1.547   9.270  17.813  0.00  0.00    +0.000 A 
ATOM     12  C   UNL     1       0.670  10.110  18.496  0.00  0.00    +0.000 A 
ATOM     13  C   UNL     1       0.366   9.857  19.834  0.00  0.00    +0.000 A 
ATOM     14  C   UNL     1       0.974   8.790  20.500  0.00  0.00    +0.000 A 
ENDBRANCH   8   9
ENDBRANCH   6   8
ENDBRANCH   1   2
BRANCH   1  15
ATOM     15  N   UNL     1       5.595   3.573  18.693  0.00  0.00    +0.000 N 
ATOM     16  H   UNL     1       5.948   3.450  19.643  0.00  0.00    +0.000 HD
BRANCH  15  20
ATOM     17  C   UNL     1       8.113   7.840  18.309  0.00  0.00    +0.000 C 
ATOM     18  C   UNL     1       7.485   6.639  17.643  0.00  0.00    +0.000 A 
ATOM     19  C   UNL     1       6.840   5.648  18.542  0.00  0.00    +0.000 A 
ATOM     20  C   UNL     1       6.258   4.574  17.982  0.00  0.00    +0.000 A 
ATOM     21  N   UNL     1       6.323   4.474  16.570  0.00  0.00    +0.000 N 
ATOM     22  N   UNL     1       5.838   3.489  15.754  0.00  0.00    +0.000 NA
ATOM     23  C   UNL     1       6.184   3.944  14.550  0.00  0.00    +0.000 A 
ATOM     24  N   UNL     1       6.863   5.121  14.521  0.00  0.00    +0.000 NA
ATOM     25  C   UNL     1       6.954   5.454  15.790  0.00  0.00    +0.000 A 
ATOM     26  N   UNL     1       7.544   6.555  16.346  0.00  0.00    +0.000 NA
ENDBRANCH  15  20
ENDBRANCH   1  15
TORSDOF 5
ENDMDL
MODEL 3
REMARK VINA RESULT:      -8.8      1.065      2.525
REMARK  Name = 
REMARK  6 active torsions:
REMARK  status: ('A' for Active; 'I' for Inactive)
REMARK    1  A    between atoms: C_1  and  C_2
REMARK    2  A    between atoms: C_4  and  N_5
REMARK    3  A    between atoms: N_5  and  C_6
REMARK    4  A    between atoms: C_6  and  C_7
REMARK    5  A    between atoms: C_11  and  O_12
REMARK    6  A    between atoms: O_12  and  C_13
REMARK                            x       y       z     vdW  Elec       q    Type
REMARK                         _______ _______ _______ _____ _____    ______ ____
ROOT
ATOM      1  C   UNL     1       4.584   2.817  19.032  0.00  0.00    +0.000 C 
ENDROOT
BRANCH   1   2
ATOM      2  C   UNL     1       3.281   3.398  19.540  0.00  0.00    +0.000 A 
ATOM      3  C   UNL     1       2.117   2.614  19.562  0.00  0.00    +0.000 A 
ATOM      4  C   UNL     1       0.903   3.156  19.981  0.00  0.00    +0.000 A 
ATOM      5  C   UNL     1       0.836   4.485  20.395  0.00  0.00    +0.000 A 
ATOM      6  C   UNL     1       1.998   5.258  20.460  0.00  0.00    +0.000 A 
ATOM      7  C   UNL     1       3.208   4.724  20.004  0.00  0.00    +0.000 A 
BRANCH   6   8
ATOM      8  O   UNL     1       2.037   6.563  20.903  0.00  0.00    +0.000 OA
BRANCH   8   9
ATOM      9  C   UNL     1       1.828   7.598  20.016  0.00  0.00    +0.000 A 
ATOM     10  C   UNL     1       1.132   8.771  20.320  0.00  0.00    +0.000 A 
ATOM     11  C   UNL     1       0.920   9.738  19.337  0.00  0.00    +0.000 A 
ATOM     12  C   UNL     1       1.463   9.570  18.065  0.00  0.00    +0.000 A 
ATOM     13  C   UNL     1       2.226   8.438  17.779  0.00  0.00    +0.000 A 
ATOM     14  C   UNL     1       2.408   7.453  18.753  0.00  0.00    +0.000 A 
ENDBRANCH   8   9
ENDBRANCH   6   8
ENDBRANCH   1   2
BRANCH   1  15
ATOM     15  N   UNL     1       4.875   3.247  17.674  0.00  0.00    +0.000 N 
ATOM     16  H   UNL     1       4.590   2.615  16.925  0.00  0.00    +0.000 HD
BRANCH  15  20
ATOM     17  C   UNL     1       7.946   7.079  18.432  0.00  0.00    +0.000 C 
ATOM     18  C   UNL     1       7.310   6.094  17.481  0.00  0.00    +0.000 A 
ATOM     19  C   UNL     1       6.382   5.102  18.081  0.00  0.00    +0.000 A 
ATOM     20  C   UNL     1       5.785   4.220  17.261  0.00  0.00    +0.000 A 
ATOM     21  N   UNL     1       6.109   4.307  15.884  0.00  0.00    +0.000 N 
ATOM     22  N   UNL     1       5.668   3.531  14.847  0.00  0.00    +0.000 NA
ATOM     23  C   UNL     1       6.295   4.088  13.811  0.00  0.00    +0.000 A 
ATOM     24  N   UNL     1       7.112   5.136  14.092  0.00  0.00    +0.000 NA
ATOM     25  C   UNL     1       6.998   5.274  15.395  0.00  0.00    +0.000 A 
ATOM     26  N   UNL     1       7.606   6.182  16.217  0.00  0.00    +0.000 NA
ENDBRANCH  15  20
ENDBRANCH   1  15
TORSDOF 5
ENDMDL
MODEL 4
REMARK VINA RESULT:      -8.8      0.908      2.445
REMARK  Name = 
REMARK  6 active torsions:
REMARK  status: ('A' for Active; 'I' for Inactive)
REMARK    1  A    between atoms: C_1  and  C_2
REMARK    2  A    between atoms: C_4  and  N_5
REMARK    3  A    between atoms: N_5  and  C_6
REMARK    4  A    between atoms: C_6  and  C_7
REMARK    5  A    between atoms: C_11  and  O_12
REMARK    6  A    between atoms: O_12  and  C_13
REMARK                            x       y       z     vdW  Elec       q    Type
REMARK                         _______ _______ _______ _____ _____    ______ ____
ROOT
ATOM      1  C   UNL     1       3.115   3.382  17.108  0.00  0.00    +0.000 C 
ENDROOT
BRANCH   1   2
ATOM      2  C   UNL     1       2.505   3.988  18.355  0.00  0.00    +0.000 A 
ATOM      3  C   UNL     1       1.656   3.225  19.171  0.00  0.00    +0.000 A 
ATOM      4  C   UNL     1       1.052   3.789  20.294  0.00  0.00    +0.000 A 
ATOM      5  C   UNL     1       1.296   5.121  20.624  0.00  0.00    +0.000 A 
ATOM      6  C   UNL     1       2.204   5.873  19.873  0.00  0.00    +0.000 A 
ATOM      7  C   UNL     1       2.780   5.317  18.726  0.00  0.00    +0.000 A 
BRANCH   6   8
ATOM      8  O   UNL     1       2.545   7.179  20.154  0.00  0.00    +0.000 OA
BRANCH   8   9
ATOM      9  C   UNL     1       1.686   8.204  19.815  0.00  0.00    +0.000 A 
ATOM     10  C   UNL     1       0.815   8.833  20.709  0.00  0.00    +0.000 A 
ATOM     11  C   UNL     1      -0.060   9.822  20.260  0.00  0.00    +0.000 A 
ATOM     12  C   UNL     1      -0.020  10.237  18.930  0.00  0.00    +0.000 A 
ATOM     13  C   UNL     1       0.903   9.668  18.052  0.00  0.00    +0.000 A 
ATOM     14  C   UNL     1       1.754   8.653  18.494  0.00  0.00    +0.000 A 
ENDBRANCH   8   9
ENDBRANCH   6   8
ENDBRANCH   1   2
BRANCH   1  15
ATOM     15  N   UNL     1       4.549   3.185  17.249  0.00  0.00    +0.000 N 
ATOM     16  H   UNL     1       4.845   2.407  17.842  0.00  0.00    +0.000 HD
BRANCH  15  20
ATOM     17  C   UNL     1       7.855   6.666  18.529  0.00  0.00    +0.000 C 
ATOM     18  C   UNL     1       7.221   5.809  17.460  0.00  0.00    +0.000 A 
ATOM     19  C   UNL     1       6.166   4.865  17.910  0.00  0.00    +0.000 A 
ATOM     20  C   UNL     1       5.569   4.097  16.982  0.00  0.00    +0.000 A 
ATOM     21  N   UNL     1       6.014   4.247  15.645  0.00  0.00    +0.000 N 
ATOM     22  N   UNL     1       5.599   3.586  14.522  0.00  0.00    +0.000 NA
ATOM     23  C   UNL     1       6.355   4.153  13.583  0.00  0.00    +0.000 A 
ATOM     24  N   UNL     1       7.231   5.102  14.005  0.00  0.00    +0.000 NA
ATOM     25  C   UNL     1       7.019   5.162  15.301  0.00  0.00    +0.000 A 
ATOM     26  N   UNL     1       7.629   5.954  16.234  0.00  0.00    +0.000 NA
ENDBRANCH  15  20
ENDBRANCH   1  15
TORSDOF 5
ENDMDL
MODEL 5
REMARK VINA RESULT:      -8.7      0.898      2.256
REMARK  Name = 
REMARK  6 active torsions:
REMARK  status: ('A' for Active; 'I' for Inactive)
REMARK    1  A    between atoms: C_1  and  C_2
REMARK    2  A    between atoms: C_4  and  N_5
REMARK    3  A    between atoms: N_5  and  C_6
REMARK    4  A    between atoms: C_6  and  C_7
REMARK    5  A    between atoms: C_11  and  O_12
REMARK    6  A    between atoms: O_12  and  C_13
REMARK                            x       y       z     vdW  Elec       q    Type
REMARK                         _______ _______ _______ _____ _____    ______ ____
ROOT
ATOM      1  C   UNL     1       2.944   3.426  17.027  0.00  0.00    +0.000 C 
ENDROOT
BRANCH   1   2
ATOM      2  C   UNL     1       2.371   3.973  18.318  0.00  0.00    +0.000 A 
ATOM      3  C   UNL     1       1.543   3.174  19.120  0.00  0.00    +0.000 A 
ATOM      4  C   UNL     1       0.972   3.686  20.285  0.00  0.00    +0.000 A 
ATOM      5  C   UNL     1       1.229   5.000  20.670  0.00  0.00    +0.000 A 
ATOM      6  C   UNL     1       2.117   5.785  19.931  0.00  0.00    +0.000 A 
ATOM      7  C   UNL     1       2.660   5.282  18.743  0.00  0.00    +0.000 A 
BRANCH   6   8
ATOM      8  O   UNL     1       2.470   7.076  20.263  0.00  0.00    +0.000 OA
BRANCH   8   9
ATOM      9  C   UNL     1       1.770   8.139  19.733  0.00  0.00    +0.000 A 
ATOM     10  C   UNL     1       1.884   8.581  18.412  0.00  0.00    +0.000 A 
ATOM     11  C   UNL     1       1.178   9.706  17.983  0.00  0.00    +0.000 A 
ATOM     12  C   UNL     1       0.300  10.351  18.851  0.00  0.00    +0.000 A 
ATOM     13  C   UNL     1       0.122   9.865  20.147  0.00  0.00    +0.000 A 
ATOM     14  C   UNL     1       0.857   8.762  20.587  0.00  0.00    +0.000 A 
ENDBRANCH   8   9
ENDBRANCH   6   8
ENDBRANCH   1   2
BRANCH   1  15
ATOM     15  N   UNL     1       4.342   3.053  17.173  0.00  0.00    +0.000 N 
ATOM     16  H   UNL     1       4.529   2.140  17.591  0.00  0.00    +0.000 HD
BRANCH  15  20
ATOM     17  C   UNL     1       7.827   5.891  19.292  0.00  0.00    +0.000 C 
ATOM     18  C   UNL     1       7.210   5.309  18.043  0.00  0.00    +0.000 A 
ATOM     19  C   UNL     1       6.042   4.413  18.240  0.00  0.00    +0.000 A 
ATOM     20  C   UNL     1       5.458   3.889  17.147  0.00  0.00    +0.000 A 
ATOM     21  N   UNL     1       6.024   4.229  15.894  0.00  0.00    +0.000 N 
ATOM     22  N   UNL     1       5.647   3.826  14.643  0.00  0.00    +0.000 NA
ATOM     23  C   UNL     1       6.527   4.472  13.877  0.00  0.00    +0.000 A 
ATOM     24  N   UNL     1       7.445   5.235  14.525  0.00  0.00    +0.000 NA
ATOM     25  C   UNL     1       7.132   5.083  15.793  0.00  0.00    +0.000 A 
ATOM     26  N   UNL     1       7.730   5.629  16.894  0.00  0.00    +0.000 NA
ENDBRANCH  15  20
ENDBRANCH   1  15
TORSDOF 5
ENDMDL
MODEL 6
REMARK VINA RESULT:      -8.6      3.300      6.946
REMARK  Name = 
REMARK  6 active torsions:
REMARK  status: ('A' for Active; 'I' for Inactive)
REMARK    1  A    between atoms: C_1  and  C_2
REMARK    2  A    between atoms: C_4  and  N_5
REMARK    3  A    between atoms: N_5  and  C_6
REMARK    4  A    between atoms: C_6  and  C_7
REMARK    5  A    between atoms: C_11  and  O_12
REMARK    6  A    between atoms: O_12  and  C_13
REMARK                            x       y       z     vdW  Elec       q    Type
REMARK                         _______ _______ _______ _____ _____    ______ ____
ROOT
ATOM      1  C   UNL     1       1.612   5.441  20.752  0.00  0.00    +0.000 C 
ENDROOT
BRANCH   1   2
ATOM      2  C   UNL     1       2.011   4.611  19.550  0.00  0.00    +0.000 A 
ATOM      3  C   UNL     1       1.435   3.350  19.336  0.00  0.00    +0.000 A 
ATOM      4  C   UNL     1       1.833   2.559  18.259  0.00  0.00    +0.000 A 
ATOM      5  C   UNL     1       2.803   3.022  17.372  0.00  0.00    +0.000 A 
ATOM      6  C   UNL     1       3.328   4.309  17.519  0.00  0.00    +0.000 A 
ATOM      7  C   UNL     1       2.955   5.086  18.621  0.00  0.00    +0.000 A 
BRANCH   6   8
ATOM      8  O   UNL     1       4.253   4.870  16.664  0.00  0.00    +0.000 OA
BRANCH   8   9
ATOM      9  C   UNL     1       5.432   5.381  17.164  0.00  0.00    +0.000 A 
ATOM     10  C   UNL     1       6.405   4.623  17.823  0.00  0.00    +0.000 A 
ATOM     11  C   UNL     1       7.541   5.241  18.348  0.00  0.00    +0.000 A 
ATOM     12  C   UNL     1       7.746   6.605  18.153  0.00  0.00    +0.000 A 
ATOM     13  C   UNL     1       6.817   7.351  17.426  0.00  0.00    +0.000 A 
ATOM     14  C   UNL     1       5.662   6.739  16.933  0.00  0.00    +0.000 A 
ENDBRANCH   8   9
ENDBRANCH   6   8
ENDBRANCH   1   2
BRANCH   1  15
ATOM     15  N   UNL     1       2.140   6.794  20.674  0.00  0.00    +0.000 N 
ATOM     16  H   UNL     1       3.145   6.899  20.818  0.00  0.00    +0.000 HD
BRANCH  15  20
ATOM     17  C   UNL     1      -0.727  10.083  23.053  0.00  0.00    +0.000 C 
ATOM     18  C   UNL     1       0.037   9.684  21.813  0.00  0.00    +0.000 A 
ATOM     19  C   UNL     1       0.758   8.387  21.870  0.00  0.00    +0.000 A 
ATOM     20  C   UNL     1       1.437   7.994  20.778  0.00  0.00    +0.000 A 
ATOM     21  N   UNL     1       1.415   8.867  19.663  0.00  0.00    +0.000 N 
ATOM     22  N   UNL     1       2.028   8.725  18.448  0.00  0.00    +0.000 NA
ATOM     23  C   UNL     1       1.639   9.836  17.821  0.00  0.00    +0.000 A 
ATOM     24  N   UNL     1       0.851  10.685  18.530  0.00  0.00    +0.000 NA
ATOM     25  C   UNL     1       0.710  10.079  19.688  0.00  0.00    +0.000 A 
ATOM     26  N   UNL     1       0.010  10.487  20.790  0.00  0.00    +0.000 NA
ENDBRANCH  15  20
ENDBRANCH   1  15
TORSDOF 5
ENDMDL
MODEL 7
REMARK VINA RESULT:      -8.5      1.381      2.887
REMARK  Name = 
REMARK  6 active torsions:
REMARK  status: ('A' for Active; 'I' for Inactive)
REMARK    1  A    between atoms: C_1  and  C_2
REMARK    2  A    between atoms: C_4  and  N_5
REMARK    3  A    between atoms: N_5  and  C_6
REMARK    4  A    between atoms: C_6  and  C_7
REMARK    5  A    between atoms: C_11  and  O_12
REMARK    6  A    between atoms: O_12  and  C_13
REMARK                            x       y       z     vdW  Elec       q    Type
REMARK                         _______ _______ _______ _____ _____    ______ ____
ROOT
ATOM      1  C   UNL     1       4.689   3.630  19.694  0.00  0.00    +0.000 C 
ENDROOT
BRANCH   1   2
ATOM      2  C   UNL     1       3.566   4.421  19.055  0.00  0.00    +0.000 A 
ATOM      3  C   UNL     1       2.556   3.764  18.336  0.00  0.00    +0.000 A 
ATOM      4  C   UNL     1       1.547   4.488  17.704  0.00  0.00    +0.000 A 
ATOM      5  C   UNL     1       1.526   5.879  17.789  0.00  0.00    +0.000 A 
ATOM      6  C   UNL     1       2.474   6.547  18.569  0.00  0.00    +0.000 A 
ATOM      7  C   UNL     1       3.507   5.822  19.172  0.00  0.00    +0.000 A 
BRANCH   6   8
ATOM      8  O   UNL     1       2.501   7.913  18.752  0.00  0.00    +0.000 OA
BRANCH   8   9
ATOM      9  C   UNL     1       1.592   8.513  19.597  0.00  0.00    +0.000 A 
ATOM     10  C   UNL     1       1.355   8.113  20.916  0.00  0.00    +0.000 A 
ATOM     11  C   UNL     1       0.370   8.745  21.676  0.00  0.00    +0.000 A 
ATOM     12  C   UNL     1      -0.332   9.826  21.148  0.00  0.00    +0.000 A 
ATOM     13  C   UNL     1      -0.043  10.281  19.861  0.00  0.00    +0.000 A 
ATOM     14  C   UNL     1       0.917   9.625  19.087  0.00  0.00    +0.000 A 
ENDBRANCH   8   9
ENDBRANCH   6   8
ENDBRANCH   1   2
BRANCH   1  15
ATOM     15  N   UNL     1       5.860   3.564  18.834  0.00  0.00    +0.000 N 
ATOM     16  H   UNL     1       6.483   2.767  18.974  0.00  0.00    +0.000 HD
BRANCH  15  20
ATOM     17  C   UNL     1       8.236   7.900  18.344  0.00  0.00    +0.000 C 
ATOM     18  C   UNL     1       7.585   6.697  17.704  0.00  0.00    +0.000 A 
ATOM     19  C   UNL     1       7.039   5.672  18.630  0.00  0.00    +0.000 A 
ATOM     20  C   UNL     1       6.438   4.595  18.094  0.00  0.00    +0.000 A 
ATOM     21  N   UNL     1       6.390   4.526  16.680  0.00  0.00    +0.000 N 
ATOM     22  N   UNL     1       5.864   3.546  15.885  0.00  0.00    +0.000 NA
ATOM     23  C   UNL     1       6.098   4.035  14.667  0.00  0.00    +0.000 A 
ATOM     24  N   UNL     1       6.745   5.228  14.610  0.00  0.00    +0.000 NA
ATOM     25  C   UNL     1       6.931   5.538  15.874  0.00  0.00    +0.000 A 
ATOM     26  N   UNL     1       7.539   6.642  16.405  0.00  0.00    +0.000 NA
ENDBRANCH  15  20
ENDBRANCH   1  15
TORSDOF 5
ENDMDL
MODEL 8
REMARK VINA RESULT:      -8.4      3.252      6.855
REMARK  Name = 
REMARK  6 active torsions:
REMARK  status: ('A' for Active; 'I' for Inactive)
REMARK    1  A    between atoms: C_1  and  C_2
REMARK    2  A    between atoms: C_4  and  N_5
REMARK    3  A    between atoms: N_5  and  C_6
REMARK    4  A    between atoms: C_6  and  C_7
REMARK    5  A    between atoms: C_11  and  O_12
REMARK    6  A    between atoms: O_12  and  C_13
REMARK                            x       y       z     vdW  Elec       q    Type
REMARK                         _______ _______ _______ _____ _____    ______ ____
ROOT
ATOM      1  C   UNL     1       1.596   5.309  20.881  0.00  0.00    +0.000 C 
ENDROOT
BRANCH   1   2
ATOM      2  C   UNL     1       1.996   4.353  19.777  0.00  0.00    +0.000 A 
ATOM      3  C   UNL     1       1.526   3.031  19.780  0.00  0.00    +0.000 A 
ATOM      4  C   UNL     1       1.929   2.131  18.794  0.00  0.00    +0.000 A 
ATOM      5  C   UNL     1       2.799   2.541  17.786  0.00  0.00    +0.000 A 
ATOM      6  C   UNL     1       3.212   3.874  17.718  0.00  0.00    +0.000 A 
ATOM      7  C   UNL     1       2.836   4.767  18.728  0.00  0.00    +0.000 A 
BRANCH   6   8
ATOM      8  O   UNL     1       4.030   4.382  16.730  0.00  0.00    +0.000 OA
BRANCH   8   9
ATOM      9  C   UNL     1       5.128   5.143  17.069  0.00  0.00    +0.000 A 
ATOM     10  C   UNL     1       5.199   6.533  16.934  0.00  0.00    +0.000 A 
ATOM     11  C   UNL     1       6.377   7.211  17.249  0.00  0.00    +0.000 A 
ATOM     12  C   UNL     1       7.466   6.514  17.767  0.00  0.00    +0.000 A 
ATOM     13  C   UNL     1       7.373   5.137  17.978  0.00  0.00    +0.000 A 
ATOM     14  C   UNL     1       6.206   4.454  17.629  0.00  0.00    +0.000 A 
ENDBRANCH   8   9
ENDBRANCH   6   8
ENDBRANCH   1   2
BRANCH   1  15
ATOM     15  N   UNL     1       2.147   6.638  20.671  0.00  0.00    +0.000 N 
ATOM     16  H   UNL     1       3.165   6.719  20.698  0.00  0.00    +0.000 HD
BRANCH  15  20
ATOM     17  C   UNL     1      -0.591  10.020  23.070  0.00  0.00    +0.000 C 
ATOM     18  C   UNL     1       0.159   9.601  21.829  0.00  0.00    +0.000 A 
ATOM     19  C   UNL     1       0.828   8.276  21.877  0.00  0.00    +0.000 A 
ATOM     20  C   UNL     1       1.492   7.864  20.783  0.00  0.00    +0.000 A 
ATOM     21  N   UNL     1       1.508   8.747  19.675  0.00  0.00    +0.000 N 
ATOM     22  N   UNL     1       2.117   8.590  18.460  0.00  0.00    +0.000 NA
ATOM     23  C   UNL     1       1.774   9.720  17.841  0.00  0.00    +0.000 A 
ATOM     24  N   UNL     1       1.018  10.595  18.556  0.00  0.00    +0.000 NA
ATOM     25  C   UNL     1       0.851   9.986  19.709  0.00  0.00    +0.000 A 
ATOM     26  N   UNL     1       0.166  10.413  20.812  0.00  0.00    +0.000 NA
ENDBRANCH  15  20
ENDBRANCH   1  15
TORSDOF 5
ENDMDL
MODEL 9
REMARK VINA RESULT:      -8.3      4.759      7.389
REMARK  Name = 
REMARK  6 active torsions:
REMARK  status: ('A' for Active; 'I' for Inactive)
REMARK    1  A    between atoms: C_1  and  C_2
REMARK    2  A    between atoms: C_4  and  N_5
REMARK    3  A    between atoms: N_5  and  C_6
REMARK    4  A    between atoms: C_6  and  C_7
REMARK    5  A    between atoms: C_11  and  O_12
REMARK    6  A    between atoms: O_12  and  C_13
REMARK                            x       y       z     vdW  Elec       q    Type
REMARK                         _______ _______ _______ _____ _____    ______ ____
ROOT
ATOM      1  C   UNL     1       8.059   9.132  17.634  0.00  0.00    +0.000 C 
ENDROOT
BRANCH   1   2
ATOM      2  C   UNL     1       7.612   7.704  17.870  0.00  0.00    +0.000 A 
ATOM      3  C   UNL     1       8.235   6.920  18.853  0.00  0.00    +0.000 A 
ATOM      4  C   UNL     1       7.863   5.590  19.044  0.00  0.00    +0.000 A 
ATOM      5  C   UNL     1       6.854   5.028  18.264  0.00  0.00    +0.000 A 
ATOM      6  C   UNL     1       6.164   5.815  17.338  0.00  0.00    +0.000 A 
ATOM      7  C   UNL     1       6.563   7.138  17.123  0.00  0.00    +0.000 A 
BRANCH   6   8
ATOM      8  O   UNL     1       5.121   5.359  16.560  0.00  0.00    +0.000 OA
BRANCH   8   9
ATOM      9  C   UNL     1       4.034   4.751  17.152  0.00  0.00    +0.000 A 
ATOM     10  C   UNL     1       3.797   3.373  17.143  0.00  0.00    +0.000 A 
ATOM     11  C   UNL     1       2.636   2.856  17.719  0.00  0.00    +0.000 A 
ATOM     12  C   UNL     1       1.743   3.704  18.370  0.00  0.00    +0.000 A 
ATOM     13  C   UNL     1       2.015   5.070  18.452  0.00  0.00    +0.000 A 
ATOM     14  C   UNL     1       3.159   5.593  17.843  0.00  0.00    +0.000 A 
ENDBRANCH   8   9
ENDBRANCH   6   8
ENDBRANCH   1   2
BRANCH   1  15
ATOM     15  N   UNL     1       8.834   9.648  18.751  0.00  0.00    +0.000 N 
ATOM     16  H   UNL     1       8.660   9.219  19.662  0.00  0.00    +0.000 HD
BRANCH  15  20
ATOM     17  C   UNL     1      11.675  13.286  16.912  0.00  0.00    +0.000 C 
ATOM     18  C   UNL     1      10.901  12.703  18.070  0.00  0.00    +0.000 A 
ATOM     19  C   UNL     1      10.204  11.416  17.817  0.00  0.00    +0.000 A 
ATOM     20  C   UNL     1       9.517  10.861  18.831  0.00  0.00    +0.000 A 
ATOM     21  N   UNL     1       9.508  11.566  20.059  0.00  0.00    +0.000 N 
ATOM     22  N   UNL     1       8.881  11.243  21.231  0.00  0.00    +0.000 NA
ATOM     23  C   UNL     1       9.241  12.259  22.016  0.00  0.00    +0.000 A 
ATOM     24  N   UNL     1      10.025  13.212  21.448  0.00  0.00    +0.000 NA
ATOM     25  C   UNL     1      10.192  12.780  20.218  0.00  0.00    +0.000 A 
ATOM     26  N   UNL     1      10.900  13.352  19.197  0.00  0.00    +0.000 NA
ENDBRANCH  15  20
ENDBRANCH   1  15
TORSDOF 5
ENDMDL
