MODEL 1
REMARK VINA RESULT:      -8.4      0.000      0.000
REMARK  Name = 
REMARK  4 active torsions:
REMARK  status: ('A' for Active; 'I' for Inactive)
REMARK    1  A    between atoms: C_1  and  C_2
REMARK    2  A    between atoms: C_2  and  C_3
REMARK    3  A    between atoms: C_5  and  N_6
REMARK    4  A    between atoms: C_7  and  C_9
REMARK                            x       y       z     vdW  Elec       q    Type
REMARK                         _______ _______ _______ _____ _____    ______ ____
ROOT
ATOM      1  N   UNL     1       4.499   3.827  16.380  0.00  0.00    +0.000 N 
ATOM      2  C   UNL     1       3.784   3.012  17.241  0.00  0.00    +0.000 C 
ATOM      3  O   UNL     1       4.101   1.893  17.606  0.00  0.00    +0.000 OA
ATOM      4  H   UNL     1       4.119   4.766  16.317  0.00  0.00    +0.000 HD
ENDROOT
BRANCH   1   9
ATOM      5  C   UNL     1       7.903   6.732  17.715  0.00  0.00    +0.000 C 
ATOM      6  C   UNL     1       6.990   6.006  16.711  0.00  0.00    +0.000 C 
ATOM      7  C   UNL     1       5.745   6.883  16.511  0.00  0.00    +0.000 C 
ATOM      8  C   UNL     1       6.715   4.584  17.232  0.00  0.00    +0.000 C 
ATOM      9  C   UNL     1       5.943   3.703  16.233  0.00  0.00    +0.000 C 
ATOM     10  C   UNL     1       6.359   4.027  14.819  0.00  0.00    +0.000 A 
ATOM     11  C   UNL     1       5.899   3.236  13.753  0.00  0.00    +0.000 A 
ATOM     12  C   UNL     1       6.290   3.515  12.446  0.00  0.00    +0.000 A 
ATOM     13  F   UNL     1       5.826   2.760  11.445  0.00  0.00    +0.000 F 
ATOM     14  C   UNL     1       7.148   4.573  12.170  0.00  0.00    +0.000 A 
ATOM     15  C   UNL     1       7.619   5.363  13.217  0.00  0.00    +0.000 A 
ATOM     16  C   UNL     1       7.215   5.099  14.530  0.00  0.00    +0.000 A 
ATOM     17  O   UNL     1       7.720   5.949  15.474  0.00  0.00    +0.000 OA
ENDBRANCH   1   9
BRANCH   2  18
ATOM     18  C   UNL     1       2.680   3.787  17.967  0.00  0.00    +0.000 A 
ATOM     19  N   UNL     1       2.304   4.882  17.363  0.00  0.00    +0.000 NA
ATOM     20  N   UNL     1       1.781   5.870  18.153  0.00  0.00    +0.000 N 
ATOM     21  C   UNL     1       2.052   5.927  19.506  0.00  0.00    +0.000 A 
ATOM     22  O   UNL     1       2.141   6.974  20.127  0.00  0.00    +0.000 OA
ATOM     23  C   UNL     1       2.156   4.614  20.166  0.00  0.00    +0.000 A 
ATOM     24  C   UNL     1       1.963   4.494  21.545  0.00  0.00    +0.000 A 
ATOM     25  C   UNL     1       1.794   3.222  22.091  0.00  0.00    +0.000 A 
ATOM     26  C   UNL     1       1.827   2.094  21.266  0.00  0.00    +0.000 A 
ATOM     27  C   UNL     1       2.116   2.218  19.899  0.00  0.00    +0.000 A 
ATOM     28  C   UNL     1       2.319   3.490  19.364  0.00  0.00    +0.000 A 
ATOM     29  H   UNL     1       1.673   6.769  17.696  0.00  0.00    +0.000 HD
ENDBRANCH   2  18
TORSDOF 2
ENDMDL
MODEL 2
REMARK VINA RESULT:      -8.3      3.851      6.091
REMARK  Name = 
REMARK  4 active torsions:
REMARK  status: ('A' for Active; 'I' for Inactive)
REMARK    1  A    between atoms: C_1  and  C_2
REMARK    2  A    between atoms: C_2  and  C_3
REMARK    3  A    between atoms: C_5  and  N_6
REMARK    4  A    between atoms: C_7  and  C_9
REMARK                            x       y       z     vdW  Elec       q    Type
REMARK                         _______ _______ _______ _____ _____    ______ ____
ROOT
ATOM      1  N   UNL     1       2.192   7.288  18.658  0.00  0.00    +0.000 N 
ATOM      2  C   UNL     1       2.020   8.526  18.062  0.00  0.00    +0.000 C 
ATOM      3  O   UNL     1       2.584   8.930  17.060  0.00  0.00    +0.000 OA
ATOM      4  H   UNL     1       1.527   7.113  19.405  0.00  0.00    +0.000 HD
ENDROOT
BRANCH   1   9
ATOM      5  C   UNL     1       1.646   2.739  19.557  0.00  0.00    +0.000 C 
ATOM      6  C   UNL     1       2.425   4.058  19.411  0.00  0.00    +0.000 C 
ATOM      7  C   UNL     1       2.385   4.762  20.776  0.00  0.00    +0.000 C 
ATOM      8  C   UNL     1       1.828   4.859  18.241  0.00  0.00    +0.000 C 
ATOM      9  C   UNL     1       2.628   6.127  17.894  0.00  0.00    +0.000 C 
ATOM     10  C   UNL     1       4.104   5.887  18.097  0.00  0.00    +0.000 A 
ATOM     11  C   UNL     1       5.036   6.857  17.691  0.00  0.00    +0.000 A 
ATOM     12  C   UNL     1       6.401   6.639  17.858  0.00  0.00    +0.000 A 
ATOM     13  F   UNL     1       7.270   7.583  17.480  0.00  0.00    +0.000 F 
ATOM     14  C   UNL     1       6.870   5.457  18.419  0.00  0.00    +0.000 A 
ATOM     15  C   UNL     1       5.959   4.482  18.821  0.00  0.00    +0.000 A 
ATOM     16  C   UNL     1       4.585   4.703  18.673  0.00  0.00    +0.000 A 
ATOM     17  O   UNL     1       3.784   3.690  19.120  0.00  0.00    +0.000 OA
ENDBRANCH   1   9
BRANCH   2  18
ATOM     18  C   UNL     1       0.786   9.251  18.609  0.00  0.00    +0.000 A 
ATOM     19  N   UNL     1       0.119   9.929  17.713  0.00  0.00    +0.000 NA
ATOM     20  N   UNL     1      -0.604  10.999  18.167  0.00  0.00    +0.000 N 
ATOM     21  C   UNL     1      -0.300  11.617  19.365  0.00  0.00    +0.000 A 
ATOM     22  O   UNL     1      -0.454  12.812  19.559  0.00  0.00    +0.000 OA
ATOM     23  C   UNL     1       0.163  10.704  20.425  0.00  0.00    +0.000 A 
ATOM     24  C   UNL     1       0.064  11.068  21.770  0.00  0.00    +0.000 A 
ATOM     25  C   UNL     1       0.247  10.089  22.746  0.00  0.00    +0.000 A 
ATOM     26  C   UNL     1       0.530   8.772  22.375  0.00  0.00    +0.000 A 
ATOM     27  C   UNL     1       0.721   8.436  21.026  0.00  0.00    +0.000 A 
ATOM     28  C   UNL     1       0.572   9.427  20.056  0.00  0.00    +0.000 A 
ATOM     29  H   UNL     1      -0.956  11.614  17.442  0.00  0.00    +0.000 HD
ENDBRANCH   2  18
TORSDOF 2
ENDMDL
MODEL 3
REMARK VINA RESULT:      -8.3      4.346      6.464
REMARK  Name = 
REMARK  4 active torsions:
REMARK  status: ('A' for Active; 'I' for Inactive)
REMARK    1  A    between atoms: C_1  and  C_2
REMARK    2  A    between atoms: C_2  and  C_3
REMARK    3  A    between atoms: C_5  and  N_6
REMARK    4  A    between atoms: C_7  and  C_9
REMARK                            x       y       z     vdW  Elec       q    Type
REMARK                         _______ _______ _______ _____ _____    ______ ____
ROOT
ATOM      1  N   UNL     1       2.341   7.324  18.313  0.00  0.00    +0.000 N 
ATOM      2  C   UNL     1       1.675   8.272  19.071  0.00  0.00    +0.000 C 
ATOM      3  O   UNL     1       1.427   8.199  20.262  0.00  0.00    +0.000 OA
ATOM      4  H   UNL     1       2.553   7.647  17.373  0.00  0.00    +0.000 HD
ENDROOT
BRANCH   1   9
ATOM      5  C   UNL     1       6.805   6.509  17.210  0.00  0.00    +0.000 C 
ATOM      6  C   UNL     1       5.302   6.190  17.311  0.00  0.00    +0.000 C 
ATOM      7  C   UNL     1       4.641   6.707  16.024  0.00  0.00    +0.000 C 
ATOM      8  C   UNL     1       4.756   6.792  18.618  0.00  0.00    +0.000 C 
ATOM      9  C   UNL     1       3.296   6.401  18.910  0.00  0.00    +0.000 C 
ATOM     10  C   UNL     1       3.029   4.991  18.444  0.00  0.00    +0.000 A 
ATOM     11  C   UNL     1       1.807   4.370  18.752  0.00  0.00    +0.000 A 
ATOM     12  C   UNL     1       1.556   3.063  18.341  0.00  0.00    +0.000 A 
ATOM     13  F   UNL     1       0.379   2.496  18.630  0.00  0.00    +0.000 F 
ATOM     14  C   UNL     1       2.508   2.344  17.629  0.00  0.00    +0.000 A 
ATOM     15  C   UNL     1       3.729   2.944  17.322  0.00  0.00    +0.000 A 
ATOM     16  C   UNL     1       3.979   4.263  17.716  0.00  0.00    +0.000 A 
ATOM     17  O   UNL     1       5.199   4.757  17.343  0.00  0.00    +0.000 OA
ENDBRANCH   1   9
BRANCH   2  18
ATOM     18  C   UNL     1       1.547   9.605  18.327  0.00  0.00    +0.000 A 
ATOM     19  N   UNL     1       2.625   9.969  17.686  0.00  0.00    +0.000 NA
ATOM     20  N   UNL     1       2.796  11.312  17.489  0.00  0.00    +0.000 N 
ATOM     21  C   UNL     1       2.163  12.244  18.288  0.00  0.00    +0.000 A 
ATOM     22  O   UNL     1       2.654  13.323  18.575  0.00  0.00    +0.000 OA
ATOM     23  C   UNL     1       0.805  11.862  18.715  0.00  0.00    +0.000 A 
ATOM     24  C   UNL     1      -0.116  12.835  19.110  0.00  0.00    +0.000 A 
ATOM     25  C   UNL     1      -1.458  12.477  19.240  0.00  0.00    +0.000 A 
ATOM     26  C   UNL     1      -1.861  11.164  18.983  0.00  0.00    +0.000 A 
ATOM     27  C   UNL     1      -0.916  10.173  18.680  0.00  0.00    +0.000 A 
ATOM     28  C   UNL     1       0.430  10.529  18.586  0.00  0.00    +0.000 A 
ATOM     29  H   UNL     1       3.718  11.581  17.161  0.00  0.00    +0.000 HD
ENDBRANCH   2  18
TORSDOF 2
ENDMDL
MODEL 4
REMARK VINA RESULT:      -8.0      9.099     12.347
REMARK  Name = 
REMARK  4 active torsions:
REMARK  status: ('A' for Active; 'I' for Inactive)
REMARK    1  A    between atoms: C_1  and  C_2
REMARK    2  A    between atoms: C_2  and  C_3
REMARK    3  A    between atoms: C_5  and  N_6
REMARK    4  A    between atoms: C_7  and  C_9
REMARK                            x       y       z     vdW  Elec       q    Type
REMARK                         _______ _______ _______ _____ _____    ______ ____
ROOT
ATOM      1  N   UNL     1      -3.247  12.146  21.813  0.00  0.00    +0.000 N 
ATOM      2  C   UNL     1      -4.150  13.178  22.003  0.00  0.00    +0.000 C 
ATOM      3  O   UNL     1      -3.876  14.345  22.222  0.00  0.00    +0.000 OA
ATOM      4  H   UNL     1      -3.691  11.282  21.516  0.00  0.00    +0.000 HD
ENDROOT
BRANCH   1   9
ATOM      5  C   UNL     1      -1.647  12.111  17.427  0.00  0.00    +0.000 C 
ATOM      6  C   UNL     1      -1.816  11.587  18.864  0.00  0.00    +0.000 C 
ATOM      7  C   UNL     1      -3.042  10.662  18.869  0.00  0.00    +0.000 C 
ATOM      8  C   UNL     1      -1.895  12.789  19.822  0.00  0.00    +0.000 C 
ATOM      9  C   UNL     1      -1.903  12.389  21.309  0.00  0.00    +0.000 C 
ATOM     10  C   UNL     1      -1.029  11.179  21.530  0.00  0.00    +0.000 A 
ATOM     11  C   UNL     1      -0.763  10.735  22.836  0.00  0.00    +0.000 A 
ATOM     12  C   UNL     1       0.055   9.630  23.053  0.00  0.00    +0.000 A 
ATOM     13  F   UNL     1       0.282   9.213  24.304  0.00  0.00    +0.000 F 
ATOM     14  C   UNL     1       0.632   8.950  21.987  0.00  0.00    +0.000 A 
ATOM     15  C   UNL     1       0.384   9.382  20.685  0.00  0.00    +0.000 A 
ATOM     16  C   UNL     1      -0.453  10.481  20.460  0.00  0.00    +0.000 A 
ATOM     17  O   UNL     1      -0.644  10.804  19.145  0.00  0.00    +0.000 OA
ENDBRANCH   1   9
BRANCH   2  18
ATOM     18  C   UNL     1      -5.569  12.774  21.590  0.00  0.00    +0.000 A 
ATOM     19  N   UNL     1      -6.328  12.388  22.581  0.00  0.00    +0.000 NA
ATOM     20  N   UNL     1      -7.343  11.522  22.275  0.00  0.00    +0.000 N 
ATOM     21  C   UNL     1      -7.302  10.740  21.137  0.00  0.00    +0.000 A 
ATOM     22  O   UNL     1      -7.785   9.621  21.077  0.00  0.00    +0.000 OA
ATOM     23  C   UNL     1      -6.687  11.392  19.967  0.00  0.00    +0.000 A 
ATOM     24  C   UNL     1      -6.975  10.950  18.674  0.00  0.00    +0.000 A 
ATOM     25  C   UNL     1      -6.605  11.749  17.593  0.00  0.00    +0.000 A 
ATOM     26  C   UNL     1      -5.952  12.965  17.810  0.00  0.00    +0.000 A 
ATOM     27  C   UNL     1      -5.583  13.355  19.106  0.00  0.00    +0.000 A 
ATOM     28  C   UNL     1      -5.924  12.535  20.181  0.00  0.00    +0.000 A 
ATOM     29  H   UNL     1      -7.795  11.095  23.076  0.00  0.00    +0.000 HD
ENDBRANCH   2  18
TORSDOF 2
ENDMDL
MODEL 5
REMARK VINA RESULT:      -7.9      4.436      6.971
REMARK  Name = 
REMARK  4 active torsions:
REMARK  status: ('A' for Active; 'I' for Inactive)
REMARK    1  A    between atoms: C_1  and  C_2
REMARK    2  A    between atoms: C_2  and  C_3
REMARK    3  A    between atoms: C_5  and  N_6
REMARK    4  A    between atoms: C_7  and  C_9
REMARK                            x       y       z     vdW  Elec       q    Type
REMARK                         _______ _______ _______ _____ _____    ______ ____
ROOT
ATOM      1  N   UNL     1       2.437   7.692  18.811  0.00  0.00    +0.000 N 
ATOM      2  C   UNL     1       2.223   8.924  18.217  0.00  0.00    +0.000 C 
ATOM      3  O   UNL     1       2.497   9.229  17.069  0.00  0.00    +0.000 OA
ATOM      4  H   UNL     1       2.014   7.618  19.732  0.00  0.00    +0.000 HD
ENDROOT
BRANCH   1   9
ATOM      5  C   UNL     1       0.978   3.385  19.874  0.00  0.00    +0.000 C 
ATOM      6  C   UNL     1       2.015   4.491  19.605  0.00  0.00    +0.000 C 
ATOM      7  C   UNL     1       2.305   5.178  20.949  0.00  0.00    +0.000 C 
ATOM      8  C   UNL     1       1.479   5.414  18.498  0.00  0.00    +0.000 C 
ATOM      9  C   UNL     1       2.499   6.466  18.027  0.00  0.00    +0.000 C 
ATOM     10  C   UNL     1       3.894   5.892  18.057  0.00  0.00    +0.000 A 
ATOM     11  C   UNL     1       4.966   6.624  17.519  0.00  0.00    +0.000 A 
ATOM     12  C   UNL     1       6.254   6.097  17.525  0.00  0.00    +0.000 A 
ATOM     13  F   UNL     1       7.263   6.818  17.023  0.00  0.00    +0.000 F 
ATOM     14  C   UNL     1       6.506   4.836  18.053  0.00  0.00    +0.000 A 
ATOM     15  C   UNL     1       5.453   4.094  18.583  0.00  0.00    +0.000 A 
ATOM     16  C   UNL     1       4.158   4.626  18.597  0.00  0.00    +0.000 A 
ATOM     17  O   UNL     1       3.207   3.822  19.161  0.00  0.00    +0.000 OA
ENDBRANCH   1   9
BRANCH   2  18
ATOM     18  C   UNL     1       1.294   9.806  19.058  0.00  0.00    +0.000 A 
ATOM     19  N   UNL     1       0.425   9.142  19.773  0.00  0.00    +0.000 NA
ATOM     20  N   UNL     1      -0.738   9.794  20.085  0.00  0.00    +0.000 N 
ATOM     21  C   UNL     1      -1.185  10.865  19.335  0.00  0.00    +0.000 A 
ATOM     22  O   UNL     1      -2.368  11.109  19.157  0.00  0.00    +0.000 OA
ATOM     23  C   UNL     1      -0.118  11.740  18.820  0.00  0.00    +0.000 A 
ATOM     24  C   UNL     1      -0.393  13.063  18.464  0.00  0.00    +0.000 A 
ATOM     25  C   UNL     1       0.672  13.936  18.248  0.00  0.00    +0.000 A 
ATOM     26  C   UNL     1       1.988  13.484  18.381  0.00  0.00    +0.000 A 
ATOM     27  C   UNL     1       2.255  12.132  18.645  0.00  0.00    +0.000 A 
ATOM     28  C   UNL     1       1.185  11.256  18.825  0.00  0.00    +0.000 A 
ATOM     29  H   UNL     1      -1.466   9.205  20.472  0.00  0.00    +0.000 HD
ENDBRANCH   2  18
TORSDOF 2
ENDMDL
MODEL 6
REMARK VINA RESULT:      -7.8      3.856      6.206
REMARK  Name = 
REMARK  4 active torsions:
REMARK  status: ('A' for Active; 'I' for Inactive)
REMARK    1  A    between atoms: C_1  and  C_2
REMARK    2  A    between atoms: C_2  and  C_3
REMARK    3  A    between atoms: C_5  and  N_6
REMARK    4  A    between atoms: C_7  and  C_9
REMARK                            x       y       z     vdW  Elec       q    Type
REMARK                         _______ _______ _______ _____ _____    ______ ____
ROOT
ATOM      1  N   UNL     1       3.020   7.775  18.368  0.00  0.00    +0.000 N 
ATOM      2  C   UNL     1       1.918   8.613  18.378  0.00  0.00    +0.000 C 
ATOM      3  O   UNL     1       1.123   8.770  17.468  0.00  0.00    +0.000 OA
ATOM      4  H   UNL     1       3.468   7.701  19.276  0.00  0.00    +0.000 HD
ENDROOT
BRANCH   1   9
ATOM      5  C   UNL     1       1.417   3.461  19.156  0.00  0.00    +0.000 C 
ATOM      6  C   UNL     1       2.490   4.550  18.976  0.00  0.00    +0.000 C 
ATOM      7  C   UNL     1       2.759   5.156  20.362  0.00  0.00    +0.000 C 
ATOM      8  C   UNL     1       2.011   5.545  17.905  0.00  0.00    +0.000 C 
ATOM      9  C   UNL     1       3.072   6.591  17.521  0.00  0.00    +0.000 C 
ATOM     10  C   UNL     1       4.450   5.977  17.558  0.00  0.00    +0.000 A 
ATOM     11  C   UNL     1       5.556   6.707  17.091  0.00  0.00    +0.000 A 
ATOM     12  C   UNL     1       6.830   6.144  17.104  0.00  0.00    +0.000 A 
ATOM     13  F   UNL     1       7.872   6.861  16.670  0.00  0.00    +0.000 F 
ATOM     14  C   UNL     1       7.032   4.850  17.570  0.00  0.00    +0.000 A 
ATOM     15  C   UNL     1       5.944   4.110  18.030  0.00  0.00    +0.000 A 
ATOM     16  C   UNL     1       4.665   4.678  18.036  0.00  0.00    +0.000 A 
ATOM     17  O   UNL     1       3.676   3.872  18.529  0.00  0.00    +0.000 OA
ENDBRANCH   1   9
BRANCH   2  18
ATOM     18  C   UNL     1       1.593   9.106  19.792  0.00  0.00    +0.000 A 
ATOM     19  N   UNL     1       1.846   8.238  20.735  0.00  0.00    +0.000 NA
ATOM     20  N   UNL     1       1.109   8.348  21.883  0.00  0.00    +0.000 N 
ATOM     21  C   UNL     1      -0.114   8.990  21.894  0.00  0.00    +0.000 A 
ATOM     22  O   UNL     1      -1.037   8.659  22.620  0.00  0.00    +0.000 OA
ATOM     23  C   UNL     1      -0.198  10.162  21.004  0.00  0.00    +0.000 A 
ATOM     24  C   UNL     1      -1.149  11.160  21.231  0.00  0.00    +0.000 A 
ATOM     25  C   UNL     1      -1.025  12.372  20.553  0.00  0.00    +0.000 A 
ATOM     26  C   UNL     1       0.031  12.572  19.659  0.00  0.00    +0.000 A 
ATOM     27  C   UNL     1       0.924  11.531  19.367  0.00  0.00    +0.000 A 
ATOM     28  C   UNL     1       0.775  10.308  20.022  0.00  0.00    +0.000 A 
ATOM     29  H   UNL     1       1.188   7.561  22.517  0.00  0.00    +0.000 HD
ENDBRANCH   2  18
TORSDOF 2
ENDMDL
MODEL 7
REMARK VINA RESULT:      -7.8      3.771      5.945
REMARK  Name = 
REMARK  4 active torsions:
REMARK  status: ('A' for Active; 'I' for Inactive)
REMARK    1  A    between atoms: C_1  and  C_2
REMARK    2  A    between atoms: C_2  and  C_3
REMARK    3  A    between atoms: C_5  and  N_6
REMARK    4  A    between atoms: C_7  and  C_9
REMARK                            x       y       z     vdW  Elec       q    Type
REMARK                         _______ _______ _______ _____ _____    ______ ____
ROOT
ATOM      1  N   UNL     1       2.819   6.617  19.603  0.00  0.00    +0.000 N 
ATOM      2  C   UNL     1       1.742   6.781  20.458  0.00  0.00    +0.000 C 
ATOM      3  O   UNL     1       1.168   5.900  21.074  0.00  0.00    +0.000 OA
ATOM      4  H   UNL     1       3.221   7.499  19.300  0.00  0.00    +0.000 HD
ENDROOT
BRANCH   1   9
ATOM      5  C   UNL     1       7.003   5.931  17.649  0.00  0.00    +0.000 C 
ATOM      6  C   UNL     1       5.501   5.684  17.873  0.00  0.00    +0.000 C 
ATOM      7  C   UNL     1       4.740   6.616  16.917  0.00  0.00    +0.000 C 
ATOM      8  C   UNL     1       5.185   5.877  19.367  0.00  0.00    +0.000 C 
ATOM      9  C   UNL     1       3.742   5.499  19.743  0.00  0.00    +0.000 C 
ATOM     10  C   UNL     1       3.276   4.325  18.918  0.00  0.00    +0.000 A 
ATOM     11  C   UNL     1       2.045   3.710  19.204  0.00  0.00    +0.000 A 
ATOM     12  C   UNL     1       1.613   2.615  18.460  0.00  0.00    +0.000 A 
ATOM     13  F   UNL     1       0.430   2.056  18.738  0.00  0.00    +0.000 F 
ATOM     14  C   UNL     1       2.391   2.102  17.430  0.00  0.00    +0.000 A 
ATOM     15  C   UNL     1       3.618   2.695  17.138  0.00  0.00    +0.000 A 
ATOM     16  C   UNL     1       4.049   3.808  17.870  0.00  0.00    +0.000 A 
ATOM     17  O   UNL     1       5.256   4.322  17.485  0.00  0.00    +0.000 OA
ENDBRANCH   1   9
BRANCH   2  18
ATOM     18  C   UNL     1       1.523   8.254  20.818  0.00  0.00    +0.000 A 
ATOM     19  N   UNL     1       1.762   8.543  22.069  0.00  0.00    +0.000 NA
ATOM     20  N   UNL     1       1.092   9.618  22.589  0.00  0.00    +0.000 N 
ATOM     21  C   UNL     1      -0.081  10.077  22.022  0.00  0.00    +0.000 A 
ATOM     22  O   UNL     1      -0.988  10.574  22.670  0.00  0.00    +0.000 OA
ATOM     23  C   UNL     1      -0.127   9.986  20.552  0.00  0.00    +0.000 A 
ATOM     24  C   UNL     1      -0.993  10.799  19.816  0.00  0.00    +0.000 A 
ATOM     25  C   UNL     1      -0.818  10.890  18.435  0.00  0.00    +0.000 A 
ATOM     26  C   UNL     1       0.203  10.171  17.809  0.00  0.00    +0.000 A 
ATOM     27  C   UNL     1       1.006   9.284  18.542  0.00  0.00    +0.000 A 
ATOM     28  C   UNL     1       0.804   9.171  19.917  0.00  0.00    +0.000 A 
ATOM     29  H   UNL     1       1.147   9.708  23.598  0.00  0.00    +0.000 HD
ENDBRANCH   2  18
TORSDOF 2
ENDMDL
MODEL 8
REMARK VINA RESULT:      -7.6     10.409     13.588
REMARK  Name = 
REMARK  4 active torsions:
REMARK  status: ('A' for Active; 'I' for Inactive)
REMARK    1  A    between atoms: C_1  and  C_2
REMARK    2  A    between atoms: C_2  and  C_3
REMARK    3  A    between atoms: C_5  and  N_6
REMARK    4  A    between atoms: C_7  and  C_9
REMARK                            x       y       z     vdW  Elec       q    Type
REMARK                         _______ _______ _______ _____ _____    ______ ____
ROOT
ATOM      1  N   UNL     1      -3.443  12.233  23.559  0.00  0.00    +0.000 N 
ATOM      2  C   UNL     1      -4.402  12.452  24.533  0.00  0.00    +0.000 C 
ATOM      3  O   UNL     1      -4.198  12.612  25.724  0.00  0.00    +0.000 OA
ATOM      4  H   UNL     1      -3.822  12.257  22.618  0.00  0.00    +0.000 HD
ENDROOT
BRANCH   1   9
ATOM      5  C   UNL     1      -1.380  16.066  21.869  0.00  0.00    +0.000 C 
ATOM      6  C   UNL     1      -1.665  14.557  21.980  0.00  0.00    +0.000 C 
ATOM      7  C   UNL     1      -2.815  14.239  21.012  0.00  0.00    +0.000 C 
ATOM      8  C   UNL     1      -1.934  14.212  23.455  0.00  0.00    +0.000 C 
ATOM      9  C   UNL     1      -2.073  12.702  23.717  0.00  0.00    +0.000 C 
ATOM     10  C   UNL     1      -1.143  11.927  22.816  0.00  0.00    +0.000 A 
ATOM     11  C   UNL     1      -0.988  10.541  22.993  0.00  0.00    +0.000 A 
ATOM     12  C   UNL     1      -0.120   9.819  22.178  0.00  0.00    +0.000 A 
ATOM     13  F   UNL     1       0.000   8.498  22.352  0.00  0.00    +0.000 F 
ATOM     14  C   UNL     1       0.616  10.451  21.183  0.00  0.00    +0.000 A 
ATOM     15  C   UNL     1       0.479  11.826  21.000  0.00  0.00    +0.000 A 
ATOM     16  C   UNL     1      -0.406  12.554  21.803  0.00  0.00    +0.000 A 
ATOM     17  O   UNL     1      -0.477  13.891  21.522  0.00  0.00    +0.000 OA
ENDBRANCH   1   9
BRANCH   2  18
ATOM     18  C   UNL     1      -5.763  12.799  23.921  0.00  0.00    +0.000 A 
ATOM     19  N   UNL     1      -6.636  11.828  23.966  0.00  0.00    +0.000 NA
ATOM     20  N   UNL     1      -7.610  11.834  23.005  0.00  0.00    +0.000 N 
ATOM     21  C   UNL     1      -7.436  12.504  21.809  0.00  0.00    +0.000 A 
ATOM     22  O   UNL     1      -7.913  12.122  20.753  0.00  0.00    +0.000 OA
ATOM     23  C   UNL     1      -6.684  13.766  21.918  0.00  0.00    +0.000 A 
ATOM     24  C   UNL     1      -6.816  14.759  20.945  0.00  0.00    +0.000 A 
ATOM     25  C   UNL     1      -6.317  16.033  21.212  0.00  0.00    +0.000 A 
ATOM     26  C   UNL     1      -5.691  16.299  22.433  0.00  0.00    +0.000 A 
ATOM     27  C   UNL     1      -5.478  15.272  23.365  0.00  0.00    +0.000 A 
ATOM     28  C   UNL     1      -5.948  13.991  23.076  0.00  0.00    +0.000 A 
ATOM     29  H   UNL     1      -8.156  10.982  22.946  0.00  0.00    +0.000 HD
ENDBRANCH   2  18
TORSDOF 2
ENDMDL
MODEL 9
REMARK VINA RESULT:      -7.6      3.449      5.892
REMARK  Name = 
REMARK  4 active torsions:
REMARK  status: ('A' for Active; 'I' for Inactive)
REMARK    1  A    between atoms: C_1  and  C_2
REMARK    2  A    between atoms: C_2  and  C_3
REMARK    3  A    between atoms: C_5  and  N_6
REMARK    4  A    between atoms: C_7  and  C_9
REMARK                            x       y       z     vdW  Elec       q    Type
REMARK                         _______ _______ _______ _____ _____    ______ ____
ROOT
ATOM      1  N   UNL     1       2.795   6.743  18.601  0.00  0.00    +0.000 N 
ATOM      2  C   UNL     1       2.423   8.060  18.391  0.00  0.00    +0.000 C 
ATOM      3  O   UNL     1       2.272   8.603  17.310  0.00  0.00    +0.000 OA
ATOM      4  H   UNL     1       2.733   6.466  19.576  0.00  0.00    +0.000 HD
ENDROOT
BRANCH   1   9
ATOM      5  C   UNL     1       1.231   2.384  19.196  0.00  0.00    +0.000 C 
ATOM      6  C   UNL     1       2.270   3.470  18.864  0.00  0.00    +0.000 C 
ATOM      7  C   UNL     1       2.968   3.848  20.180  0.00  0.00    +0.000 C 
ATOM      8  C   UNL     1       1.560   4.629  18.142  0.00  0.00    +0.000 C 
ATOM      9  C   UNL     1       2.525   5.706  17.614  0.00  0.00    +0.000 C 
ATOM     10  C   UNL     1       3.813   5.072  17.150  0.00  0.00    +0.000 A 
ATOM     11  C   UNL     1       4.777   5.849  16.484  0.00  0.00    +0.000 A 
ATOM     12  C   UNL     1       5.962   5.272  16.036  0.00  0.00    +0.000 A 
ATOM     13  F   UNL     1       6.873   6.032  15.420  0.00  0.00    +0.000 F 
ATOM     14  C   UNL     1       6.212   3.918  16.227  0.00  0.00    +0.000 A 
ATOM     15  C   UNL     1       5.262   3.132  16.879  0.00  0.00    +0.000 A 
ATOM     16  C   UNL     1       4.078   3.711  17.348  0.00  0.00    +0.000 A 
ATOM     17  O   UNL     1       3.229   2.853  17.991  0.00  0.00    +0.000 OA
ENDBRANCH   1   9
BRANCH   2  18
ATOM     18  C   UNL     1       1.895   8.712  19.673  0.00  0.00    +0.000 A 
ATOM     19  N   UNL     1       2.070   7.995  20.751  0.00  0.00    +0.000 NA
ATOM     20  N   UNL     1       1.187   8.205  21.776  0.00  0.00    +0.000 N 
ATOM     21  C   UNL     1      -0.059   8.757  21.550  0.00  0.00    +0.000 A 
ATOM     22  O   UNL     1      -1.049   8.462  22.200  0.00  0.00    +0.000 OA
ATOM     23  C   UNL     1      -0.089   9.793  20.503  0.00  0.00    +0.000 A 
ATOM     24  C   UNL     1      -1.111  10.745  20.473  0.00  0.00    +0.000 A 
ATOM     25  C   UNL     1      -0.964  11.863  19.653  0.00  0.00    +0.000 A 
ATOM     26  C   UNL     1       0.185  12.014  18.873  0.00  0.00    +0.000 A 
ATOM     27  C   UNL     1       1.162  11.008  18.837  0.00  0.00    +0.000 A 
ATOM     28  C   UNL     1       0.993   9.875  19.633  0.00  0.00    +0.000 A 
ATOM     29  H   UNL     1       1.225   7.515  22.519  0.00  0.00    +0.000 HD
ENDBRANCH   2  18
TORSDOF 2
ENDMDL
