MODEL 1
REMARK VINA RESULT:      -9.0      0.000      0.000
REMARK  Name = 
REMARK  4 active torsions:
REMARK  status: ('A' for Active; 'I' for Inactive)
REMARK    1  A    between atoms: C_4  and  C_5
REMARK    2  A    between atoms: C_5  and  S_6
REMARK    3  A    between atoms: S_6  and  C_7
REMARK    4  A    between atoms: C_10  and  C_11
REMARK                            x       y       z     vdW  Elec       q    Type
REMARK                         _______ _______ _______ _____ _____    ______ ____
ROOT
ATOM      1  O   UNL     1       1.202   2.880  21.439  0.00  0.00    +0.000 OA
ATOM      2  C   UNL     1       1.912   3.675  20.831  0.00  0.00    +0.000 A 
ATOM      3  C   UNL     1       1.576   5.121  20.812  0.00  0.00    +0.000 A 
ATOM      4  C   UNL     1       2.192   5.991  20.002  0.00  0.00    +0.000 A 
ATOM      5  C   UNL     1       3.205   5.427  19.087  0.00  0.00    +0.000 A 
ATOM      6  C   UNL     1       3.779   6.238  18.123  0.00  0.00    +0.000 A 
ATOM      7  C   UNL     1       5.073   5.967  17.764  0.00  0.00    +0.000 A 
ATOM      8  C   UNL     1       5.702   4.765  18.086  0.00  0.00    +0.000 A 
ATOM      9  C   UNL     1       5.022   3.812  18.820  0.00  0.00    +0.000 A 
ATOM     10  C   UNL     1       3.775   4.177  19.354  0.00  0.00    +0.000 A 
ATOM     11  O   UNL     1       3.097   3.286  20.209  0.00  0.00    +0.000 OA
ATOM     12  C   UNL     1       7.100   4.798  17.541  0.00  0.00    +0.000 C 
ATOM     13  C   UNL     1       7.338   6.304  17.272  0.00  0.00    +0.000 C 
ATOM     14  C   UNL     1       5.991   7.017  17.248  0.00  0.00    +0.000 C 
ENDROOT
BRANCH   4  15
ATOM     15  C   UNL     1       2.133   7.511  19.973  0.00  0.00    +0.000 C 
BRANCH  15  16
ATOM     16  S   UNL     1       1.071   8.431  21.095  0.00  0.00    +0.000 S 
BRANCH  16  17
ATOM     17  C   UNL     1       0.409   9.593  19.942  0.00  0.00    +0.000 A 
ATOM     18  N   UNL     1       1.117  10.511  19.312  0.00  0.00    +0.000 NA
ATOM     19  N   UNL     1       0.247  11.202  18.490  0.00  0.00    +0.000 NA
ATOM     20  C   UNL     1      -0.942  10.659  18.664  0.00  0.00    +0.000 A 
ATOM     21  O   UNL     1      -0.916   9.631  19.581  0.00  0.00    +0.000 OA
BRANCH  20  22
ATOM     22  C   UNL     1      -2.223  10.983  18.037  0.00  0.00    +0.000 A 
ATOM     23  C   UNL     1      -2.447  10.652  16.690  0.00  0.00    +0.000 A 
ATOM     24  C   UNL     1      -3.672  10.926  16.068  0.00  0.00    +0.000 A 
ATOM     25  C   UNL     1      -4.694  11.544  16.783  0.00  0.00    +0.000 A 
ATOM     26  C   UNL     1      -4.492  11.882  18.119  0.00  0.00    +0.000 A 
ATOM     27  C   UNL     1      -3.266  11.606  18.741  0.00  0.00    +0.000 A 
ENDBRANCH  20  22
ENDBRANCH  16  17
ENDBRANCH  15  16
ENDBRANCH   4  15
TORSDOF 4
ENDMDL
MODEL 2
REMARK VINA RESULT:      -8.8      6.243      8.456
REMARK  Name = 
REMARK  4 active torsions:
REMARK  status: ('A' for Active; 'I' for Inactive)
REMARK    1  A    between atoms: C_4  and  C_5
REMARK    2  A    between atoms: C_5  and  S_6
REMARK    3  A    between atoms: S_6  and  C_7
REMARK    4  A    between atoms: C_10  and  C_11
REMARK                            x       y       z     vdW  Elec       q    Type
REMARK                         _______ _______ _______ _____ _____    ______ ____
ROOT
ATOM      1  O   UNL     1       5.584   4.529  14.156  0.00  0.00    +0.000 OA
ATOM      2  C   UNL     1       5.206   4.444  15.320  0.00  0.00    +0.000 A 
ATOM      3  C   UNL     1       6.020   5.023  16.419  0.00  0.00    +0.000 A 
ATOM      4  C   UNL     1       5.760   4.780  17.710  0.00  0.00    +0.000 A 
ATOM      5  C   UNL     1       4.637   3.861  17.988  0.00  0.00    +0.000 A 
ATOM      6  C   UNL     1       4.400   3.449  19.288  0.00  0.00    +0.000 A 
ATOM      7  C   UNL     1       3.101   3.194  19.639  0.00  0.00    +0.000 A 
ATOM      8  C   UNL     1       2.089   3.033  18.694  0.00  0.00    +0.000 A 
ATOM      9  C   UNL     1       2.382   3.163  17.349  0.00  0.00    +0.000 A 
ATOM     10  C   UNL     1       3.665   3.623  17.010  0.00  0.00    +0.000 A 
ATOM     11  O   UNL     1       3.975   3.888  15.661  0.00  0.00    +0.000 OA
ATOM     12  C   UNL     1       0.801   2.762  19.415  0.00  0.00    +0.000 C 
ATOM     13  C   UNL     1       1.102   3.227  20.860  0.00  0.00    +0.000 C 
ATOM     14  C   UNL     1       2.613   3.332  21.037  0.00  0.00    +0.000 C 
ENDROOT
BRANCH   4  15
ATOM     15  C   UNL     1       6.340   5.421  18.962  0.00  0.00    +0.000 C 
BRANCH  15  16
ATOM     16  S   UNL     1       8.105   5.708  19.139  0.00  0.00    +0.000 S 
BRANCH  16  17
ATOM     17  C   UNL     1       8.172   7.357  18.513  0.00  0.00    +0.000 A 
ATOM     18  N   UNL     1       7.595   7.758  17.395  0.00  0.00    +0.000 NA
ATOM     19  N   UNL     1       7.860   9.108  17.264  0.00  0.00    +0.000 NA
ATOM     20  C   UNL     1       8.579   9.452  18.316  0.00  0.00    +0.000 A 
ATOM     21  O   UNL     1       8.822   8.385  19.151  0.00  0.00    +0.000 OA
BRANCH  20  22
ATOM     22  C   UNL     1       9.119  10.756  18.697  0.00  0.00    +0.000 A 
ATOM     23  C   UNL     1       9.096  11.820  17.779  0.00  0.00    +0.000 A 
ATOM     24  C   UNL     1       9.582  13.088  18.123  0.00  0.00    +0.000 A 
ATOM     25  C   UNL     1      10.108  13.313  19.392  0.00  0.00    +0.000 A 
ATOM     26  C   UNL     1      10.141  12.272  20.317  0.00  0.00    +0.000 A 
ATOM     27  C   UNL     1       9.653  11.004  19.972  0.00  0.00    +0.000 A 
ENDBRANCH  20  22
ENDBRANCH  16  17
ENDBRANCH  15  16
ENDBRANCH   4  15
TORSDOF 4
ENDMDL
MODEL 3
REMARK VINA RESULT:      -8.8      4.684      8.405
REMARK  Name = 
REMARK  4 active torsions:
REMARK  status: ('A' for Active; 'I' for Inactive)
REMARK    1  A    between atoms: C_4  and  C_5
REMARK    2  A    between atoms: C_5  and  S_6
REMARK    3  A    between atoms: S_6  and  C_7
REMARK    4  A    between atoms: C_10  and  C_11
REMARK                            x       y       z     vdW  Elec       q    Type
REMARK                         _______ _______ _______ _____ _____    ______ ____
ROOT
ATOM      1  O   UNL     1       2.393   9.073  17.276  0.00  0.00    +0.000 OA
ATOM      2  C   UNL     1       2.775   7.988  17.702  0.00  0.00    +0.000 A 
ATOM      3  C   UNL     1       4.066   7.413  17.244  0.00  0.00    +0.000 A 
ATOM      4  C   UNL     1       4.428   6.153  17.515  0.00  0.00    +0.000 A 
ATOM      5  C   UNL     1       3.449   5.339  18.265  0.00  0.00    +0.000 A 
ATOM      6  C   UNL     1       3.689   3.990  18.457  0.00  0.00    +0.000 A 
ATOM      7  C   UNL     1       3.212   3.424  19.610  0.00  0.00    +0.000 A 
ATOM      8  C   UNL     1       2.261   4.053  20.412  0.00  0.00    +0.000 A 
ATOM      9  C   UNL     1       1.794   5.307  20.065  0.00  0.00    +0.000 A 
ATOM     10  C   UNL     1       2.434   5.963  19.001  0.00  0.00    +0.000 A 
ATOM     11  O   UNL     1       2.078   7.288  18.685  0.00  0.00    +0.000 OA
ATOM     12  C   UNL     1       1.960   3.163  21.583  0.00  0.00    +0.000 C 
ATOM     13  C   UNL     1       3.156   2.179  21.593  0.00  0.00    +0.000 C 
ATOM     14  C   UNL     1       3.851   2.238  20.237  0.00  0.00    +0.000 C 
ENDROOT
BRANCH   4  15
ATOM     15  C   UNL     1       5.764   5.453  17.311  0.00  0.00    +0.000 C 
BRANCH  15  16
ATOM     16  S   UNL     1       7.092   5.597  18.513  0.00  0.00    +0.000 S 
BRANCH  16  17
ATOM     17  C   UNL     1       7.644   7.224  18.107  0.00  0.00    +0.000 A 
ATOM     18  N   UNL     1       7.371   7.848  16.976  0.00  0.00    +0.000 NA
ATOM     19  N   UNL     1       7.960   9.096  17.049  0.00  0.00    +0.000 NA
ATOM     20  C   UNL     1       8.554   9.161  18.225  0.00  0.00    +0.000 A 
ATOM     21  O   UNL     1       8.399   8.001  18.951  0.00  0.00    +0.000 OA
BRANCH  20  22
ATOM     22  C   UNL     1       9.312  10.253  18.834  0.00  0.00    +0.000 A 
ATOM     23  C   UNL     1      10.105  11.089  18.030  0.00  0.00    +0.000 A 
ATOM     24  C   UNL     1      10.822  12.160  18.581  0.00  0.00    +0.000 A 
ATOM     25  C   UNL     1      10.763  12.409  19.949  0.00  0.00    +0.000 A 
ATOM     26  C   UNL     1       9.983  11.592  20.764  0.00  0.00    +0.000 A 
ATOM     27  C   UNL     1       9.265  10.522  20.212  0.00  0.00    +0.000 A 
ENDBRANCH  20  22
ENDBRANCH  16  17
ENDBRANCH  15  16
ENDBRANCH   4  15
TORSDOF 4
ENDMDL
MODEL 4
REMARK VINA RESULT:      -8.5      2.917      4.650
REMARK  Name = 
REMARK  4 active torsions:
REMARK  status: ('A' for Active; 'I' for Inactive)
REMARK    1  A    between atoms: C_4  and  C_5
REMARK    2  A    between atoms: C_5  and  S_6
REMARK    3  A    between atoms: S_6  and  C_7
REMARK    4  A    between atoms: C_10  and  C_11
REMARK                            x       y       z     vdW  Elec       q    Type
REMARK                         _______ _______ _______ _____ _____    ______ ____
ROOT
ATOM      1  O   UNL     1       6.810   4.871  15.010  0.00  0.00    +0.000 OA
ATOM      2  C   UNL     1       5.941   4.919  15.875  0.00  0.00    +0.000 A 
ATOM      3  C   UNL     1       5.535   6.222  16.461  0.00  0.00    +0.000 A 
ATOM      4  C   UNL     1       4.750   6.311  17.541  0.00  0.00    +0.000 A 
ATOM      5  C   UNL     1       4.336   5.031  18.154  0.00  0.00    +0.000 A 
ATOM      6  C   UNL     1       3.645   5.043  19.354  0.00  0.00    +0.000 A 
ATOM      7  C   UNL     1       2.740   4.037  19.567  0.00  0.00    +0.000 A 
ATOM      8  C   UNL     1       2.718   2.876  18.795  0.00  0.00    +0.000 A 
ATOM      9  C   UNL     1       3.614   2.730  17.752  0.00  0.00    +0.000 A 
ATOM     10  C   UNL     1       4.398   3.845  17.414  0.00  0.00    +0.000 A 
ATOM     11  O   UNL     1       5.238   3.788  16.285  0.00  0.00    +0.000 OA
ATOM     12  C   UNL     1       1.615   1.990  19.297  0.00  0.00    +0.000 C 
ATOM     13  C   UNL     1       0.740   2.957  20.132  0.00  0.00    +0.000 C 
ATOM     14  C   UNL     1       1.553   4.208  20.445  0.00  0.00    +0.000 C 
ENDROOT
BRANCH   4  15
ATOM     15  C   UNL     1       4.074   7.524  18.163  0.00  0.00    +0.000 C 
BRANCH  15  16
ATOM     16  S   UNL     1       2.500   8.138  17.553  0.00  0.00    +0.000 S 
BRANCH  16  17
ATOM     17  C   UNL     1       1.732   8.490  19.103  0.00  0.00    +0.000 A 
ATOM     18  N   UNL     1       1.924   7.796  20.209  0.00  0.00    +0.000 NA
ATOM     19  N   UNL     1       1.168   8.394  21.200  0.00  0.00    +0.000 NA
ATOM     20  C   UNL     1       0.563   9.423  20.639  0.00  0.00    +0.000 A 
ATOM     21  O   UNL     1       0.871   9.542  19.302  0.00  0.00    +0.000 OA
BRANCH  20  22
ATOM     22  C   UNL     1      -0.343  10.412  21.223  0.00  0.00    +0.000 A 
ATOM     23  C   UNL     1      -1.011  11.326  20.392  0.00  0.00    +0.000 A 
ATOM     24  C   UNL     1      -1.905  12.269  20.919  0.00  0.00    +0.000 A 
ATOM     25  C   UNL     1      -2.140  12.316  22.290  0.00  0.00    +0.000 A 
ATOM     26  C   UNL     1      -1.487  11.418  23.131  0.00  0.00    +0.000 A 
ATOM     27  C   UNL     1      -0.594  10.476  22.603  0.00  0.00    +0.000 A 
ENDBRANCH  20  22
ENDBRANCH  16  17
ENDBRANCH  15  16
ENDBRANCH   4  15
TORSDOF 4
ENDMDL
MODEL 5
REMARK VINA RESULT:      -8.4      2.435      3.264
REMARK  Name = 
REMARK  4 active torsions:
REMARK  status: ('A' for Active; 'I' for Inactive)
REMARK    1  A    between atoms: C_4  and  C_5
REMARK    2  A    between atoms: C_5  and  S_6
REMARK    3  A    between atoms: S_6  and  C_7
REMARK    4  A    between atoms: C_10  and  C_11
REMARK                            x       y       z     vdW  Elec       q    Type
REMARK                         _______ _______ _______ _____ _____    ______ ____
ROOT
ATOM      1  O   UNL     1       1.158   2.922  21.406  0.00  0.00    +0.000 OA
ATOM      2  C   UNL     1       1.871   3.720  20.805  0.00  0.00    +0.000 A 
ATOM      3  C   UNL     1       1.511   5.159  20.754  0.00  0.00    +0.000 A 
ATOM      4  C   UNL     1       2.134   6.029  19.949  0.00  0.00    +0.000 A 
ATOM      5  C   UNL     1       3.183   5.468  19.071  0.00  0.00    +0.000 A 
ATOM      6  C   UNL     1       3.770   6.274  18.111  0.00  0.00    +0.000 A 
ATOM      7  C   UNL     1       5.078   6.021  17.793  0.00  0.00    +0.000 A 
ATOM      8  C   UNL     1       5.718   4.836  18.151  0.00  0.00    +0.000 A 
ATOM      9  C   UNL     1       5.034   3.881  18.881  0.00  0.00    +0.000 A 
ATOM     10  C   UNL     1       3.766   4.233  19.374  0.00  0.00    +0.000 A 
ATOM     11  O   UNL     1       3.080   3.343  20.223  0.00  0.00    +0.000 OA
ATOM     12  C   UNL     1       7.131   4.885  17.646  0.00  0.00    +0.000 C 
ATOM     13  C   UNL     1       7.350   6.390  17.360  0.00  0.00    +0.000 C 
ATOM     14  C   UNL     1       5.992   7.079  17.286  0.00  0.00    +0.000 C 
ENDROOT
BRANCH   4  15
ATOM     15  C   UNL     1       2.050   7.547  19.895  0.00  0.00    +0.000 C 
BRANCH  15  16
ATOM     16  S   UNL     1       1.027   8.472  21.047  0.00  0.00    +0.000 S 
BRANCH  16  17
ATOM     17  C   UNL     1       0.683   9.874  20.031  0.00  0.00    +0.000 A 
ATOM     18  N   UNL     1      -0.363   9.984  19.233  0.00  0.00    +0.000 NA
ATOM     19  N   UNL     1      -0.285  11.225  18.631  0.00  0.00    +0.000 NA
ATOM     20  C   UNL     1       0.803  11.803  19.103  0.00  0.00    +0.000 A 
ATOM     21  O   UNL     1       1.474  10.997  19.995  0.00  0.00    +0.000 OA
BRANCH  20  22
ATOM     22  C   UNL     1       1.360  13.125  18.822  0.00  0.00    +0.000 A 
ATOM     23  C   UNL     1       0.588  14.275  19.057  0.00  0.00    +0.000 A 
ATOM     24  C   UNL     1       1.103  15.558  18.823  0.00  0.00    +0.000 A 
ATOM     25  C   UNL     1       2.400  15.710  18.341  0.00  0.00    +0.000 A 
ATOM     26  C   UNL     1       3.182  14.583  18.101  0.00  0.00    +0.000 A 
ATOM     27  C   UNL     1       2.666  13.301  18.337  0.00  0.00    +0.000 A 
ENDBRANCH  20  22
ENDBRANCH  16  17
ENDBRANCH  15  16
ENDBRANCH   4  15
TORSDOF 4
ENDMDL
MODEL 6
REMARK VINA RESULT:      -8.4      3.502      4.893
REMARK  Name = 
REMARK  4 active torsions:
REMARK  status: ('A' for Active; 'I' for Inactive)
REMARK    1  A    between atoms: C_4  and  C_5
REMARK    2  A    between atoms: C_5  and  S_6
REMARK    3  A    between atoms: S_6  and  C_7
REMARK    4  A    between atoms: C_10  and  C_11
REMARK                            x       y       z     vdW  Elec       q    Type
REMARK                         _______ _______ _______ _____ _____    ______ ____
ROOT
ATOM      1  O   UNL     1       6.838   5.411  14.984  0.00  0.00    +0.000 OA
ATOM      2  C   UNL     1       5.934   5.383  15.813  0.00  0.00    +0.000 A 
ATOM      3  C   UNL     1       5.453   6.638  16.443  0.00  0.00    +0.000 A 
ATOM      4  C   UNL     1       4.622   6.643  17.493  0.00  0.00    +0.000 A 
ATOM      5  C   UNL     1       4.236   5.320  18.026  0.00  0.00    +0.000 A 
ATOM      6  C   UNL     1       3.498   5.246  19.195  0.00  0.00    +0.000 A 
ATOM      7  C   UNL     1       2.627   4.196  19.322  0.00  0.00    +0.000 A 
ATOM      8  C   UNL     1       2.683   3.075  18.494  0.00  0.00    +0.000 A 
ATOM      9  C   UNL     1       3.624   3.016  17.484  0.00  0.00    +0.000 A 
ATOM     10  C   UNL     1       4.375   4.176  17.233  0.00  0.00    +0.000 A 
ATOM     11  O   UNL     1       5.261   4.206  16.138  0.00  0.00    +0.000 OA
ATOM     12  C   UNL     1       1.597   2.124  18.907  0.00  0.00    +0.000 C 
ATOM     13  C   UNL     1       0.651   3.014  19.750  0.00  0.00    +0.000 C 
ATOM     14  C   UNL     1       1.400   4.278  20.157  0.00  0.00    +0.000 C 
ENDROOT
BRANCH   4  15
ATOM     15  C   UNL     1       3.875   7.797  18.144  0.00  0.00    +0.000 C 
BRANCH  15  16
ATOM     16  S   UNL     1       2.179   8.190  17.696  0.00  0.00    +0.000 S 
BRANCH  16  17
ATOM     17  C   UNL     1       1.585   8.663  19.290  0.00  0.00    +0.000 A 
ATOM     18  N   UNL     1       1.676   7.918  20.376  0.00  0.00    +0.000 NA
ATOM     19  N   UNL     1       1.120   8.642  21.413  0.00  0.00    +0.000 NA
ATOM     20  C   UNL     1       0.727   9.792  20.898  0.00  0.00    +0.000 A 
ATOM     21  O   UNL     1       0.986   9.872  19.548  0.00  0.00    +0.000 OA
BRANCH  20  22
ATOM     22  C   UNL     1       0.090  10.940  21.542  0.00  0.00    +0.000 A 
ATOM     23  C   UNL     1      -0.871  10.735  22.546  0.00  0.00    +0.000 A 
ATOM     24  C   UNL     1      -1.480  11.815  23.200  0.00  0.00    +0.000 A 
ATOM     25  C   UNL     1      -1.141  13.121  22.855  0.00  0.00    +0.000 A 
ATOM     26  C   UNL     1      -0.190  13.345  21.862  0.00  0.00    +0.000 A 
ATOM     27  C   UNL     1       0.419  12.264  21.209  0.00  0.00    +0.000 A 
ENDBRANCH  20  22
ENDBRANCH  16  17
ENDBRANCH  15  16
ENDBRANCH   4  15
TORSDOF 4
ENDMDL
MODEL 7
REMARK VINA RESULT:      -8.4      2.581      3.183
REMARK  Name = 
REMARK  4 active torsions:
REMARK  status: ('A' for Active; 'I' for Inactive)
REMARK    1  A    between atoms: C_4  and  C_5
REMARK    2  A    between atoms: C_5  and  S_6
REMARK    3  A    between atoms: S_6  and  C_7
REMARK    4  A    between atoms: C_10  and  C_11
REMARK                            x       y       z     vdW  Elec       q    Type
REMARK                         _______ _______ _______ _____ _____    ______ ____
ROOT
ATOM      1  O   UNL     1       0.283   2.139  18.879  0.00  0.00    +0.000 OA
ATOM      2  C   UNL     1       1.193   2.947  18.725  0.00  0.00    +0.000 A 
ATOM      3  C   UNL     1       1.244   4.186  19.542  0.00  0.00    +0.000 A 
ATOM      4  C   UNL     1       2.089   5.190  19.275  0.00  0.00    +0.000 A 
ATOM      5  C   UNL     1       2.950   5.018  18.086  0.00  0.00    +0.000 A 
ATOM      6  C   UNL     1       3.745   6.069  17.663  0.00  0.00    +0.000 A 
ATOM      7  C   UNL     1       4.936   5.755  17.064  0.00  0.00    +0.000 A 
ATOM      8  C   UNL     1       5.222   4.473  16.597  0.00  0.00    +0.000 A 
ATOM      9  C   UNL     1       4.295   3.461  16.764  0.00  0.00    +0.000 A 
ATOM     10  C   UNL     1       3.169   3.741  17.556  0.00  0.00    +0.000 A 
ATOM     11  O   UNL     1       2.257   2.711  17.856  0.00  0.00    +0.000 OA
ATOM     12  C   UNL     1       6.598   4.479  15.997  0.00  0.00    +0.000 C 
ATOM     13  C   UNL     1       7.226   5.773  16.570  0.00  0.00    +0.000 C 
ATOM     14  C   UNL     1       6.110   6.666  17.101  0.00  0.00    +0.000 C 
ENDROOT
BRANCH   4  15
ATOM     15  C   UNL     1       2.426   6.429  20.090  0.00  0.00    +0.000 C 
BRANCH  15  16
ATOM     16  S   UNL     1       1.145   7.548  20.671  0.00  0.00    +0.000 S 
BRANCH  16  17
ATOM     17  C   UNL     1       1.415   8.874  19.538  0.00  0.00    +0.000 A 
ATOM     18  N   UNL     1       1.785   8.721  18.280  0.00  0.00    +0.000 NA
ATOM     19  N   UNL     1       1.869   9.985  17.726  0.00  0.00    +0.000 NA
ATOM     20  C   UNL     1       1.539  10.834  18.680  0.00  0.00    +0.000 A 
ATOM     21  O   UNL     1       1.244  10.197  19.864  0.00  0.00    +0.000 OA
BRANCH  20  22
ATOM     22  C   UNL     1       1.443  12.293  18.645  0.00  0.00    +0.000 A 
ATOM     23  C   UNL     1       0.204  12.919  18.861  0.00  0.00    +0.000 A 
ATOM     24  C   UNL     1       0.085  14.315  18.859  0.00  0.00    +0.000 A 
ATOM     25  C   UNL     1       1.205  15.111  18.635  0.00  0.00    +0.000 A 
ATOM     26  C   UNL     1       2.443  14.510  18.419  0.00  0.00    +0.000 A 
ATOM     27  C   UNL     1       2.561  13.113  18.422  0.00  0.00    +0.000 A 
ENDBRANCH  20  22
ENDBRANCH  16  17
ENDBRANCH  15  16
ENDBRANCH   4  15
TORSDOF 4
ENDMDL
MODEL 8
REMARK VINA RESULT:      -8.3      6.128      8.506
REMARK  Name = 
REMARK  4 active torsions:
REMARK  status: ('A' for Active; 'I' for Inactive)
REMARK    1  A    between atoms: C_4  and  C_5
REMARK    2  A    between atoms: C_5  and  S_6
REMARK    3  A    between atoms: S_6  and  C_7
REMARK    4  A    between atoms: C_10  and  C_11
REMARK                            x       y       z     vdW  Elec       q    Type
REMARK                         _______ _______ _______ _____ _____    ______ ____
ROOT
ATOM      1  O   UNL     1       6.486   4.082  14.464  0.00  0.00    +0.000 OA
ATOM      2  C   UNL     1       5.931   4.137  15.557  0.00  0.00    +0.000 A 
ATOM      3  C   UNL     1       6.555   4.881  16.680  0.00  0.00    +0.000 A 
ATOM      4  C   UNL     1       6.100   4.800  17.937  0.00  0.00    +0.000 A 
ATOM      5  C   UNL     1       4.958   3.889  18.160  0.00  0.00    +0.000 A 
ATOM      6  C   UNL     1       4.525   3.643  19.452  0.00  0.00    +0.000 A 
ATOM      7  C   UNL     1       3.191   3.392  19.630  0.00  0.00    +0.000 A 
ATOM      8  C   UNL     1       2.342   3.076  18.570  0.00  0.00    +0.000 A 
ATOM      9  C   UNL     1       2.840   3.039  17.281  0.00  0.00    +0.000 A 
ATOM     10  C   UNL     1       4.155   3.493  17.085  0.00  0.00    +0.000 A 
ATOM     11  O   UNL     1       4.669   3.590  15.776  0.00  0.00    +0.000 OA
ATOM     12  C   UNL     1       0.960   2.859  19.114  0.00  0.00    +0.000 C 
ATOM     13  C   UNL     1       1.025   3.518  20.513  0.00  0.00    +0.000 C 
ATOM     14  C   UNL     1       2.488   3.696  20.904  0.00  0.00    +0.000 C 
ENDROOT
BRANCH   4  15
ATOM     15  C   UNL     1       6.468   5.618  19.166  0.00  0.00    +0.000 C 
BRANCH  15  16
ATOM     16  S   UNL     1       8.166   6.107  19.494  0.00  0.00    +0.000 S 
BRANCH  16  17
ATOM     17  C   UNL     1       8.179   7.637  18.614  0.00  0.00    +0.000 A 
ATOM     18  N   UNL     1       7.443   7.895  17.548  0.00  0.00    +0.000 NA
ATOM     19  N   UNL     1       7.721   9.194  17.168  0.00  0.00    +0.000 NA
ATOM     20  C   UNL     1       8.608   9.654  18.030  0.00  0.00    +0.000 A 
ATOM     21  O   UNL     1       8.950   8.714  18.975  0.00  0.00    +0.000 OA
BRANCH  20  22
ATOM     22  C   UNL     1       9.238  10.971  18.113  0.00  0.00    +0.000 A 
ATOM     23  C   UNL     1      10.627  11.071  18.298  0.00  0.00    +0.000 A 
ATOM     24  C   UNL     1      11.265  12.318  18.356  0.00  0.00    +0.000 A 
ATOM     25  C   UNL     1      10.520  13.488  18.236  0.00  0.00    +0.000 A 
ATOM     26  C   UNL     1       9.142  13.410  18.053  0.00  0.00    +0.000 A 
ATOM     27  C   UNL     1       8.505  12.163  17.994  0.00  0.00    +0.000 A 
ENDBRANCH  20  22
ENDBRANCH  16  17
ENDBRANCH  15  16
ENDBRANCH   4  15
TORSDOF 4
ENDMDL
MODEL 9
REMARK VINA RESULT:      -8.3      3.015      4.610
REMARK  Name = 
REMARK  4 active torsions:
REMARK  status: ('A' for Active; 'I' for Inactive)
REMARK    1  A    between atoms: C_4  and  C_5
REMARK    2  A    between atoms: C_5  and  S_6
REMARK    3  A    between atoms: S_6  and  C_7
REMARK    4  A    between atoms: C_10  and  C_11
REMARK                            x       y       z     vdW  Elec       q    Type
REMARK                         _______ _______ _______ _____ _____    ______ ____
ROOT
ATOM      1  O   UNL     1       6.332   5.555  14.711  0.00  0.00    +0.000 OA
ATOM      2  C   UNL     1       5.504   5.521  15.616  0.00  0.00    +0.000 A 
ATOM      3  C   UNL     1       4.946   6.780  16.171  0.00  0.00    +0.000 A 
ATOM      4  C   UNL     1       4.203   6.807  17.285  0.00  0.00    +0.000 A 
ATOM      5  C   UNL     1       4.000   5.511  17.965  0.00  0.00    +0.000 A 
ATOM      6  C   UNL     1       3.367   5.479  19.196  0.00  0.00    +0.000 A 
ATOM      7  C   UNL     1       2.623   4.368  19.491  0.00  0.00    +0.000 A 
ATOM      8  C   UNL     1       2.730   3.182  18.766  0.00  0.00    +0.000 A 
ATOM      9  C   UNL     1       3.591   3.116  17.686  0.00  0.00    +0.000 A 
ATOM     10  C   UNL     1       4.195   4.313  17.268  0.00  0.00    +0.000 A 
ATOM     11  O   UNL     1       4.985   4.323  16.102  0.00  0.00    +0.000 OA
ATOM     12  C   UNL     1       1.785   2.176  19.354  0.00  0.00    +0.000 C 
ATOM     13  C   UNL     1       0.820   3.048  20.194  0.00  0.00    +0.000 C 
ATOM     14  C   UNL     1       1.462   4.412  20.420  0.00  0.00    +0.000 C 
ENDROOT
BRANCH   4  15
ATOM     15  C   UNL     1       3.392   7.941  17.894  0.00  0.00    +0.000 C 
BRANCH  15  16
ATOM     16  S   UNL     1       1.659   8.182  17.483  0.00  0.00    +0.000 S 
BRANCH  16  17
ATOM     17  C   UNL     1       1.346   9.609  18.474  0.00  0.00    +0.000 A 
ATOM     18  N   UNL     1       1.972  10.764  18.344  0.00  0.00    +0.000 NA
ATOM     19  N   UNL     1       1.433  11.625  19.281  0.00  0.00    +0.000 NA
ATOM     20  C   UNL     1       0.505  10.944  19.925  0.00  0.00    +0.000 A 
ATOM     21  O   UNL     1       0.399   9.649  19.468  0.00  0.00    +0.000 OA
BRANCH  20  22
ATOM     22  C   UNL     1      -0.388  11.364  21.004  0.00  0.00    +0.000 A 
ATOM     23  C   UNL     1      -1.192  12.505  20.843  0.00  0.00    +0.000 A 
ATOM     24  C   UNL     1      -2.078  12.918  21.848  0.00  0.00    +0.000 A 
ATOM     25  C   UNL     1      -2.168  12.198  23.037  0.00  0.00    +0.000 A 
ATOM     26  C   UNL     1      -1.379  11.064  23.216  0.00  0.00    +0.000 A 
ATOM     27  C   UNL     1      -0.495  10.652  22.210  0.00  0.00    +0.000 A 
ENDBRANCH  20  22
ENDBRANCH  16  17
ENDBRANCH  15  16
ENDBRANCH   4  15
TORSDOF 4
ENDMDL
