MODEL 1
REMARK VINA RESULT:      -8.4      0.000      0.000
REMARK  Name = 
REMARK  6 active torsions:
REMARK  status: ('A' for Active; 'I' for Inactive)
REMARK    1  A    between atoms: C_1  and  C_2
REMARK    2  A    between atoms: C_4  and  C_5
REMARK    3  A    between atoms: C_9  and  C_10
REMARK    4  A    between atoms: C_15  and  C_16
REMARK    5  A    between atoms: C_20  and  C_21
REMARK    6  A    between atoms: C_20  and  C_22
REMARK                            x       y       z     vdW  Elec       q    Type
REMARK                         _______ _______ _______ _____ _____    ______ ____
ROOT
ATOM      1  C   UNL     1       2.384   7.502  18.990  0.00  0.00    +0.000 C 
ATOM      2  O   UNL     1       3.269   7.819  18.184  0.00  0.00    +0.000 OA
ATOM      3  N   UNL     1       2.295   6.206  19.527  0.00  0.00    +0.000 N 
ATOM      4  C   UNL     1       1.441   5.779  20.641  0.00  0.00    +0.000 C 
ATOM      5  C   UNL     1       0.753   4.462  20.287  0.00  0.00    +0.000 C 
ATOM      6  C   UNL     1       1.801   3.374  19.980  0.00  0.00    +0.000 C 
ATOM      7  C   UNL     1       2.756   3.848  18.827  0.00  0.00    +0.000 C 
ATOM      8  C   UNL     1       1.974   3.963  17.491  0.00  0.00    +0.000 C 
ATOM      9  C   UNL     1       3.900   2.847  18.567  0.00  0.00    +0.000 C 
ATOM     10  C   UNL     1       3.341   5.245  19.163  0.00  0.00    +0.000 C 
ENDROOT
BRANCH   1  15
ATOM     11  C   UNL     1      -0.491   9.995  18.984  0.00  0.00    +0.000 A 
ATOM     12  C   UNL     1      -0.428  10.451  20.307  0.00  0.00    +0.000 A 
ATOM     13  C   UNL     1       0.599  10.025  21.155  0.00  0.00    +0.000 A 
ATOM     14  C   UNL     1       1.520   9.075  20.703  0.00  0.00    +0.000 A 
ATOM     15  C   UNL     1       1.438   8.580  19.397  0.00  0.00    +0.000 A 
ATOM     16  C   UNL     1       0.496   9.120  18.519  0.00  0.00    +0.000 A 
BRANCH  11  20
ATOM     17  C   UNL     1      -3.117  10.101  14.777  0.00  0.00    +0.000 C 
ATOM     18  C   UNL     1      -2.714  10.383  16.183  0.00  0.00    +0.000 A 
ATOM     19  N   UNL     1      -1.635   9.911  16.775  0.00  0.00    +0.000 NA
ATOM     20  C   UNL     1      -1.577  10.373  18.088  0.00  0.00    +0.000 A 
ATOM     21  C   UNL     1      -2.608  11.211  18.454  0.00  0.00    +0.000 A 
ATOM     22  S   UNL     1      -3.693  11.421  17.145  0.00  0.00    +0.000 S 
ENDBRANCH  11  20
ENDBRANCH   1  15
BRANCH   6  23
ATOM     23  C   UNL     1       2.495   2.948  21.292  0.00  0.00    +0.000 C 
ATOM     24  F   UNL     1       2.660   3.986  22.144  0.00  0.00    +0.000 F 
ATOM     25  F   UNL     1       1.733   2.037  21.943  0.00  0.00    +0.000 F 
ATOM     26  F   UNL     1       3.712   2.403  21.110  0.00  0.00    +0.000 F 
ENDBRANCH   6  23
TORSDOF 3
ENDMDL
MODEL 2
REMARK VINA RESULT:      -8.3      2.586      3.400
REMARK  Name = 
REMARK  6 active torsions:
REMARK  status: ('A' for Active; 'I' for Inactive)
REMARK    1  A    between atoms: C_1  and  C_2
REMARK    2  A    between atoms: C_4  and  C_5
REMARK    3  A    between atoms: C_9  and  C_10
REMARK    4  A    between atoms: C_15  and  C_16
REMARK    5  A    between atoms: C_20  and  C_21
REMARK    6  A    between atoms: C_20  and  C_22
REMARK                            x       y       z     vdW  Elec       q    Type
REMARK                         _______ _______ _______ _____ _____    ______ ____
ROOT
ATOM      1  C   UNL     1       3.164   6.576  18.488  0.00  0.00    +0.000 C 
ATOM      2  O   UNL     1       4.140   6.569  17.727  0.00  0.00    +0.000 OA
ATOM      3  N   UNL     1       2.801   5.450  19.246  0.00  0.00    +0.000 N 
ATOM      4  C   UNL     1       1.814   5.408  20.332  0.00  0.00    +0.000 C 
ATOM      5  C   UNL     1       0.916   4.184  20.164  0.00  0.00    +0.000 C 
ATOM      6  C   UNL     1       1.760   2.894  20.171  0.00  0.00    +0.000 C 
ATOM      7  C   UNL     1       2.856   2.956  19.048  0.00  0.00    +0.000 C 
ATOM      8  C   UNL     1       2.195   2.931  17.644  0.00  0.00    +0.000 C 
ATOM      9  C   UNL     1       3.808   1.743  19.093  0.00  0.00    +0.000 C 
ATOM     10  C   UNL     1       3.670   4.271  19.173  0.00  0.00    +0.000 C 
ENDROOT
BRANCH   1  15
ATOM     11  C   UNL     1       1.067   9.451  19.839  0.00  0.00    +0.000 A 
ATOM     12  C   UNL     1       1.205  10.373  18.792  0.00  0.00    +0.000 A 
ATOM     13  C   UNL     1       1.887  10.020  17.624  0.00  0.00    +0.000 A 
ATOM     14  C   UNL     1       2.505   8.770  17.533  0.00  0.00    +0.000 A 
ATOM     15  C   UNL     1       2.412   7.860  18.592  0.00  0.00    +0.000 A 
ATOM     16  C   UNL     1       1.610   8.170  19.691  0.00  0.00    +0.000 A 
BRANCH  11  20
ATOM     17  C   UNL     1      -1.612  12.194  22.985  0.00  0.00    +0.000 C 
ATOM     18  C   UNL     1      -0.795  11.067  22.458  0.00  0.00    +0.000 A 
ATOM     19  N   UNL     1      -0.289  10.995  21.242  0.00  0.00    +0.000 NA
ATOM     20  C   UNL     1       0.413   9.800  21.093  0.00  0.00    +0.000 A 
ATOM     21  C   UNL     1       0.444   9.002  22.216  0.00  0.00    +0.000 A 
ATOM     22  S   UNL     1      -0.436   9.737  23.489  0.00  0.00    +0.000 S 
ENDBRANCH  11  20
ENDBRANCH   1  15
BRANCH   6  23
ATOM     23  C   UNL     1       2.278   2.629  21.601  0.00  0.00    +0.000 C 
ATOM     24  F   UNL     1       3.532   2.119  21.605  0.00  0.00    +0.000 F 
ATOM     25  F   UNL     1       2.336   3.791  22.294  0.00  0.00    +0.000 F 
ATOM     26  F   UNL     1       1.515   1.774  22.306  0.00  0.00    +0.000 F 
ENDBRANCH   6  23
TORSDOF 3
ENDMDL
MODEL 3
REMARK VINA RESULT:      -7.9      0.844      1.107
REMARK  Name = 
REMARK  6 active torsions:
REMARK  status: ('A' for Active; 'I' for Inactive)
REMARK    1  A    between atoms: C_1  and  C_2
REMARK    2  A    between atoms: C_4  and  C_5
REMARK    3  A    between atoms: C_9  and  C_10
REMARK    4  A    between atoms: C_15  and  C_16
REMARK    5  A    between atoms: C_20  and  C_21
REMARK    6  A    between atoms: C_20  and  C_22
REMARK                            x       y       z     vdW  Elec       q    Type
REMARK                         _______ _______ _______ _____ _____    ______ ____
ROOT
ATOM      1  C   UNL     1       2.337   7.589  18.937  0.00  0.00    +0.000 C 
ATOM      2  O   UNL     1       3.226   7.904  18.135  0.00  0.00    +0.000 OA
ATOM      3  N   UNL     1       2.251   6.299  19.487  0.00  0.00    +0.000 N 
ATOM      4  C   UNL     1       1.391   5.877  20.599  0.00  0.00    +0.000 C 
ATOM      5  C   UNL     1       0.714   4.553  20.253  0.00  0.00    +0.000 C 
ATOM      6  C   UNL     1       1.772   3.468  19.966  0.00  0.00    +0.000 C 
ATOM      7  C   UNL     1       2.732   3.936  18.815  0.00  0.00    +0.000 C 
ATOM      8  C   UNL     1       1.960   4.032  17.472  0.00  0.00    +0.000 C 
ATOM      9  C   UNL     1       3.884   2.939  18.574  0.00  0.00    +0.000 C 
ATOM     10  C   UNL     1       3.306   5.340  19.141  0.00  0.00    +0.000 C 
ENDROOT
BRANCH   1  15
ATOM     11  C   UNL     1      -0.588  10.024  18.910  0.00  0.00    +0.000 A 
ATOM     12  C   UNL     1      -0.496  10.538  20.210  0.00  0.00    +0.000 A 
ATOM     13  C   UNL     1       0.565  10.170  21.044  0.00  0.00    +0.000 A 
ATOM     14  C   UNL     1       1.492   9.220  20.606  0.00  0.00    +0.000 A 
ATOM     15  C   UNL     1       1.382   8.666  19.326  0.00  0.00    +0.000 A 
ATOM     16  C   UNL     1       0.403   9.147  18.454  0.00  0.00    +0.000 A 
BRANCH  11  20
ATOM     17  C   UNL     1      -4.927  12.026  17.582  0.00  0.00    +0.000 C 
ATOM     18  C   UNL     1      -3.653  11.260  17.492  0.00  0.00    +0.000 A 
ATOM     19  N   UNL     1      -2.785  11.108  18.472  0.00  0.00    +0.000 NA
ATOM     20  C   UNL     1      -1.708  10.340  18.033  0.00  0.00    +0.000 A 
ATOM     21  C   UNL     1      -1.801   9.904  16.729  0.00  0.00    +0.000 A 
ATOM     22  S   UNL     1      -3.249  10.475  16.015  0.00  0.00    +0.000 S 
ENDBRANCH  11  20
ENDBRANCH   1  15
BRANCH   6  23
ATOM     23  C   UNL     1       2.457   3.060  21.287  0.00  0.00    +0.000 C 
ATOM     24  F   UNL     1       2.615   4.110  22.128  0.00  0.00    +0.000 F 
ATOM     25  F   UNL     1       1.694   2.155  21.944  0.00  0.00    +0.000 F 
ATOM     26  F   UNL     1       3.677   2.516  21.121  0.00  0.00    +0.000 F 
ENDBRANCH   6  23
TORSDOF 3
ENDMDL
MODEL 4
REMARK VINA RESULT:      -7.7      1.377      1.645
REMARK  Name = 
REMARK  6 active torsions:
REMARK  status: ('A' for Active; 'I' for Inactive)
REMARK    1  A    between atoms: C_1  and  C_2
REMARK    2  A    between atoms: C_4  and  C_5
REMARK    3  A    between atoms: C_9  and  C_10
REMARK    4  A    between atoms: C_15  and  C_16
REMARK    5  A    between atoms: C_20  and  C_21
REMARK    6  A    between atoms: C_20  and  C_22
REMARK                            x       y       z     vdW  Elec       q    Type
REMARK                         _______ _______ _______ _____ _____    ______ ____
ROOT
ATOM      1  C   UNL     1       2.208   7.623  19.205  0.00  0.00    +0.000 C 
ATOM      2  O   UNL     1       2.718   8.157  18.212  0.00  0.00    +0.000 OA
ATOM      3  N   UNL     1       2.348   6.249  19.468  0.00  0.00    +0.000 N 
ATOM      4  C   UNL     1       1.984   5.555  20.709  0.00  0.00    +0.000 C 
ATOM      5  C   UNL     1       1.234   4.267  20.377  0.00  0.00    +0.000 C 
ATOM      6  C   UNL     1       2.107   3.349  19.498  0.00  0.00    +0.000 C 
ATOM      7  C   UNL     1       2.548   4.105  18.194  0.00  0.00    +0.000 C 
ATOM      8  C   UNL     1       1.318   4.386  17.289  0.00  0.00    +0.000 C 
ATOM      9  C   UNL     1       3.525   3.272  17.339  0.00  0.00    +0.000 C 
ATOM     10  C   UNL     1       3.194   5.466  18.563  0.00  0.00    +0.000 C 
ENDROOT
BRANCH   1  15
ATOM     11  C   UNL     1      -0.263  10.161  20.597  0.00  0.00    +0.000 A 
ATOM     12  C   UNL     1      -0.018  10.020  21.969  0.00  0.00    +0.000 A 
ATOM     13  C   UNL     1       1.007   9.185  22.423  0.00  0.00    +0.000 A 
ATOM     14  C   UNL     1       1.737   8.423  21.506  0.00  0.00    +0.000 A 
ATOM     15  C   UNL     1       1.469   8.522  20.137  0.00  0.00    +0.000 A 
ATOM     16  C   UNL     1       0.541   9.464  19.688  0.00  0.00    +0.000 A 
BRANCH  11  20
ATOM     17  C   UNL     1      -3.776  11.624  17.415  0.00  0.00    +0.000 C 
ATOM     18  C   UNL     1      -2.916  11.587  18.630  0.00  0.00    +0.000 A 
ATOM     19  N   UNL     1      -1.947  10.721  18.851  0.00  0.00    +0.000 NA
ATOM     20  C   UNL     1      -1.358  10.977  20.088  0.00  0.00    +0.000 A 
ATOM     21  C   UNL     1      -1.883  12.056  20.767  0.00  0.00    +0.000 A 
ATOM     22  S   UNL     1      -3.153  12.764  19.863  0.00  0.00    +0.000 S 
ENDBRANCH  11  20
ENDBRANCH   1  15
BRANCH   6  23
ATOM     23  C   UNL     1       3.250   2.759  20.351  0.00  0.00    +0.000 C 
ATOM     24  F   UNL     1       4.329   3.575  20.395  0.00  0.00    +0.000 F 
ATOM     25  F   UNL     1       2.838   2.602  21.631  0.00  0.00    +0.000 F 
ATOM     26  F   UNL     1       3.691   1.564  19.917  0.00  0.00    +0.000 F 
ENDBRANCH   6  23
TORSDOF 3
ENDMDL
MODEL 5
REMARK VINA RESULT:      -7.7      4.119      7.510
REMARK  Name = 
REMARK  6 active torsions:
REMARK  status: ('A' for Active; 'I' for Inactive)
REMARK    1  A    between atoms: C_1  and  C_2
REMARK    2  A    between atoms: C_4  and  C_5
REMARK    3  A    between atoms: C_9  and  C_10
REMARK    4  A    between atoms: C_15  and  C_16
REMARK    5  A    between atoms: C_20  and  C_21
REMARK    6  A    between atoms: C_20  and  C_22
REMARK                            x       y       z     vdW  Elec       q    Type
REMARK                         _______ _______ _______ _____ _____    ______ ____
ROOT
ATOM      1  C   UNL     1       1.473   8.775  18.487  0.00  0.00    +0.000 C 
ATOM      2  O   UNL     1       0.950   9.234  17.463  0.00  0.00    +0.000 OA
ATOM      3  N   UNL     1       1.031   9.129  19.773  0.00  0.00    +0.000 N 
ATOM      4  C   UNL     1       1.417   8.491  21.037  0.00  0.00    +0.000 C 
ATOM      5  C   UNL     1       1.735   9.562  22.078  0.00  0.00    +0.000 C 
ATOM      6  C   UNL     1       0.512  10.473  22.302  0.00  0.00    +0.000 C 
ATOM      7  C   UNL     1       0.057  11.115  20.943  0.00  0.00    +0.000 C 
ATOM      8  C   UNL     1       1.135  12.103  20.423  0.00  0.00    +0.000 C 
ATOM      9  C   UNL     1      -1.240  11.938  21.092  0.00  0.00    +0.000 C 
ATOM     10  C   UNL     1      -0.138  10.009  19.873  0.00  0.00    +0.000 C 
ENDROOT
BRANCH   1  15
ATOM     11  C   UNL     1       3.639   5.656  18.741  0.00  0.00    +0.000 A 
ATOM     12  C   UNL     1       4.549   5.900  17.704  0.00  0.00    +0.000 A 
ATOM     13  C   UNL     1       4.516   7.109  17.002  0.00  0.00    +0.000 A 
ATOM     14  C   UNL     1       3.516   8.045  17.283  0.00  0.00    +0.000 A 
ATOM     15  C   UNL     1       2.575   7.791  18.286  0.00  0.00    +0.000 A 
ATOM     16  C   UNL     1       2.707   6.645  19.073  0.00  0.00    +0.000 A 
BRANCH  11  20
ATOM     17  C   UNL     1       1.889   2.202  21.841  0.00  0.00    +0.000 C 
ATOM     18  C   UNL     1       2.778   2.876  20.854  0.00  0.00    +0.000 A 
ATOM     19  N   UNL     1       2.584   4.079  20.352  0.00  0.00    +0.000 NA
ATOM     20  C   UNL     1       3.607   4.387  19.457  0.00  0.00    +0.000 A 
ATOM     21  C   UNL     1       4.572   3.412  19.322  0.00  0.00    +0.000 A 
ATOM     22  S   UNL     1       4.197   2.067  20.313  0.00  0.00    +0.000 S 
ENDBRANCH  11  20
ENDBRANCH   1  15
BRANCH   6  23
ATOM     23  C   UNL     1      -0.574   9.691  23.072  0.00  0.00    +0.000 C 
ATOM     24  F   UNL     1      -1.078   8.666  22.346  0.00  0.00    +0.000 F 
ATOM     25  F   UNL     1      -0.044   9.144  24.191  0.00  0.00    +0.000 F 
ATOM     26  F   UNL     1      -1.623  10.446  23.448  0.00  0.00    +0.000 F 
ENDBRANCH   6  23
TORSDOF 3
ENDMDL
MODEL 6
REMARK VINA RESULT:      -7.6      1.648      2.248
REMARK  Name = 
REMARK  6 active torsions:
REMARK  status: ('A' for Active; 'I' for Inactive)
REMARK    1  A    between atoms: C_1  and  C_2
REMARK    2  A    between atoms: C_4  and  C_5
REMARK    3  A    between atoms: C_9  and  C_10
REMARK    4  A    between atoms: C_15  and  C_16
REMARK    5  A    between atoms: C_20  and  C_21
REMARK    6  A    between atoms: C_20  and  C_22
REMARK                            x       y       z     vdW  Elec       q    Type
REMARK                         _______ _______ _______ _____ _____    ______ ____
ROOT
ATOM      1  C   UNL     1       2.191   7.641  19.232  0.00  0.00    +0.000 C 
ATOM      2  O   UNL     1       2.698   8.178  18.239  0.00  0.00    +0.000 OA
ATOM      3  N   UNL     1       2.333   6.266  19.489  0.00  0.00    +0.000 N 
ATOM      4  C   UNL     1       1.972   5.568  20.729  0.00  0.00    +0.000 C 
ATOM      5  C   UNL     1       1.222   4.280  20.394  0.00  0.00    +0.000 C 
ATOM      6  C   UNL     1       2.093   3.365  19.509  0.00  0.00    +0.000 C 
ATOM      7  C   UNL     1       2.531   4.126  18.207  0.00  0.00    +0.000 C 
ATOM      8  C   UNL     1       1.299   4.410  17.306  0.00  0.00    +0.000 C 
ATOM      9  C   UNL     1       3.507   3.298  17.347  0.00  0.00    +0.000 C 
ATOM     10  C   UNL     1       3.178   5.487  18.579  0.00  0.00    +0.000 C 
ENDROOT
BRANCH   1  15
ATOM     11  C   UNL     1      -0.260  10.193  20.632  0.00  0.00    +0.000 A 
ATOM     12  C   UNL     1      -0.035  10.027  22.005  0.00  0.00    +0.000 A 
ATOM     13  C   UNL     1       0.972   9.169  22.459  0.00  0.00    +0.000 A 
ATOM     14  C   UNL     1       1.702   8.412  21.539  0.00  0.00    +0.000 A 
ATOM     15  C   UNL     1       1.453   8.536  20.168  0.00  0.00    +0.000 A 
ATOM     16  C   UNL     1       0.546   9.499  19.723  0.00  0.00    +0.000 A 
BRANCH  11  20
ATOM     17  C   UNL     1      -3.707  13.759  20.727  0.00  0.00    +0.000 C 
ATOM     18  C   UNL     1      -2.861  12.643  20.220  0.00  0.00    +0.000 A 
ATOM     19  N   UNL     1      -1.930  12.017  20.912  0.00  0.00    +0.000 NA
ATOM     20  C   UNL     1      -1.336  11.034  20.123  0.00  0.00    +0.000 A 
ATOM     21  C   UNL     1      -1.853  10.922  18.850  0.00  0.00    +0.000 A 
ATOM     22  S   UNL     1      -3.096  12.075  18.612  0.00  0.00    +0.000 S 
ENDBRANCH  11  20
ENDBRANCH   1  15
BRANCH   6  23
ATOM     23  C   UNL     1       3.239   2.774  20.358  0.00  0.00    +0.000 C 
ATOM     24  F   UNL     1       2.873   2.578  21.646  0.00  0.00    +0.000 F 
ATOM     25  F   UNL     1       3.595   1.561  19.872  0.00  0.00    +0.000 F 
ATOM     26  F   UNL     1       4.345   3.540  20.386  0.00  0.00    +0.000 F 
ENDBRANCH   6  23
TORSDOF 3
ENDMDL
MODEL 7
REMARK VINA RESULT:      -7.4      3.285      4.419
REMARK  Name = 
REMARK  6 active torsions:
REMARK  status: ('A' for Active; 'I' for Inactive)
REMARK    1  A    between atoms: C_1  and  C_2
REMARK    2  A    between atoms: C_4  and  C_5
REMARK    3  A    between atoms: C_9  and  C_10
REMARK    4  A    between atoms: C_15  and  C_16
REMARK    5  A    between atoms: C_20  and  C_21
REMARK    6  A    between atoms: C_20  and  C_22
REMARK                            x       y       z     vdW  Elec       q    Type
REMARK                         _______ _______ _______ _____ _____    ______ ____
ROOT
ATOM      1  C   UNL     1       3.017   7.429  17.934  0.00  0.00    +0.000 C 
ATOM      2  O   UNL     1       2.624   7.935  16.874  0.00  0.00    +0.000 OA
ATOM      3  N   UNL     1       4.171   6.631  17.996  0.00  0.00    +0.000 N 
ATOM      4  C   UNL     1       4.849   6.167  19.212  0.00  0.00    +0.000 C 
ATOM      5  C   UNL     1       5.199   4.687  19.074  0.00  0.00    +0.000 C 
ATOM      6  C   UNL     1       6.107   4.461  17.848  0.00  0.00    +0.000 C 
ATOM      7  C   UNL     1       5.411   5.007  16.550  0.00  0.00    +0.000 C 
ATOM      8  C   UNL     1       4.155   4.161  16.213  0.00  0.00    +0.000 C 
ATOM      9  C   UNL     1       6.330   4.919  15.314  0.00  0.00    +0.000 C 
ATOM     10  C   UNL     1       4.958   6.475  16.768  0.00  0.00    +0.000 C 
ENDROOT
BRANCH   1  15
ATOM     11  C   UNL     1       0.797   9.222  20.453  0.00  0.00    +0.000 A 
ATOM     12  C   UNL     1       0.574   8.187  21.369  0.00  0.00    +0.000 A 
ATOM     13  C   UNL     1       1.220   6.956  21.218  0.00  0.00    +0.000 A 
ATOM     14  C   UNL     1       2.029   6.731  20.101  0.00  0.00    +0.000 A 
ATOM     15  C   UNL     1       2.222   7.745  19.155  0.00  0.00    +0.000 A 
ATOM     16  C   UNL     1       1.686   9.012  19.393  0.00  0.00    +0.000 A 
BRANCH  11  20
ATOM     17  C   UNL     1      -0.458  13.613  22.389  0.00  0.00    +0.000 C 
ATOM     18  C   UNL     1      -0.424  12.454  21.455  0.00  0.00    +0.000 A 
ATOM     19  N   UNL     1       0.313  11.371  21.611  0.00  0.00    +0.000 NA
ATOM     20  C   UNL     1       0.099  10.499  20.546  0.00  0.00    +0.000 A 
ATOM     21  C   UNL     1      -0.820  10.933  19.615  0.00  0.00    +0.000 A 
ATOM     22  S   UNL     1      -1.425  12.473  20.056  0.00  0.00    +0.000 S 
ENDBRANCH  11  20
ENDBRANCH   1  15
BRANCH   6  23
ATOM     23  C   UNL     1       7.513   5.024  18.143  0.00  0.00    +0.000 C 
ATOM     24  F   UNL     1       7.716   5.230  19.465  0.00  0.00    +0.000 F 
ATOM     25  F   UNL     1       8.458   4.139  17.745  0.00  0.00    +0.000 F 
ATOM     26  F   UNL     1       7.769   6.194  17.529  0.00  0.00    +0.000 F 
ENDBRANCH   6  23
TORSDOF 3
ENDMDL
MODEL 8
REMARK VINA RESULT:      -7.4      2.426      2.767
REMARK  Name = 
REMARK  6 active torsions:
REMARK  status: ('A' for Active; 'I' for Inactive)
REMARK    1  A    between atoms: C_1  and  C_2
REMARK    2  A    between atoms: C_4  and  C_5
REMARK    3  A    between atoms: C_9  and  C_10
REMARK    4  A    between atoms: C_15  and  C_16
REMARK    5  A    between atoms: C_20  and  C_21
REMARK    6  A    between atoms: C_20  and  C_22
REMARK                            x       y       z     vdW  Elec       q    Type
REMARK                         _______ _______ _______ _____ _____    ______ ____
ROOT
ATOM      1  C   UNL     1       2.154   7.723  19.061  0.00  0.00    +0.000 C 
ATOM      2  O   UNL     1       2.591   8.247  18.028  0.00  0.00    +0.000 OA
ATOM      3  N   UNL     1       2.331   6.357  19.337  0.00  0.00    +0.000 N 
ATOM      4  C   UNL     1       2.058   5.679  20.610  0.00  0.00    +0.000 C 
ATOM      5  C   UNL     1       1.308   4.375  20.348  0.00  0.00    +0.000 C 
ATOM      6  C   UNL     1       2.136   3.454  19.429  0.00  0.00    +0.000 C 
ATOM      7  C   UNL     1       2.482   4.193  18.088  0.00  0.00    +0.000 C 
ATOM      8  C   UNL     1       1.193   4.441  17.259  0.00  0.00    +0.000 C 
ATOM      9  C   UNL     1       3.415   3.360  17.185  0.00  0.00    +0.000 C 
ATOM     10  C   UNL     1       3.130   5.570  18.392  0.00  0.00    +0.000 C 
ENDROOT
BRANCH   1  15
ATOM     11  C   UNL     1       0.406  10.741  20.584  0.00  0.00    +0.000 A 
ATOM     12  C   UNL     1      -0.022  10.193  21.800  0.00  0.00    +0.000 A 
ATOM     13  C   UNL     1       0.343   8.891  22.158  0.00  0.00    +0.000 A 
ATOM     14  C   UNL     1       1.069   8.105  21.260  0.00  0.00    +0.000 A 
ATOM     15  C   UNL     1       1.462   8.628  20.023  0.00  0.00    +0.000 A 
ATOM     16  C   UNL     1       1.214   9.972  19.739  0.00  0.00    +0.000 A 
BRANCH  11  20
ATOM     17  C   UNL     1      -2.084  15.029  20.727  0.00  0.00    +0.000 C 
ATOM     18  C   UNL     1      -1.140  13.973  20.265  0.00  0.00    +0.000 A 
ATOM     19  N   UNL     1      -0.962  12.804  20.848  0.00  0.00    +0.000 NA
ATOM     20  C   UNL     1      -0.001  12.073  20.152  0.00  0.00    +0.000 A 
ATOM     21  C   UNL     1       0.510  12.700  19.036  0.00  0.00    +0.000 A 
ATOM     22  S   UNL     1      -0.201  14.247  18.850  0.00  0.00    +0.000 S 
ENDBRANCH  11  20
ENDBRANCH   1  15
BRANCH   6  23
ATOM     23  C   UNL     1       3.341   2.896  20.217  0.00  0.00    +0.000 C 
ATOM     24  F   UNL     1       3.061   2.728  21.531  0.00  0.00    +0.000 F 
ATOM     25  F   UNL     1       3.680   1.675  19.739  0.00  0.00    +0.000 F 
ATOM     26  F   UNL     1       4.437   3.674  20.155  0.00  0.00    +0.000 F 
ENDBRANCH   6  23
TORSDOF 3
ENDMDL
MODEL 9
REMARK VINA RESULT:      -7.4      4.745      8.027
REMARK  Name = 
REMARK  6 active torsions:
REMARK  status: ('A' for Active; 'I' for Inactive)
REMARK    1  A    between atoms: C_1  and  C_2
REMARK    2  A    between atoms: C_4  and  C_5
REMARK    3  A    between atoms: C_9  and  C_10
REMARK    4  A    between atoms: C_15  and  C_16
REMARK    5  A    between atoms: C_20  and  C_21
REMARK    6  A    between atoms: C_20  and  C_22
REMARK                            x       y       z     vdW  Elec       q    Type
REMARK                         _______ _______ _______ _____ _____    ______ ____
ROOT
ATOM      1  C   UNL     1       1.698   9.228  18.398  0.00  0.00    +0.000 C 
ATOM      2  O   UNL     1       1.906   9.578  17.228  0.00  0.00    +0.000 OA
ATOM      3  N   UNL     1       0.977  10.030  19.299  0.00  0.00    +0.000 N 
ATOM      4  C   UNL     1       0.484   9.631  20.622  0.00  0.00    +0.000 C 
ATOM      5  C   UNL     1       0.788  10.731  21.638  0.00  0.00    +0.000 C 
ATOM      6  C   UNL     1       0.128  12.057  21.209  0.00  0.00    +0.000 C 
ATOM      7  C   UNL     1       0.608  12.461  19.769  0.00  0.00    +0.000 C 
ATOM      8  C   UNL     1       2.120  12.813  19.781  0.00  0.00    +0.000 C 
ATOM      9  C   UNL     1      -0.119  13.715  19.242  0.00  0.00    +0.000 C 
ATOM     10  C   UNL     1       0.398  11.277  18.788  0.00  0.00    +0.000 C 
ENDROOT
BRANCH   1  15
ATOM     11  C   UNL     1       3.765   6.035  18.525  0.00  0.00    +0.000 A 
ATOM     12  C   UNL     1       3.288   5.478  19.719  0.00  0.00    +0.000 A 
ATOM     13  C   UNL     1       2.238   6.085  20.415  0.00  0.00    +0.000 A 
ATOM     14  C   UNL     1       1.718   7.300  19.960  0.00  0.00    +0.000 A 
ATOM     15  C   UNL     1       2.219   7.889  18.793  0.00  0.00    +0.000 A 
ATOM     16  C   UNL     1       3.167   7.200  18.033  0.00  0.00    +0.000 A 
BRANCH  11  20
ATOM     17  C   UNL     1       6.165   3.926  14.731  0.00  0.00    +0.000 C 
ATOM     18  C   UNL     1       5.918   4.521  16.074  0.00  0.00    +0.000 A 
ATOM     19  N   UNL     1       4.756   4.970  16.506  0.00  0.00    +0.000 NA
ATOM     20  C   UNL     1       4.893   5.461  17.803  0.00  0.00    +0.000 A 
ATOM     21  C   UNL     1       6.159   5.347  18.335  0.00  0.00    +0.000 A 
ATOM     22  S   UNL     1       7.218   4.631  17.195  0.00  0.00    +0.000 S 
ENDBRANCH  11  20
ENDBRANCH   1  15
BRANCH   6  23
ATOM     23  C   UNL     1      -1.399  11.953  21.402  0.00  0.00    +0.000 C 
ATOM     24  F   UNL     1      -1.733  11.102  22.401  0.00  0.00    +0.000 F 
ATOM     25  F   UNL     1      -1.904  13.162  21.745  0.00  0.00    +0.000 F 
ATOM     26  F   UNL     1      -2.059  11.535  20.306  0.00  0.00    +0.000 F 
ENDBRANCH   6  23
TORSDOF 3
ENDMDL
