MODEL 1
REMARK VINA RESULT:      -8.8      0.000      0.000
REMARK  Name = 
REMARK  7 active torsions:
REMARK  status: ('A' for Active; 'I' for Inactive)
REMARK    1  A    between atoms: C_1  and  C_2
REMARK    2  A    between atoms: C_8  and  C_9
REMARK    3  A    between atoms: C_13  and  C_14
REMARK    4  A    between atoms: C_14  and  C_15
REMARK    5  A    between atoms: C_14  and  S_16
REMARK    6  A    between atoms: S_16  and  C_17
REMARK    7  A    between atoms: N_21  and  C_22
REMARK                            x       y       z     vdW  Elec       q    Type
REMARK                         _______ _______ _______ _____ _____    ______ ____
ROOT
ATOM      1  C   UNL     1       1.466   8.645  20.053  0.00  0.00    +0.000 A 
ATOM      2  C   UNL     1       1.729   9.173  18.785  0.00  0.00    +0.000 A 
ATOM      3  C   UNL     1       2.337   8.381  17.815  0.00  0.00    +0.000 A 
ATOM      4  C   UNL     1       2.675   7.058  18.103  0.00  0.00    +0.000 A 
ATOM      5  C   UNL     1       2.416   6.507  19.369  0.00  0.00    +0.000 A 
ATOM      6  C   UNL     1       1.825   7.324  20.344  0.00  0.00    +0.000 A 
ENDROOT
BRANCH   1  14
ATOM      7  C   UNL     1      -0.647  10.388  18.326  0.00  0.00    +0.000 C 
ATOM      8  C   UNL     1      -0.933  10.869  19.718  0.00  0.00    +0.000 A 
ATOM      9  C   UNL     1      -1.872  11.803  19.968  0.00  0.00    +0.000 A 
ATOM     10  C   UNL     1      -2.178  12.256  21.312  0.00  0.00    +0.000 A 
ATOM     11  C   UNL     1      -1.563  11.769  22.401  0.00  0.00    +0.000 A 
ATOM     12  C   UNL     1      -0.521  10.737  22.232  0.00  0.00    +0.000 A 
ATOM     13  C   UNL     1      -0.217  10.320  20.848  0.00  0.00    +0.000 A 
ATOM     14  C   UNL     1       0.753   9.426  21.051  0.00  0.00    +0.000 C 
ATOM     15  C   UNL     1       1.047   9.244  22.505  0.00  0.00    +0.000 C 
ATOM     16  N   UNL     1       0.137  10.182  23.206  0.00  0.00    +0.000 NA
ENDBRANCH   1  14
BRANCH   5  17
ATOM     17  C   UNL     1       2.743   5.049  19.638  0.00  0.00    +0.000 C 
ATOM     18  C   UNL     1       1.527   4.325  20.224  0.00  0.00    +0.000 C 
BRANCH  17  19
ATOM     19  S   UNL     1       3.287   4.130  18.148  0.00  0.00    +0.000 S 
BRANCH  19  20
ATOM     20  C   UNL     1       5.004   4.314  18.186  0.00  0.00    +0.000 A 
ATOM     21  N   UNL     1       5.781   4.407  19.241  0.00  0.00    +0.000 NA
ATOM     22  N   UNL     1       7.068   4.629  18.798  0.00  0.00    +0.000 NA
ATOM     23  C   UNL     1       7.039   4.634  17.486  0.00  0.00    +0.000 A 
ATOM     24  N   UNL     1       5.766   4.404  17.056  0.00  0.00    +0.000 N 
ATOM     25  C   UNL     1       5.350   4.268  15.688  0.00  0.00    +0.000 C 
ENDBRANCH  19  20
ENDBRANCH  17  19
ENDBRANCH   5  17
TORSDOF 4
ENDMDL
MODEL 2
REMARK VINA RESULT:      -8.5      1.261      1.313
REMARK  Name = 
REMARK  7 active torsions:
REMARK  status: ('A' for Active; 'I' for Inactive)
REMARK    1  A    between atoms: C_1  and  C_2
REMARK    2  A    between atoms: C_8  and  C_9
REMARK    3  A    between atoms: C_13  and  C_14
REMARK    4  A    between atoms: C_14  and  C_15
REMARK    5  A    between atoms: C_14  and  S_16
REMARK    6  A    between atoms: S_16  and  C_17
REMARK    7  A    between atoms: N_21  and  C_22
REMARK                            x       y       z     vdW  Elec       q    Type
REMARK                         _______ _______ _______ _____ _____    ______ ____
ROOT
ATOM      1  C   UNL     1       1.153   9.058  20.048  0.00  0.00    +0.000 A 
ATOM      2  C   UNL     1       1.120   9.477  18.715  0.00  0.00    +0.000 A 
ATOM      3  C   UNL     1       1.762   8.726  17.734  0.00  0.00    +0.000 A 
ATOM      4  C   UNL     1       2.431   7.551  18.079  0.00  0.00    +0.000 A 
ATOM      5  C   UNL     1       2.473   7.109  19.413  0.00  0.00    +0.000 A 
ATOM      6  C   UNL     1       1.842   7.890  20.393  0.00  0.00    +0.000 A 
ENDROOT
BRANCH   1  14
ATOM      7  C   UNL     1       1.581  12.174  19.279  0.00  0.00    +0.000 C 
ATOM      8  C   UNL     1       0.753  12.286  20.525  0.00  0.00    +0.000 A 
ATOM      9  C   UNL     1       0.392  13.482  21.032  0.00  0.00    +0.000 A 
ATOM     10  C   UNL     1      -0.433  13.605  22.219  0.00  0.00    +0.000 A 
ATOM     11  C   UNL     1      -0.906  12.542  22.889  0.00  0.00    +0.000 A 
ATOM     12  C   UNL     1      -0.570  11.187  22.409  0.00  0.00    +0.000 A 
ATOM     13  C   UNL     1       0.294  11.101  21.213  0.00  0.00    +0.000 A 
ATOM     14  C   UNL     1       0.416   9.779  21.074  0.00  0.00    +0.000 C 
ATOM     15  C   UNL     1      -0.359   9.035  22.113  0.00  0.00    +0.000 C 
ATOM     16  N   UNL     1      -0.975  10.083  22.963  0.00  0.00    +0.000 NA
ENDBRANCH   1  14
BRANCH   5  17
ATOM     17  C   UNL     1       3.160   5.799  19.752  0.00  0.00    +0.000 C 
ATOM     18  C   UNL     1       2.229   4.902  20.574  0.00  0.00    +0.000 C 
BRANCH  17  19
ATOM     19  S   UNL     1       3.706   4.852  18.280  0.00  0.00    +0.000 S 
BRANCH  19  20
ATOM     20  C   UNL     1       5.426   4.838  18.447  0.00  0.00    +0.000 A 
ATOM     21  N   UNL     1       6.132   5.076  19.529  0.00  0.00    +0.000 NA
ATOM     22  N   UNL     1       7.465   5.040  19.178  0.00  0.00    +0.000 NA
ATOM     23  C   UNL     1       7.529   4.751  17.899  0.00  0.00    +0.000 A 
ATOM     24  N   UNL     1       6.270   4.580  17.405  0.00  0.00    +0.000 N 
ATOM     25  C   UNL     1       5.936   4.188  16.064  0.00  0.00    +0.000 C 
ENDBRANCH  19  20
ENDBRANCH  17  19
ENDBRANCH   5  17
TORSDOF 4
ENDMDL
MODEL 3
REMARK VINA RESULT:      -8.3      2.284      8.242
REMARK  Name = 
REMARK  7 active torsions:
REMARK  status: ('A' for Active; 'I' for Inactive)
REMARK    1  A    between atoms: C_1  and  C_2
REMARK    2  A    between atoms: C_8  and  C_9
REMARK    3  A    between atoms: C_13  and  C_14
REMARK    4  A    between atoms: C_14  and  C_15
REMARK    5  A    between atoms: C_14  and  S_16
REMARK    6  A    between atoms: S_16  and  C_17
REMARK    7  A    between atoms: N_21  and  C_22
REMARK                            x       y       z     vdW  Elec       q    Type
REMARK                         _______ _______ _______ _____ _____    ______ ____
ROOT
ATOM      1  C   UNL     1       3.106   6.769  18.645  0.00  0.00    +0.000 A 
ATOM      2  C   UNL     1       3.305   7.493  17.466  0.00  0.00    +0.000 A 
ATOM      3  C   UNL     1       2.679   8.724  17.292  0.00  0.00    +0.000 A 
ATOM      4  C   UNL     1       1.861   9.241  18.298  0.00  0.00    +0.000 A 
ATOM      5  C   UNL     1       1.651   8.531  19.493  0.00  0.00    +0.000 A 
ATOM      6  C   UNL     1       2.269   7.281  19.643  0.00  0.00    +0.000 A 
ENDROOT
BRANCH   1  14
ATOM      7  C   UNL     1       1.063   4.482  17.605  0.00  0.00    +0.000 C 
ATOM      8  C   UNL     1       2.212   3.653  18.098  0.00  0.00    +0.000 A 
ATOM      9  C   UNL     1       2.193   2.307  18.036  0.00  0.00    +0.000 A 
ATOM     10  C   UNL     1       3.308   1.493  18.483  0.00  0.00    +0.000 A 
ATOM     11  C   UNL     1       4.441   2.020  18.974  0.00  0.00    +0.000 A 
ATOM     12  C   UNL     1       4.561   3.488  19.078  0.00  0.00    +0.000 A 
ATOM     13  C   UNL     1       3.395   4.282  18.639  0.00  0.00    +0.000 A 
ATOM     14  C   UNL     1       3.819   5.524  18.884  0.00  0.00    +0.000 C 
ATOM     15  C   UNL     1       5.210   5.541  19.429  0.00  0.00    +0.000 C 
ATOM     16  N   UNL     1       5.607   4.115  19.526  0.00  0.00    +0.000 NA
ENDBRANCH   1  14
BRANCH   5  17
ATOM     17  C   UNL     1       0.801   9.142  20.593  0.00  0.00    +0.000 C 
ATOM     18  C   UNL     1       1.151   8.521  21.948  0.00  0.00    +0.000 C 
BRANCH  17  19
ATOM     19  S   UNL     1       0.982  10.960  20.738  0.00  0.00    +0.000 S 
BRANCH  19  20
ATOM     20  C   UNL     1      -0.399  11.412  21.673  0.00  0.00    +0.000 A 
ATOM     21  N   UNL     1      -0.564  11.304  22.971  0.00  0.00    +0.000 NA
ATOM     22  N   UNL     1      -1.848  11.705  23.268  0.00  0.00    +0.000 NA
ATOM     23  C   UNL     1      -2.416  12.076  22.144  0.00  0.00    +0.000 A 
ATOM     24  N   UNL     1      -1.529  11.941  21.118  0.00  0.00    +0.000 N 
ATOM     25  C   UNL     1      -1.761  12.311  19.749  0.00  0.00    +0.000 C 
ENDBRANCH  19  20
ENDBRANCH  17  19
ENDBRANCH   5  17
TORSDOF 4
ENDMDL
MODEL 4
REMARK VINA RESULT:      -8.3      2.880      7.970
REMARK  Name = 
REMARK  7 active torsions:
REMARK  status: ('A' for Active; 'I' for Inactive)
REMARK    1  A    between atoms: C_1  and  C_2
REMARK    2  A    between atoms: C_8  and  C_9
REMARK    3  A    between atoms: C_13  and  C_14
REMARK    4  A    between atoms: C_14  and  C_15
REMARK    5  A    between atoms: C_14  and  S_16
REMARK    6  A    between atoms: S_16  and  C_17
REMARK    7  A    between atoms: N_21  and  C_22
REMARK                            x       y       z     vdW  Elec       q    Type
REMARK                         _______ _______ _______ _____ _____    ______ ____
ROOT
ATOM      1  C   UNL     1       3.139   6.725  18.655  0.00  0.00    +0.000 A 
ATOM      2  C   UNL     1       3.395   7.478  17.506  0.00  0.00    +0.000 A 
ATOM      3  C   UNL     1       2.779   8.715  17.333  0.00  0.00    +0.000 A 
ATOM      4  C   UNL     1       1.913   9.207  18.311  0.00  0.00    +0.000 A 
ATOM      5  C   UNL     1       1.645   8.467  19.476  0.00  0.00    +0.000 A 
ATOM      6  C   UNL     1       2.254   7.212  19.624  0.00  0.00    +0.000 A 
ENDROOT
BRANCH   1  14
ATOM      7  C   UNL     1       1.082   4.459  17.596  0.00  0.00    +0.000 C 
ATOM      8  C   UNL     1       2.219   3.618  18.095  0.00  0.00    +0.000 A 
ATOM      9  C   UNL     1       2.189   2.272  18.030  0.00  0.00    +0.000 A 
ATOM     10  C   UNL     1       3.293   1.447  18.482  0.00  0.00    +0.000 A 
ATOM     11  C   UNL     1       4.428   1.962  18.982  0.00  0.00    +0.000 A 
ATOM     12  C   UNL     1       4.561   3.429  19.090  0.00  0.00    +0.000 A 
ATOM     13  C   UNL     1       3.405   4.235  18.645  0.00  0.00    +0.000 A 
ATOM     14  C   UNL     1       3.839   5.472  18.896  0.00  0.00    +0.000 C 
ATOM     15  C   UNL     1       5.226   5.475  19.450  0.00  0.00    +0.000 C 
ATOM     16  N   UNL     1       5.610   4.046  19.547  0.00  0.00    +0.000 NA
ENDBRANCH   1  14
BRANCH   5  17
ATOM     17  C   UNL     1       0.743   9.051  20.549  0.00  0.00    +0.000 C 
ATOM     18  C   UNL     1       1.324   8.786  21.941  0.00  0.00    +0.000 C 
BRANCH  17  19
ATOM     19  S   UNL     1       0.473  10.856  20.380  0.00  0.00    +0.000 S 
BRANCH  19  20
ATOM     20  C   UNL     1      -0.782  10.950  19.196  0.00  0.00    +0.000 A 
ATOM     21  N   UNL     1      -1.662  10.028  18.881  0.00  0.00    +0.000 NA
ATOM     22  N   UNL     1      -2.411  10.504  17.826  0.00  0.00    +0.000 NA
ATOM     23  C   UNL     1      -1.984  11.715  17.553  0.00  0.00    +0.000 A 
ATOM     24  N   UNL     1      -0.982  12.051  18.413  0.00  0.00    +0.000 N 
ATOM     25  C   UNL     1      -0.310  13.319  18.471  0.00  0.00    +0.000 C 
ENDBRANCH  19  20
ENDBRANCH  17  19
ENDBRANCH   5  17
TORSDOF 4
ENDMDL
MODEL 5
REMARK VINA RESULT:      -8.3      0.970      1.072
REMARK  Name = 
REMARK  7 active torsions:
REMARK  status: ('A' for Active; 'I' for Inactive)
REMARK    1  A    between atoms: C_1  and  C_2
REMARK    2  A    between atoms: C_8  and  C_9
REMARK    3  A    between atoms: C_13  and  C_14
REMARK    4  A    between atoms: C_14  and  C_15
REMARK    5  A    between atoms: C_14  and  S_16
REMARK    6  A    between atoms: S_16  and  C_17
REMARK    7  A    between atoms: N_21  and  C_22
REMARK                            x       y       z     vdW  Elec       q    Type
REMARK                         _______ _______ _______ _____ _____    ______ ____
ROOT
ATOM      1  C   UNL     1       1.246   9.461  19.562  0.00  0.00    +0.000 A 
ATOM      2  C   UNL     1       1.587   9.837  18.260  0.00  0.00    +0.000 A 
ATOM      3  C   UNL     1       2.315   8.966  17.453  0.00  0.00    +0.000 A 
ATOM      4  C   UNL     1       2.697   7.716  17.941  0.00  0.00    +0.000 A 
ATOM      5  C   UNL     1       2.361   7.317  19.247  0.00  0.00    +0.000 A 
ATOM      6  C   UNL     1       1.648   8.214  20.055  0.00  0.00    +0.000 A 
ENDROOT
BRANCH   1  14
ATOM      7  C   UNL     1      -1.271  10.185  17.658  0.00  0.00    +0.000 C 
ATOM      8  C   UNL     1      -1.607  10.956  18.899  0.00  0.00    +0.000 A 
ATOM      9  C   UNL     1      -2.723  11.706  18.990  0.00  0.00    +0.000 A 
ATOM     10  C   UNL     1      -3.075  12.434  20.195  0.00  0.00    +0.000 A 
ATOM     11  C   UNL     1      -2.325  12.402  21.308  0.00  0.00    +0.000 A 
ATOM     12  C   UNL     1      -1.083  11.604  21.311  0.00  0.00    +0.000 A 
ATOM     13  C   UNL     1      -0.743  10.899  20.058  0.00  0.00    +0.000 A 
ATOM     14  C   UNL     1       0.411  10.318  20.390  0.00  0.00    +0.000 C 
ATOM     15  C   UNL     1       0.792  10.605  21.806  0.00  0.00    +0.000 C 
ATOM     16  N   UNL     1      -0.281  11.487  22.327  0.00  0.00    +0.000 NA
ENDBRANCH   1  14
BRANCH   5  17
ATOM     17  C   UNL     1       2.741   5.930  19.732  0.00  0.00    +0.000 C 
ATOM     18  C   UNL     1       1.606   5.323  20.563  0.00  0.00    +0.000 C 
BRANCH  17  19
ATOM     19  S   UNL     1       3.141   4.760  18.378  0.00  0.00    +0.000 S 
BRANCH  19  20
ATOM     20  C   UNL     1       4.868   4.773  18.355  0.00  0.00    +0.000 A 
ATOM     21  N   UNL     1       5.690   4.290  19.258  0.00  0.00    +0.000 NA
ATOM     22  N   UNL     1       6.975   4.599  18.868  0.00  0.00    +0.000 NA
ATOM     23  C   UNL     1       6.897   5.235  17.722  0.00  0.00    +0.000 A 
ATOM     24  N   UNL     1       5.592   5.336  17.343  0.00  0.00    +0.000 N 
ATOM     25  C   UNL     1       5.113   5.904  16.114  0.00  0.00    +0.000 C 
ENDBRANCH  19  20
ENDBRANCH  17  19
ENDBRANCH   5  17
TORSDOF 4
ENDMDL
MODEL 6
REMARK VINA RESULT:      -8.2      2.687      8.225
REMARK  Name = 
REMARK  7 active torsions:
REMARK  status: ('A' for Active; 'I' for Inactive)
REMARK    1  A    between atoms: C_1  and  C_2
REMARK    2  A    between atoms: C_8  and  C_9
REMARK    3  A    between atoms: C_13  and  C_14
REMARK    4  A    between atoms: C_14  and  C_15
REMARK    5  A    between atoms: C_14  and  S_16
REMARK    6  A    between atoms: S_16  and  C_17
REMARK    7  A    between atoms: N_21  and  C_22
REMARK                            x       y       z     vdW  Elec       q    Type
REMARK                         _______ _______ _______ _____ _____    ______ ____
ROOT
ATOM      1  C   UNL     1       3.108   6.750  18.641  0.00  0.00    +0.000 A 
ATOM      2  C   UNL     1       3.337   7.485  17.474  0.00  0.00    +0.000 A 
ATOM      3  C   UNL     1       2.717   8.718  17.296  0.00  0.00    +0.000 A 
ATOM      4  C   UNL     1       1.873   9.226  18.286  0.00  0.00    +0.000 A 
ATOM      5  C   UNL     1       1.632   8.505  19.468  0.00  0.00    +0.000 A 
ATOM      6  C   UNL     1       2.245   7.253  19.622  0.00  0.00    +0.000 A 
ENDROOT
BRANCH   1  14
ATOM      7  C   UNL     1       1.064   4.472  17.582  0.00  0.00    +0.000 C 
ATOM      8  C   UNL     1       2.204   3.637  18.085  0.00  0.00    +0.000 A 
ATOM      9  C   UNL     1       2.180   2.291  18.023  0.00  0.00    +0.000 A 
ATOM     10  C   UNL     1       3.288   1.473  18.479  0.00  0.00    +0.000 A 
ATOM     11  C   UNL     1       4.419   1.994  18.980  0.00  0.00    +0.000 A 
ATOM     12  C   UNL     1       4.545   3.462  19.086  0.00  0.00    +0.000 A 
ATOM     13  C   UNL     1       3.386   4.261  18.637  0.00  0.00    +0.000 A 
ATOM     14  C   UNL     1       3.813   5.501  18.886  0.00  0.00    +0.000 C 
ATOM     15  C   UNL     1       5.200   5.512  19.442  0.00  0.00    +0.000 C 
ATOM     16  N   UNL     1       5.590   4.085  19.543  0.00  0.00    +0.000 NA
ENDBRANCH   1  14
BRANCH   5  17
ATOM     17  C   UNL     1       0.755   9.106  20.552  0.00  0.00    +0.000 C 
ATOM     18  C   UNL     1       1.188   8.604  21.932  0.00  0.00    +0.000 C 
BRANCH  17  19
ATOM     19  S   UNL     1       0.776  10.938  20.582  0.00  0.00    +0.000 S 
BRANCH  19  20
ATOM     20  C   UNL     1      -0.749  11.354  19.883  0.00  0.00    +0.000 A 
ATOM     21  N   UNL     1      -1.150  11.155  18.649  0.00  0.00    +0.000 NA
ATOM     22  N   UNL     1      -2.399  11.723  18.514  0.00  0.00    +0.000 NA
ATOM     23  C   UNL     1      -2.733  12.223  19.682  0.00  0.00    +0.000 A 
ATOM     24  N   UNL     1      -1.739  11.983  20.583  0.00  0.00    +0.000 N 
ATOM     25  C   UNL     1      -1.769  12.316  21.980  0.00  0.00    +0.000 C 
ENDBRANCH  19  20
ENDBRANCH  17  19
ENDBRANCH   5  17
TORSDOF 4
ENDMDL
MODEL 7
REMARK VINA RESULT:      -8.2      1.942      2.479
REMARK  Name = 
REMARK  7 active torsions:
REMARK  status: ('A' for Active; 'I' for Inactive)
REMARK    1  A    between atoms: C_1  and  C_2
REMARK    2  A    between atoms: C_8  and  C_9
REMARK    3  A    between atoms: C_13  and  C_14
REMARK    4  A    between atoms: C_14  and  C_15
REMARK    5  A    between atoms: C_14  and  S_16
REMARK    6  A    between atoms: S_16  and  C_17
REMARK    7  A    between atoms: N_21  and  C_22
REMARK                            x       y       z     vdW  Elec       q    Type
REMARK                         _______ _______ _______ _____ _____    ______ ____
ROOT
ATOM      1  C   UNL     1       1.078   9.570  19.469  0.00  0.00    +0.000 A 
ATOM      2  C   UNL     1       1.492   9.777  18.149  0.00  0.00    +0.000 A 
ATOM      3  C   UNL     1       2.283   8.826  17.512  0.00  0.00    +0.000 A 
ATOM      4  C   UNL     1       2.655   7.661  18.185  0.00  0.00    +0.000 A 
ATOM      5  C   UNL     1       2.247   7.432  19.510  0.00  0.00    +0.000 A 
ATOM      6  C   UNL     1       1.470   8.411  20.147  0.00  0.00    +0.000 A 
ENDROOT
BRANCH   1  14
ATOM      7  C   UNL     1      -1.438   9.795  17.442  0.00  0.00    +0.000 C 
ATOM      8  C   UNL     1      -1.841  10.752  18.524  0.00  0.00    +0.000 A 
ATOM      9  C   UNL     1      -3.001  11.438  18.469  0.00  0.00    +0.000 A 
ATOM     10  C   UNL     1      -3.417  12.345  19.523  0.00  0.00    +0.000 A 
ATOM     11  C   UNL     1      -2.689  12.555  20.631  0.00  0.00    +0.000 A 
ATOM     12  C   UNL     1      -1.403  11.846  20.787  0.00  0.00    +0.000 A 
ATOM     13  C   UNL     1      -0.999  10.952  19.682  0.00  0.00    +0.000 A 
ATOM     14  C   UNL     1       0.180  10.509  20.123  0.00  0.00    +0.000 C 
ATOM     15  C   UNL     1       0.516  11.064  21.469  0.00  0.00    +0.000 C 
ATOM     16  N   UNL     1      -0.616  11.958  21.815  0.00  0.00    +0.000 NA
ENDBRANCH   1  14
BRANCH   5  17
ATOM     17  C   UNL     1       2.619   6.131  20.199  0.00  0.00    +0.000 C 
ATOM     18  C   UNL     1       1.451   5.142  20.146  0.00  0.00    +0.000 C 
BRANCH  17  19
ATOM     19  S   UNL     1       4.090   5.311  19.476  0.00  0.00    +0.000 S 
BRANCH  19  20
ATOM     20  C   UNL     1       3.401   4.013  18.567  0.00  0.00    +0.000 A 
ATOM     21  N   UNL     1       2.691   4.089  17.465  0.00  0.00    +0.000 NA
ATOM     22  N   UNL     1       2.277   2.815  17.141  0.00  0.00    +0.000 NA
ATOM     23  C   UNL     1       2.775   1.998  18.040  0.00  0.00    +0.000 A 
ATOM     24  N   UNL     1       3.519   2.704  18.938  0.00  0.00    +0.000 N 
ATOM     25  C   UNL     1       4.276   2.150  20.026  0.00  0.00    +0.000 C 
ENDBRANCH  19  20
ENDBRANCH  17  19
ENDBRANCH   5  17
TORSDOF 4
ENDMDL
MODEL 8
REMARK VINA RESULT:      -8.1      3.384      8.374
REMARK  Name = 
REMARK  7 active torsions:
REMARK  status: ('A' for Active; 'I' for Inactive)
REMARK    1  A    between atoms: C_1  and  C_2
REMARK    2  A    between atoms: C_8  and  C_9
REMARK    3  A    between atoms: C_13  and  C_14
REMARK    4  A    between atoms: C_14  and  C_15
REMARK    5  A    between atoms: C_14  and  S_16
REMARK    6  A    between atoms: S_16  and  C_17
REMARK    7  A    between atoms: N_21  and  C_22
REMARK                            x       y       z     vdW  Elec       q    Type
REMARK                         _______ _______ _______ _____ _____    ______ ____
ROOT
ATOM      1  C   UNL     1       1.975   7.850  19.462  0.00  0.00    +0.000 A 
ATOM      2  C   UNL     1       1.951   7.659  20.847  0.00  0.00    +0.000 A 
ATOM      3  C   UNL     1       1.134   8.456  21.645  0.00  0.00    +0.000 A 
ATOM      4  C   UNL     1       0.332   9.439  21.062  0.00  0.00    +0.000 A 
ATOM      5  C   UNL     1       0.339   9.645  19.672  0.00  0.00    +0.000 A 
ATOM      6  C   UNL     1       1.185   8.850  18.885  0.00  0.00    +0.000 A 
ENDROOT
BRANCH   1  14
ATOM      7  C   UNL     1       0.920   4.881  20.210  0.00  0.00    +0.000 C 
ATOM      8  C   UNL     1       1.972   4.573  19.185  0.00  0.00    +0.000 A 
ATOM      9  C   UNL     1       2.254   3.309  18.815  0.00  0.00    +0.000 A 
ATOM     10  C   UNL     1       3.248   2.998  17.805  0.00  0.00    +0.000 A 
ATOM     11  C   UNL     1       3.945   3.945  17.156  0.00  0.00    +0.000 A 
ATOM     12  C   UNL     1       3.704   5.364  17.488  0.00  0.00    +0.000 A 
ATOM     13  C   UNL     1       2.705   5.639  18.540  0.00  0.00    +0.000 A 
ATOM     14  C   UNL     1       2.753   6.972  18.603  0.00  0.00    +0.000 C 
ATOM     15  C   UNL     1       3.718   7.542  17.614  0.00  0.00    +0.000 C 
ATOM     16  N   UNL     1       4.306   6.368  16.924  0.00  0.00    +0.000 NA
ENDBRANCH   1  14
BRANCH   5  17
ATOM     17  C   UNL     1      -0.584  10.683  19.060  0.00  0.00    +0.000 C 
ATOM     18  C   UNL     1       0.175  11.986  18.795  0.00  0.00    +0.000 C 
BRANCH  17  19
ATOM     19  S   UNL     1      -1.355  10.145  17.486  0.00  0.00    +0.000 S 
BRANCH  19  20
ATOM     20  C   UNL     1      -2.889  10.940  17.516  0.00  0.00    +0.000 A 
ATOM     21  N   UNL     1      -3.466  11.538  18.532  0.00  0.00    +0.000 NA
ATOM     22  N   UNL     1      -4.716  11.952  18.123  0.00  0.00    +0.000 NA
ATOM     23  C   UNL     1      -4.848  11.620  16.859  0.00  0.00    +0.000 A 
ATOM     24  N   UNL     1      -3.708  11.011  16.426  0.00  0.00    +0.000 N 
ATOM     25  C   UNL     1      -3.447  10.569  15.084  0.00  0.00    +0.000 C 
ENDBRANCH  19  20
ENDBRANCH  17  19
ENDBRANCH   5  17
TORSDOF 4
ENDMDL
MODEL 9
REMARK VINA RESULT:      -8.1      3.368      8.066
REMARK  Name = 
REMARK  7 active torsions:
REMARK  status: ('A' for Active; 'I' for Inactive)
REMARK    1  A    between atoms: C_1  and  C_2
REMARK    2  A    between atoms: C_8  and  C_9
REMARK    3  A    between atoms: C_13  and  C_14
REMARK    4  A    between atoms: C_14  and  C_15
REMARK    5  A    between atoms: C_14  and  S_16
REMARK    6  A    between atoms: S_16  and  C_17
REMARK    7  A    between atoms: N_21  and  C_22
REMARK                            x       y       z     vdW  Elec       q    Type
REMARK                         _______ _______ _______ _____ _____    ______ ____
ROOT
ATOM      1  C   UNL     1       2.290   7.521  19.101  0.00  0.00    +0.000 A 
ATOM      2  C   UNL     1       2.094   7.380  20.478  0.00  0.00    +0.000 A 
ATOM      3  C   UNL     1       1.286   8.286  21.161  0.00  0.00    +0.000 A 
ATOM      4  C   UNL     1       0.665   9.328  20.470  0.00  0.00    +0.000 A 
ATOM      5  C   UNL     1       0.846   9.485  19.086  0.00  0.00    +0.000 A 
ATOM      6  C   UNL     1       1.682   8.580  18.416  0.00  0.00    +0.000 A 
ENDROOT
BRANCH   1  14
ATOM      7  C   UNL     1       1.003   4.684  19.983  0.00  0.00    +0.000 C 
ATOM      8  C   UNL     1       2.089   4.240  19.049  0.00  0.00    +0.000 A 
ATOM      9  C   UNL     1       2.310   2.937  18.785  0.00  0.00    +0.000 A 
ATOM     10  C   UNL     1       3.338   2.494  17.862  0.00  0.00    +0.000 A 
ATOM     11  C   UNL     1       4.132   3.347  17.195  0.00  0.00    +0.000 A 
ATOM     12  C   UNL     1       3.965   4.798  17.413  0.00  0.00    +0.000 A 
ATOM     13  C   UNL     1       2.927   5.210  18.379  0.00  0.00    +0.000 A 
ATOM     14  C   UNL     1       3.058   6.538  18.354  0.00  0.00    +0.000 C 
ATOM     15  C   UNL     1       4.113   6.975  17.390  0.00  0.00    +0.000 C 
ATOM     16  N   UNL     1       4.663   5.721  16.820  0.00  0.00    +0.000 NA
ENDBRANCH   1  14
BRANCH   5  17
ATOM     17  C   UNL     1       0.114  10.594  18.351  0.00  0.00    +0.000 C 
ATOM     18  C   UNL     1      -1.268  10.115  17.896  0.00  0.00    +0.000 C 
BRANCH  17  19
ATOM     19  S   UNL     1      -0.112  12.114  19.350  0.00  0.00    +0.000 S 
BRANCH  19  20
ATOM     20  C   UNL     1       1.206  13.110  18.842  0.00  0.00    +0.000 A 
ATOM     21  N   UNL     1       2.402  12.728  18.456  0.00  0.00    +0.000 NA
ATOM     22  N   UNL     1       3.153  13.861  18.228  0.00  0.00    +0.000 NA
ATOM     23  C   UNL     1       2.380  14.899  18.452  0.00  0.00    +0.000 A 
ATOM     24  N   UNL     1       1.135  14.473  18.807  0.00  0.00    +0.000 N 
ATOM     25  C   UNL     1      -0.002  15.313  19.063  0.00  0.00    +0.000 C 
ENDBRANCH  19  20
ENDBRANCH  17  19
ENDBRANCH   5  17
TORSDOF 4
ENDMDL
