MODEL 1
REMARK VINA RESULT:      -8.5      0.000      0.000
REMARK  Name = 
REMARK  4 active torsions:
REMARK  status: ('A' for Active; 'I' for Inactive)
REMARK    1  A    between atoms: C_1  and  C_2
REMARK    2  A    between atoms: C_3  and  N_4
REMARK    3  A    between atoms: C_5  and  C_7
REMARK    4  A    between atoms: C_19  and  C_20
REMARK                            x       y       z     vdW  Elec       q    Type
REMARK                         _______ _______ _______ _____ _____    ______ ____
ROOT
ATOM      1  C   UNL     1       1.782  10.378  18.206  0.00  0.00    +0.000 C 
ATOM      2  C   UNL     1       1.049   9.739  19.357  0.00  0.00    +0.000 A 
ATOM      3  C   UNL     1       1.544   8.523  19.887  0.00  0.00    +0.000 A 
ATOM      4  C   UNL     1       1.173   8.108  21.170  0.00  0.00    +0.000 A 
ATOM      5  C   UNL     1       0.200   8.805  21.879  0.00  0.00    +0.000 A 
ATOM      6  C   UNL     1      -0.419   9.910  21.289  0.00  0.00    +0.000 A 
ATOM      7  C   UNL     1      -0.020  10.380  20.020  0.00  0.00    +0.000 A 
ENDROOT
BRANCH   7   8
ATOM      8  C   UNL     1      -0.674  11.652  19.580  0.00  0.00    +0.000 C 
ATOM      9  O   UNL     1      -1.765  11.527  19.014  0.00  0.00    +0.000 OA
ATOM     10  N   UNL     1      -0.094  12.912  19.766  0.00  0.00    +0.000 N 
ATOM     11  C   UNL     1       1.194  13.186  20.433  0.00  0.00    +0.000 C 
ATOM     12  C   UNL     1       2.014  14.305  19.783  0.00  0.00    +0.000 C 
ATOM     13  C   UNL     1       1.114  15.440  19.439  0.00  0.00    +0.000 A 
ATOM     14  S   UNL     1       1.694  17.002  19.116  0.00  0.00    +0.000 S 
ATOM     15  C   UNL     1       0.112  17.576  18.813  0.00  0.00    +0.000 A 
ATOM     16  C   UNL     1      -0.837  16.586  18.962  0.00  0.00    +0.000 A 
ATOM     17  C   UNL     1      -0.257  15.331  19.330  0.00  0.00    +0.000 A 
ATOM     18  C   UNL     1      -1.003  14.054  19.585  0.00  0.00    +0.000 C 
ENDBRANCH   7   8
BRANCH   3  19
ATOM     19  N   UNL     1       2.452   7.712  19.188  0.00  0.00    +0.000 N 
ATOM     20  C   UNL     1       2.638   6.363  19.471  0.00  0.00    +0.000 C 
ATOM     21  O   UNL     1       1.994   5.729  20.306  0.00  0.00    +0.000 OA
ATOM     22  H   UNL     1       3.268   8.156  18.778  0.00  0.00    +0.000 HD
BRANCH  20  23
ATOM     23  C   UNL     1       3.739   5.773  18.736  0.00  0.00    +0.000 A 
ATOM     24  C   UNL     1       5.044   5.513  19.109  0.00  0.00    +0.000 A 
ATOM     25  C   UNL     1       5.712   5.020  17.958  0.00  0.00    +0.000 A 
ATOM     26  C   UNL     1       7.026   4.628  17.645  0.00  0.00    +0.000 A 
ATOM     27  C   UNL     1       7.313   4.233  16.330  0.00  0.00    +0.000 A 
ATOM     28  C   UNL     1       6.315   4.202  15.352  0.00  0.00    +0.000 A 
ATOM     29  C   UNL     1       4.996   4.558  15.652  0.00  0.00    +0.000 A 
ATOM     30  C   UNL     1       4.749   4.974  16.954  0.00  0.00    +0.000 A 
ATOM     31  O   UNL     1       3.551   5.416  17.426  0.00  0.00    +0.000 OA
ENDBRANCH  20  23
ENDBRANCH   3  19
TORSDOF 3
ENDMDL
MODEL 2
REMARK VINA RESULT:      -8.5      2.223      2.985
REMARK  Name = 
REMARK  4 active torsions:
REMARK  status: ('A' for Active; 'I' for Inactive)
REMARK    1  A    between atoms: C_1  and  C_2
REMARK    2  A    between atoms: C_3  and  N_4
REMARK    3  A    between atoms: C_5  and  C_7
REMARK    4  A    between atoms: C_19  and  C_20
REMARK                            x       y       z     vdW  Elec       q    Type
REMARK                         _______ _______ _______ _____ _____    ______ ____
ROOT
ATOM      1  C   UNL     1       0.225  10.485  19.170  0.00  0.00    +0.000 C 
ATOM      2  C   UNL     1      -0.451  10.496  20.517  0.00  0.00    +0.000 A 
ATOM      3  C   UNL     1      -0.301   9.368  21.361  0.00  0.00    +0.000 A 
ATOM      4  C   UNL     1      -0.542   9.476  22.735  0.00  0.00    +0.000 A 
ATOM      5  C   UNL     1      -1.074  10.648  23.264  0.00  0.00    +0.000 A 
ATOM      6  C   UNL     1      -1.386  11.707  22.408  0.00  0.00    +0.000 A 
ATOM      7  C   UNL     1      -1.099  11.641  21.028  0.00  0.00    +0.000 A 
ENDROOT
BRANCH   7   8
ATOM      8  C   UNL     1      -1.360  12.901  20.264  0.00  0.00    +0.000 C 
ATOM      9  O   UNL     1      -2.505  13.034  19.822  0.00  0.00    +0.000 OA
ATOM     10  N   UNL     1      -0.375  13.870  20.033  0.00  0.00    +0.000 N 
ATOM     11  C   UNL     1       1.018  13.826  20.516  0.00  0.00    +0.000 C 
ATOM     12  C   UNL     1       2.047  14.364  19.517  0.00  0.00    +0.000 C 
ATOM     13  C   UNL     1       1.528  15.615  18.899  0.00  0.00    +0.000 A 
ATOM     14  S   UNL     1       2.530  16.722  18.093  0.00  0.00    +0.000 S 
ATOM     15  C   UNL     1       1.197  17.726  17.719  0.00  0.00    +0.000 A 
ATOM     16  C   UNL     1       0.012  17.219  18.210  0.00  0.00    +0.000 A 
ATOM     17  C   UNL     1       0.197  15.982  18.904  0.00  0.00    +0.000 A 
ATOM     18  C   UNL     1      -0.876  15.173  19.569  0.00  0.00    +0.000 C 
ENDBRANCH   7   8
BRANCH   3  19
ATOM     19  N   UNL     1       0.135   8.122  20.883  0.00  0.00    +0.000 N 
ATOM     20  C   UNL     1       1.446   7.677  21.008  0.00  0.00    +0.000 C 
ATOM     21  O   UNL     1       2.337   8.287  21.598  0.00  0.00    +0.000 OA
ATOM     22  H   UNL     1      -0.355   7.720  20.089  0.00  0.00    +0.000 HD
BRANCH  20  23
ATOM     23  C   UNL     1       1.698   6.440  20.298  0.00  0.00    +0.000 A 
ATOM     24  C   UNL     1       2.424   6.184  19.150  0.00  0.00    +0.000 A 
ATOM     25  C   UNL     1       2.250   4.808  18.849  0.00  0.00    +0.000 A 
ATOM     26  C   UNL     1       2.659   3.940  17.820  0.00  0.00    +0.000 A 
ATOM     27  C   UNL     1       2.222   2.608  17.853  0.00  0.00    +0.000 A 
ATOM     28  C   UNL     1       1.418   2.138  18.894  0.00  0.00    +0.000 A 
ATOM     29  C   UNL     1       1.027   2.977  19.942  0.00  0.00    +0.000 A 
ATOM     30  C   UNL     1       1.449   4.298  19.867  0.00  0.00    +0.000 A 
ATOM     31  O   UNL     1       1.126   5.280  20.753  0.00  0.00    +0.000 OA
ENDBRANCH  20  23
ENDBRANCH   3  19
TORSDOF 3
ENDMDL
MODEL 3
REMARK VINA RESULT:      -8.4      1.106      1.191
REMARK  Name = 
REMARK  4 active torsions:
REMARK  status: ('A' for Active; 'I' for Inactive)
REMARK    1  A    between atoms: C_1  and  C_2
REMARK    2  A    between atoms: C_3  and  N_4
REMARK    3  A    between atoms: C_5  and  C_7
REMARK    4  A    between atoms: C_19  and  C_20
REMARK                            x       y       z     vdW  Elec       q    Type
REMARK                         _______ _______ _______ _____ _____    ______ ____
ROOT
ATOM      1  C   UNL     1       0.863  10.701  18.487  0.00  0.00    +0.000 C 
ATOM      2  C   UNL     1       0.541  10.167  19.859  0.00  0.00    +0.000 A 
ATOM      3  C   UNL     1       1.188   8.986  20.298  0.00  0.00    +0.000 A 
ATOM      4  C   UNL     1       1.250   8.678  21.661  0.00  0.00    +0.000 A 
ATOM      5  C   UNL     1       0.550   9.447  22.586  0.00  0.00    +0.000 A 
ATOM      6  C   UNL     1      -0.232  10.514  22.139  0.00  0.00    +0.000 A 
ATOM      7  C   UNL     1      -0.264  10.877  20.776  0.00  0.00    +0.000 A 
ENDROOT
BRANCH   7   8
ATOM      8  C   UNL     1      -1.034  12.123  20.468  0.00  0.00    +0.000 C 
ATOM      9  O   UNL     1      -2.247  11.975  20.292  0.00  0.00    +0.000 OA
ATOM     10  N   UNL     1      -0.433  13.383  20.359  0.00  0.00    +0.000 N 
ATOM     11  C   UNL     1       0.998  13.683  20.556  0.00  0.00    +0.000 C 
ATOM     12  C   UNL     1       1.560  14.733  19.592  0.00  0.00    +0.000 C 
ATOM     13  C   UNL     1       0.589  15.855  19.463  0.00  0.00    +0.000 A 
ATOM     14  S   UNL     1       1.024  17.376  18.850  0.00  0.00    +0.000 S 
ATOM     15  C   UNL     1      -0.576  17.954  19.024  0.00  0.00    +0.000 A 
ATOM     16  C   UNL     1      -1.420  16.996  19.546  0.00  0.00    +0.000 A 
ATOM     17  C   UNL     1      -0.744  15.763  19.808  0.00  0.00    +0.000 A 
ATOM     18  C   UNL     1      -1.360  14.524  20.388  0.00  0.00    +0.000 C 
ENDBRANCH   7   8
BRANCH   3  19
ATOM     19  N   UNL     1       1.830   8.106  19.412  0.00  0.00    +0.000 N 
ATOM     20  C   UNL     1       2.079   6.771  19.715  0.00  0.00    +0.000 C 
ATOM     21  O   UNL     1       1.714   6.210  20.747  0.00  0.00    +0.000 OA
ATOM     22  H   UNL     1       2.487   8.499  18.745  0.00  0.00    +0.000 HD
BRANCH  20  23
ATOM     23  C   UNL     1       2.896   6.105  18.721  0.00  0.00    +0.000 A 
ATOM     24  C   UNL     1       3.140   4.762  18.499  0.00  0.00    +0.000 A 
ATOM     25  C   UNL     1       4.097   4.685  17.455  0.00  0.00    +0.000 A 
ATOM     26  C   UNL     1       4.796   3.653  16.801  0.00  0.00    +0.000 A 
ATOM     27  C   UNL     1       5.733   3.997  15.816  0.00  0.00    +0.000 A 
ATOM     28  C   UNL     1       5.956   5.331  15.466  0.00  0.00    +0.000 A 
ATOM     29  C   UNL     1       5.249   6.368  16.083  0.00  0.00    +0.000 A 
ATOM     30  C   UNL     1       4.351   6.000  17.076  0.00  0.00    +0.000 A 
ATOM     31  O   UNL     1       3.614   6.860  17.831  0.00  0.00    +0.000 OA
ENDBRANCH  20  23
ENDBRANCH   3  19
TORSDOF 3
ENDMDL
MODEL 4
REMARK VINA RESULT:      -8.3      3.517      4.514
REMARK  Name = 
REMARK  4 active torsions:
REMARK  status: ('A' for Active; 'I' for Inactive)
REMARK    1  A    between atoms: C_1  and  C_2
REMARK    2  A    between atoms: C_3  and  N_4
REMARK    3  A    between atoms: C_5  and  C_7
REMARK    4  A    between atoms: C_19  and  C_20
REMARK                            x       y       z     vdW  Elec       q    Type
REMARK                         _______ _______ _______ _____ _____    ______ ____
ROOT
ATOM      1  C   UNL     1      -0.411   8.784  21.366  0.00  0.00    +0.000 C 
ATOM      2  C   UNL     1       0.255   9.982  20.739  0.00  0.00    +0.000 A 
ATOM      3  C   UNL     1       1.169   9.774  19.678  0.00  0.00    +0.000 A 
ATOM      4  C   UNL     1       1.493  10.819  18.808  0.00  0.00    +0.000 A 
ATOM      5  C   UNL     1       1.040  12.110  19.063  0.00  0.00    +0.000 A 
ATOM      6  C   UNL     1       0.278  12.355  20.207  0.00  0.00    +0.000 A 
ATOM      7  C   UNL     1      -0.109  11.306  21.068  0.00  0.00    +0.000 A 
ENDROOT
BRANCH   7   8
ATOM      8  C   UNL     1      -1.038  11.700  22.172  0.00  0.00    +0.000 C 
ATOM      9  O   UNL     1      -0.644  11.459  23.317  0.00  0.00    +0.000 OA
ATOM     10  N   UNL     1      -2.290  12.284  21.943  0.00  0.00    +0.000 N 
ATOM     11  C   UNL     1      -2.862  12.626  20.627  0.00  0.00    +0.000 C 
ATOM     12  C   UNL     1      -4.369  12.373  20.510  0.00  0.00    +0.000 C 
ATOM     13  C   UNL     1      -5.046  12.851  21.747  0.00  0.00    +0.000 A 
ATOM     14  S   UNL     1      -6.716  13.146  21.820  0.00  0.00    +0.000 S 
ATOM     15  C   UNL     1      -6.612  13.583  23.470  0.00  0.00    +0.000 A 
ATOM     16  C   UNL     1      -5.320  13.507  23.947  0.00  0.00    +0.000 A 
ATOM     17  C   UNL     1      -4.396  13.080  22.943  0.00  0.00    +0.000 A 
ATOM     18  C   UNL     1      -2.917  12.906  23.120  0.00  0.00    +0.000 C 
ENDBRANCH   7   8
BRANCH   3  19
ATOM     19  N   UNL     1       1.748   8.521  19.418  0.00  0.00    +0.000 N 
ATOM     20  C   UNL     1       2.249   8.160  18.172  0.00  0.00    +0.000 C 
ATOM     21  O   UNL     1       2.297   8.906  17.196  0.00  0.00    +0.000 OA
ATOM     22  H   UNL     1       1.439   7.730  19.975  0.00  0.00    +0.000 HD
BRANCH  20  23
ATOM     23  C   UNL     1       2.645   6.768  18.099  0.00  0.00    +0.000 A 
ATOM     24  C   UNL     1       3.865   6.185  17.812  0.00  0.00    +0.000 A 
ATOM     25  C   UNL     1       3.655   4.782  17.781  0.00  0.00    +0.000 A 
ATOM     26  C   UNL     1       4.444   3.650  17.503  0.00  0.00    +0.000 A 
ATOM     27  C   UNL     1       3.835   2.387  17.528  0.00  0.00    +0.000 A 
ATOM     28  C   UNL     1       2.481   2.244  17.846  0.00  0.00    +0.000 A 
ATOM     29  C   UNL     1       1.690   3.354  18.155  0.00  0.00    +0.000 A 
ATOM     30  C   UNL     1       2.312   4.594  18.092  0.00  0.00    +0.000 A 
ATOM     31  O   UNL     1       1.702   5.794  18.300  0.00  0.00    +0.000 OA
ENDBRANCH  20  23
ENDBRANCH   3  19
TORSDOF 3
ENDMDL
MODEL 5
REMARK VINA RESULT:      -8.2      3.046      4.083
REMARK  Name = 
REMARK  4 active torsions:
REMARK  status: ('A' for Active; 'I' for Inactive)
REMARK    1  A    between atoms: C_1  and  C_2
REMARK    2  A    between atoms: C_3  and  N_4
REMARK    3  A    between atoms: C_5  and  C_7
REMARK    4  A    between atoms: C_19  and  C_20
REMARK                            x       y       z     vdW  Elec       q    Type
REMARK                         _______ _______ _______ _____ _____    ______ ____
ROOT
ATOM      1  C   UNL     1       0.763  11.285  20.892  0.00  0.00    +0.000 C 
ATOM      2  C   UNL     1      -0.010  11.351  19.599  0.00  0.00    +0.000 A 
ATOM      3  C   UNL     1      -0.100  10.184  18.802  0.00  0.00    +0.000 A 
ATOM      4  C   UNL     1      -1.107  10.061  17.840  0.00  0.00    +0.000 A 
ATOM      5  C   UNL     1      -1.937  11.140  17.551  0.00  0.00    +0.000 A 
ATOM      6  C   UNL     1      -1.740  12.353  18.216  0.00  0.00    +0.000 A 
ATOM      7  C   UNL     1      -0.768  12.482  19.230  0.00  0.00    +0.000 A 
ENDROOT
BRANCH   7   8
ATOM      8  C   UNL     1      -0.768  13.796  19.946  0.00  0.00    +0.000 C 
ATOM      9  O   UNL     1      -0.036  14.668  19.468  0.00  0.00    +0.000 OA
ATOM     10  N   UNL     1      -1.524  14.036  21.100  0.00  0.00    +0.000 N 
ATOM     11  C   UNL     1      -2.437  13.079  21.755  0.00  0.00    +0.000 C 
ATOM     12  C   UNL     1      -2.418  13.138  23.285  0.00  0.00    +0.000 C 
ATOM     13  C   UNL     1      -2.412  14.560  23.725  0.00  0.00    +0.000 A 
ATOM     14  S   UNL     1      -2.826  15.032  25.302  0.00  0.00    +0.000 S 
ATOM     15  C   UNL     1      -2.530  16.676  24.936  0.00  0.00    +0.000 A 
ATOM     16  C   UNL     1      -2.127  16.852  23.629  0.00  0.00    +0.000 A 
ATOM     17  C   UNL     1      -2.056  15.617  22.912  0.00  0.00    +0.000 A 
ATOM     18  C   UNL     1      -1.668  15.452  21.472  0.00  0.00    +0.000 C 
ENDBRANCH   7   8
BRANCH   3  19
ATOM     19  N   UNL     1       0.767   9.092  18.965  0.00  0.00    +0.000 N 
ATOM     20  C   UNL     1       1.903   8.901  18.185  0.00  0.00    +0.000 C 
ATOM     21  O   UNL     1       2.300   9.688  17.326  0.00  0.00    +0.000 OA
ATOM     22  H   UNL     1       0.380   8.228  19.333  0.00  0.00    +0.000 HD
BRANCH  20  23
ATOM     23  C   UNL     1       2.550   7.627  18.422  0.00  0.00    +0.000 A 
ATOM     24  C   UNL     1       3.533   6.962  17.714  0.00  0.00    +0.000 A 
ATOM     25  C   UNL     1       3.717   5.704  18.344  0.00  0.00    +0.000 A 
ATOM     26  C   UNL     1       4.502   4.561  18.104  0.00  0.00    +0.000 A 
ATOM     27  C   UNL     1       4.357   3.458  18.958  0.00  0.00    +0.000 A 
ATOM     28  C   UNL     1       3.474   3.494  20.041  0.00  0.00    +0.000 A 
ATOM     29  C   UNL     1       2.708   4.632  20.312  0.00  0.00    +0.000 A 
ATOM     30  C   UNL     1       2.850   5.697  19.432  0.00  0.00    +0.000 A 
ATOM     31  O   UNL     1       2.153   6.866  19.490  0.00  0.00    +0.000 OA
ENDBRANCH  20  23
ENDBRANCH   3  19
TORSDOF 3
ENDMDL
MODEL 6
REMARK VINA RESULT:      -8.2      2.465      4.290
REMARK  Name = 
REMARK  4 active torsions:
REMARK  status: ('A' for Active; 'I' for Inactive)
REMARK    1  A    between atoms: C_1  and  C_2
REMARK    2  A    between atoms: C_3  and  N_4
REMARK    3  A    between atoms: C_5  and  C_7
REMARK    4  A    between atoms: C_19  and  C_20
REMARK                            x       y       z     vdW  Elec       q    Type
REMARK                         _______ _______ _______ _____ _____    ______ ____
ROOT
ATOM      1  C   UNL     1       3.757   7.588  18.487  0.00  0.00    +0.000 C 
ATOM      2  C   UNL     1       2.851   6.487  18.976  0.00  0.00    +0.000 A 
ATOM      3  C   UNL     1       3.065   5.170  18.501  0.00  0.00    +0.000 A 
ATOM      4  C   UNL     1       2.552   4.074  19.201  0.00  0.00    +0.000 A 
ATOM      5  C   UNL     1       1.701   4.269  20.284  0.00  0.00    +0.000 A 
ATOM      6  C   UNL     1       1.347   5.569  20.652  0.00  0.00    +0.000 A 
ATOM      7  C   UNL     1       1.897   6.691  19.996  0.00  0.00    +0.000 A 
ENDROOT
BRANCH   7   8
ATOM      8  C   UNL     1       1.533   8.015  20.589  0.00  0.00    +0.000 C 
ATOM      9  O   UNL     1       1.672   8.113  21.812  0.00  0.00    +0.000 OA
ATOM     10  N   UNL     1       1.042   9.083  19.827  0.00  0.00    +0.000 N 
ATOM     11  C   UNL     1       0.843   9.088  18.365  0.00  0.00    +0.000 C 
ATOM     12  C   UNL     1      -0.412   9.835  17.903  0.00  0.00    +0.000 C 
ATOM     13  C   UNL     1      -0.535  11.110  18.661  0.00  0.00    +0.000 A 
ATOM     14  S   UNL     1      -1.520  12.391  18.144  0.00  0.00    +0.000 S 
ATOM     15  C   UNL     1      -1.103  13.325  19.515  0.00  0.00    +0.000 A 
ATOM     16  C   UNL     1      -0.223  12.664  20.345  0.00  0.00    +0.000 A 
ATOM     17  C   UNL     1       0.117  11.365  19.851  0.00  0.00    +0.000 A 
ATOM     18  C   UNL     1       1.055  10.391  20.499  0.00  0.00    +0.000 C 
ENDBRANCH   7   8
BRANCH   3  19
ATOM     19  N   UNL     1       3.830   4.898  17.355  0.00  0.00    +0.000 N 
ATOM     20  C   UNL     1       5.200   4.664  17.394  0.00  0.00    +0.000 C 
ATOM     21  O   UNL     1       5.869   4.608  18.425  0.00  0.00    +0.000 OA
ATOM     22  H   UNL     1       3.509   5.277  16.469  0.00  0.00    +0.000 HD
BRANCH  20  23
ATOM     23  C   UNL     1       5.800   4.570  16.079  0.00  0.00    +0.000 A 
ATOM     24  C   UNL     1       6.913   5.190  15.542  0.00  0.00    +0.000 A 
ATOM     25  C   UNL     1       6.980   4.808  14.177  0.00  0.00    +0.000 A 
ATOM     26  C   UNL     1       7.809   5.116  13.083  0.00  0.00    +0.000 A 
ATOM     27  C   UNL     1       7.508   4.553  11.834  0.00  0.00    +0.000 A 
ATOM     28  C   UNL     1       6.424   3.684  11.676  0.00  0.00    +0.000 A 
ATOM     29  C   UNL     1       5.608   3.342  12.758  0.00  0.00    +0.000 A 
ATOM     30  C   UNL     1       5.912   3.939  13.975  0.00  0.00    +0.000 A 
ATOM     31  O   UNL     1       5.204   3.782  15.129  0.00  0.00    +0.000 OA
ENDBRANCH  20  23
ENDBRANCH   3  19
TORSDOF 3
ENDMDL
MODEL 7
REMARK VINA RESULT:      -8.2      3.386      4.438
REMARK  Name = 
REMARK  4 active torsions:
REMARK  status: ('A' for Active; 'I' for Inactive)
REMARK    1  A    between atoms: C_1  and  C_2
REMARK    2  A    between atoms: C_3  and  N_4
REMARK    3  A    between atoms: C_5  and  C_7
REMARK    4  A    between atoms: C_19  and  C_20
REMARK                            x       y       z     vdW  Elec       q    Type
REMARK                         _______ _______ _______ _____ _____    ______ ____
ROOT
ATOM      1  C   UNL     1      -0.408   8.571  21.491  0.00  0.00    +0.000 C 
ATOM      2  C   UNL     1       0.294   9.677  20.745  0.00  0.00    +0.000 A 
ATOM      3  C   UNL     1       1.158   9.333  19.676  0.00  0.00    +0.000 A 
ATOM      4  C   UNL     1       1.503  10.285  18.711  0.00  0.00    +0.000 A 
ATOM      5  C   UNL     1       1.125  11.614  18.871  0.00  0.00    +0.000 A 
ATOM      6  C   UNL     1       0.417  11.994  20.015  0.00  0.00    +0.000 A 
ATOM      7  C   UNL     1       0.010  11.041  20.972  0.00  0.00    +0.000 A 
ENDROOT
BRANCH   7   8
ATOM      8  C   UNL     1      -0.858  11.573  22.069  0.00  0.00    +0.000 C 
ATOM      9  O   UNL     1      -0.465  11.356  23.219  0.00  0.00    +0.000 OA
ATOM     10  N   UNL     1      -2.056  12.257  21.828  0.00  0.00    +0.000 N 
ATOM     11  C   UNL     1      -2.621  12.583  20.505  0.00  0.00    +0.000 C 
ATOM     12  C   UNL     1      -4.146  12.464  20.424  0.00  0.00    +0.000 C 
ATOM     13  C   UNL     1      -4.753  13.063  21.644  0.00  0.00    +0.000 A 
ATOM     14  S   UNL     1      -6.388  13.512  21.727  0.00  0.00    +0.000 S 
ATOM     15  C   UNL     1      -6.212  14.021  23.351  0.00  0.00    +0.000 A 
ATOM     16  C   UNL     1      -4.923  13.851  23.811  0.00  0.00    +0.000 A 
ATOM     17  C   UNL     1      -4.061  13.291  22.817  0.00  0.00    +0.000 A 
ATOM     18  C   UNL     1      -2.601  12.992  22.981  0.00  0.00    +0.000 C 
ENDBRANCH   7   8
BRANCH   3  19
ATOM     19  N   UNL     1       1.663   8.035  19.505  0.00  0.00    +0.000 N 
ATOM     20  C   UNL     1       2.336   7.627  18.357  0.00  0.00    +0.000 C 
ATOM     21  O   UNL     1       2.612   8.363  17.412  0.00  0.00    +0.000 OA
ATOM     22  H   UNL     1       1.198   7.275  19.992  0.00  0.00    +0.000 HD
BRANCH  20  23
ATOM     23  C   UNL     1       2.618   6.206  18.337  0.00  0.00    +0.000 A 
ATOM     24  C   UNL     1       1.958   5.158  17.725  0.00  0.00    +0.000 A 
ATOM     25  C   UNL     1       2.617   3.966  18.124  0.00  0.00    +0.000 A 
ATOM     26  C   UNL     1       2.426   2.588  17.910  0.00  0.00    +0.000 A 
ATOM     27  C   UNL     1       3.293   1.686  18.542  0.00  0.00    +0.000 A 
ATOM     28  C   UNL     1       4.343   2.137  19.348  0.00  0.00    +0.000 A 
ATOM     29  C   UNL     1       4.566   3.502  19.547  0.00  0.00    +0.000 A 
ATOM     30  C   UNL     1       3.673   4.371  18.934  0.00  0.00    +0.000 A 
ATOM     31  O   UNL     1       3.685   5.728  19.053  0.00  0.00    +0.000 OA
ENDBRANCH  20  23
ENDBRANCH   3  19
TORSDOF 3
ENDMDL
MODEL 8
REMARK VINA RESULT:      -8.2      3.257      4.163
REMARK  Name = 
REMARK  4 active torsions:
REMARK  status: ('A' for Active; 'I' for Inactive)
REMARK    1  A    between atoms: C_1  and  C_2
REMARK    2  A    between atoms: C_3  and  N_4
REMARK    3  A    between atoms: C_5  and  C_7
REMARK    4  A    between atoms: C_19  and  C_20
REMARK                            x       y       z     vdW  Elec       q    Type
REMARK                         _______ _______ _______ _____ _____    ______ ____
ROOT
ATOM      1  C   UNL     1      -1.487   9.720  17.587  0.00  0.00    +0.000 C 
ATOM      2  C   UNL     1      -0.663  10.685  18.402  0.00  0.00    +0.000 A 
ATOM      3  C   UNL     1       0.745  10.534  18.413  0.00  0.00    +0.000 A 
ATOM      4  C   UNL     1       1.568  11.599  18.793  0.00  0.00    +0.000 A 
ATOM      5  C   UNL     1       1.011  12.766  19.306  0.00  0.00    +0.000 A 
ATOM      6  C   UNL     1      -0.375  12.856  19.459  0.00  0.00    +0.000 A 
ATOM      7  C   UNL     1      -1.227  11.816  19.030  0.00  0.00    +0.000 A 
ENDROOT
BRANCH   7   8
ATOM      8  C   UNL     1      -2.690  12.112  19.130  0.00  0.00    +0.000 C 
ATOM      9  O   UNL     1      -3.324  12.050  18.072  0.00  0.00    +0.000 OA
ATOM     10  N   UNL     1      -3.317  12.461  20.333  0.00  0.00    +0.000 N 
ATOM     11  C   UNL     1      -2.669  12.558  21.654  0.00  0.00    +0.000 C 
ATOM     12  C   UNL     1      -3.177  13.714  22.522  0.00  0.00    +0.000 C 
ATOM     13  C   UNL     1      -4.661  13.785  22.429  0.00  0.00    +0.000 A 
ATOM     14  S   UNL     1      -5.610  14.626  23.558  0.00  0.00    +0.000 S 
ATOM     15  C   UNL     1      -7.044  14.230  22.715  0.00  0.00    +0.000 A 
ATOM     16  C   UNL     1      -6.794  13.465  21.595  0.00  0.00    +0.000 A 
ATOM     17  C   UNL     1      -5.400  13.199  21.421  0.00  0.00    +0.000 A 
ATOM     18  C   UNL     1      -4.786  12.388  20.318  0.00  0.00    +0.000 C 
ENDBRANCH   7   8
BRANCH   3  19
ATOM     19  N   UNL     1       1.379   9.349  18.006  0.00  0.00    +0.000 N 
ATOM     20  C   UNL     1       1.812   8.374  18.898  0.00  0.00    +0.000 C 
ATOM     21  O   UNL     1       1.633   8.412  20.114  0.00  0.00    +0.000 OA
ATOM     22  H   UNL     1       1.906   9.366  17.138  0.00  0.00    +0.000 HD
BRANCH  20  23
ATOM     23  C   UNL     1       2.581   7.322  18.264  0.00  0.00    +0.000 A 
ATOM     24  C   UNL     1       2.419   5.950  18.269  0.00  0.00    +0.000 A 
ATOM     25  C   UNL     1       3.521   5.402  17.564  0.00  0.00    +0.000 A 
ATOM     26  C   UNL     1       3.981   4.107  17.258  0.00  0.00    +0.000 A 
ATOM     27  C   UNL     1       5.188   3.972  16.557  0.00  0.00    +0.000 A 
ATOM     28  C   UNL     1       5.913   5.094  16.145  0.00  0.00    +0.000 A 
ATOM     29  C   UNL     1       5.457   6.388  16.413  0.00  0.00    +0.000 A 
ATOM     30  C   UNL     1       4.275   6.490  17.135  0.00  0.00    +0.000 A 
ATOM     31  O   UNL     1       3.699   7.655  17.545  0.00  0.00    +0.000 OA
ENDBRANCH  20  23
ENDBRANCH   3  19
TORSDOF 3
ENDMDL
MODEL 9
REMARK VINA RESULT:      -8.2      1.970      2.671
REMARK  Name = 
REMARK  4 active torsions:
REMARK  status: ('A' for Active; 'I' for Inactive)
REMARK    1  A    between atoms: C_1  and  C_2
REMARK    2  A    between atoms: C_3  and  N_4
REMARK    3  A    between atoms: C_5  and  C_7
REMARK    4  A    between atoms: C_19  and  C_20
REMARK                            x       y       z     vdW  Elec       q    Type
REMARK                         _______ _______ _______ _____ _____    ______ ____
ROOT
ATOM      1  C   UNL     1       0.186  10.178  19.149  0.00  0.00    +0.000 C 
ATOM      2  C   UNL     1      -0.436  10.252  20.520  0.00  0.00    +0.000 A 
ATOM      3  C   UNL     1      -0.271   9.156  21.401  0.00  0.00    +0.000 A 
ATOM      4  C   UNL     1      -0.457   9.321  22.778  0.00  0.00    +0.000 A 
ATOM      5  C   UNL     1      -0.949  10.521  23.280  0.00  0.00    +0.000 A 
ATOM      6  C   UNL     1      -1.278  11.551  22.396  0.00  0.00    +0.000 A 
ATOM      7  C   UNL     1      -1.046  11.428  21.010  0.00  0.00    +0.000 A 
ENDROOT
BRANCH   7   8
ATOM      8  C   UNL     1      -1.316  12.661  20.208  0.00  0.00    +0.000 C 
ATOM      9  O   UNL     1      -2.421  12.713  19.658  0.00  0.00    +0.000 OA
ATOM     10  N   UNL     1      -0.381  13.693  20.058  0.00  0.00    +0.000 N 
ATOM     11  C   UNL     1       0.960  13.747  20.670  0.00  0.00    +0.000 C 
ATOM     12  C   UNL     1       2.041  14.347  19.766  0.00  0.00    +0.000 C 
ATOM     13  C   UNL     1       1.501  15.555  19.085  0.00  0.00    +0.000 A 
ATOM     14  S   UNL     1       2.499  16.722  18.362  0.00  0.00    +0.000 S 
ATOM     15  C   UNL     1       1.143  17.631  17.851  0.00  0.00    +0.000 A 
ATOM     16  C   UNL     1      -0.047  17.048  18.234  0.00  0.00    +0.000 A 
ATOM     17  C   UNL     1       0.154  15.831  18.959  0.00  0.00    +0.000 A 
ATOM     18  C   UNL     1      -0.922  14.956  19.531  0.00  0.00    +0.000 C 
ENDBRANCH   7   8
BRANCH   3  19
ATOM     19  N   UNL     1       0.126   7.885  20.956  0.00  0.00    +0.000 N 
ATOM     20  C   UNL     1       1.458   7.514  20.809  0.00  0.00    +0.000 C 
ATOM     21  O   UNL     1       2.417   8.223  21.108  0.00  0.00    +0.000 OA
ATOM     22  H   UNL     1      -0.505   7.377  20.343  0.00  0.00    +0.000 HD
BRANCH  20  23
ATOM     23  C   UNL     1       1.623   6.219  20.182  0.00  0.00    +0.000 A 
ATOM     24  C   UNL     1       1.234   4.956  20.589  0.00  0.00    +0.000 A 
ATOM     25  C   UNL     1       1.744   4.039  19.634  0.00  0.00    +0.000 A 
ATOM     26  C   UNL     1       1.754   2.640  19.485  0.00  0.00    +0.000 A 
ATOM     27  C   UNL     1       2.432   2.088  18.388  0.00  0.00    +0.000 A 
ATOM     28  C   UNL     1       3.065   2.903  17.446  0.00  0.00    +0.000 A 
ATOM     29  C   UNL     1       3.039   4.296  17.561  0.00  0.00    +0.000 A 
ATOM     30  C   UNL     1       2.387   4.813  18.673  0.00  0.00    +0.000 A 
ATOM     31  O   UNL     1       2.302   6.134  18.994  0.00  0.00    +0.000 OA
ENDBRANCH  20  23
ENDBRANCH   3  19
TORSDOF 3
ENDMDL
