MODEL 1
REMARK VINA RESULT:      -8.9      0.000      0.000
REMARK  Name = 
REMARK  3 active torsions:
REMARK  status: ('A' for Active; 'I' for Inactive)
REMARK    1  A    between atoms: S_2  and  C_4
REMARK    2  A    between atoms: S_2  and  N_12
REMARK    3  A    between atoms: C_16  and  C_17
REMARK                            x       y       z     vdW  Elec       q    Type
REMARK                         _______ _______ _______ _____ _____    ______ ____
ROOT
ATOM      1  N   UNL     1       3.264   4.121  20.116  0.00  0.00    +0.000 NA
ATOM      2  C   UNL     1       2.704   3.554  21.372  0.00  0.00    +0.000 C 
ATOM      3  C   UNL     1       1.410   2.899  20.926  0.00  0.00    +0.000 C 
ATOM      4  C   UNL     1       0.867   3.855  19.877  0.00  0.00    +0.000 C 
ATOM      5  C   UNL     1       2.087   4.630  19.330  0.00  0.00    +0.000 C 
ENDROOT
BRANCH   5   6
ATOM      6  C   UNL     1       1.892   6.142  19.447  0.00  0.00    +0.000 A 
ATOM      7  C   UNL     1       1.468   6.759  20.648  0.00  0.00    +0.000 A 
ATOM      8  C   UNL     1       1.295   8.147  20.739  0.00  0.00    +0.000 A 
ATOM      9  C   UNL     1       1.554   8.899  19.616  0.00  0.00    +0.000 A 
ATOM     10  C   UNL     1       1.975   8.321  18.445  0.00  0.00    +0.000 A 
ATOM     11  C   UNL     1       2.160   6.958  18.329  0.00  0.00    +0.000 A 
ATOM     12  O   UNL     1       2.176   9.236  17.458  0.00  0.00    +0.000 OA
ATOM     13  C   UNL     1       1.825  10.456  18.145  0.00  0.00    +0.000 C 
ATOM     14  O   UNL     1       1.438  10.250  19.520  0.00  0.00    +0.000 OA
ENDBRANCH   5   6
BRANCH   1  16
ATOM     15  O   UNL     1       3.542   2.385  18.244  0.00  0.00    +0.000 OA
ATOM     16  S   UNL     1       4.316   3.104  19.233  0.00  0.00    +0.000 S 
ATOM     17  O   UNL     1       5.180   2.417  20.166  0.00  0.00    +0.000 OA
BRANCH  16  18
ATOM     18  C   UNL     1       5.310   4.247  18.308  0.00  0.00    +0.000 A 
ATOM     19  C   UNL     1       4.971   4.575  16.994  0.00  0.00    +0.000 A 
ATOM     20  C   UNL     1       5.690   5.574  16.346  0.00  0.00    +0.000 A 
ATOM     21  F   UNL     1       5.364   5.910  15.092  0.00  0.00    +0.000 F 
ATOM     22  C   UNL     1       6.729   6.245  16.981  0.00  0.00    +0.000 A 
ATOM     23  C   UNL     1       7.048   5.905  18.289  0.00  0.00    +0.000 A 
ATOM     24  F   UNL     1       8.034   6.560  18.916  0.00  0.00    +0.000 F 
ATOM     25  C   UNL     1       6.350   4.912  18.965  0.00  0.00    +0.000 A 
ENDBRANCH  16  18
ENDBRANCH   1  16
TORSDOF 3
ENDMDL
MODEL 2
REMARK VINA RESULT:      -8.9      0.273      1.652
REMARK  Name = 
REMARK  3 active torsions:
REMARK  status: ('A' for Active; 'I' for Inactive)
REMARK    1  A    between atoms: S_2  and  C_4
REMARK    2  A    between atoms: S_2  and  N_12
REMARK    3  A    between atoms: C_16  and  C_17
REMARK                            x       y       z     vdW  Elec       q    Type
REMARK                         _______ _______ _______ _____ _____    ______ ____
ROOT
ATOM      1  N   UNL     1       3.252   4.134  20.125  0.00  0.00    +0.000 NA
ATOM      2  C   UNL     1       2.679   3.564  21.374  0.00  0.00    +0.000 C 
ATOM      3  C   UNL     1       1.388   2.911  20.913  0.00  0.00    +0.000 C 
ATOM      4  C   UNL     1       0.856   3.871  19.862  0.00  0.00    +0.000 C 
ATOM      5  C   UNL     1       2.082   4.646  19.330  0.00  0.00    +0.000 C 
ENDROOT
BRANCH   5   6
ATOM      6  C   UNL     1       1.888   6.158  19.450  0.00  0.00    +0.000 A 
ATOM      7  C   UNL     1       1.467   6.773  20.653  0.00  0.00    +0.000 A 
ATOM      8  C   UNL     1       1.294   8.161  20.746  0.00  0.00    +0.000 A 
ATOM      9  C   UNL     1       1.551   8.915  19.624  0.00  0.00    +0.000 A 
ATOM     10  C   UNL     1       1.970   8.339  18.451  0.00  0.00    +0.000 A 
ATOM     11  C   UNL     1       2.154   6.976  18.333  0.00  0.00    +0.000 A 
ATOM     12  O   UNL     1       2.169   9.256  17.466  0.00  0.00    +0.000 OA
ATOM     13  C   UNL     1       1.819  10.475  18.155  0.00  0.00    +0.000 C 
ATOM     14  O   UNL     1       1.435  10.267  19.531  0.00  0.00    +0.000 OA
ENDBRANCH   5   6
BRANCH   1  16
ATOM     15  O   UNL     1       3.543   2.392  18.260  0.00  0.00    +0.000 OA
ATOM     16  S   UNL     1       4.311   3.118  19.249  0.00  0.00    +0.000 S 
ATOM     17  O   UNL     1       5.175   2.439  20.187  0.00  0.00    +0.000 OA
BRANCH  16  18
ATOM     18  C   UNL     1       5.302   4.262  18.323  0.00  0.00    +0.000 A 
ATOM     19  C   UNL     1       6.294   5.012  18.958  0.00  0.00    +0.000 A 
ATOM     20  C   UNL     1       7.142   5.796  18.182  0.00  0.00    +0.000 A 
ATOM     21  F   UNL     1       8.109   6.506  18.777  0.00  0.00    +0.000 F 
ATOM     22  C   UNL     1       7.019   5.842  16.798  0.00  0.00    +0.000 A 
ATOM     23  C   UNL     1       6.027   5.087  16.186  0.00  0.00    +0.000 A 
ATOM     24  F   UNL     1       5.914   5.109  14.852  0.00  0.00    +0.000 F 
ATOM     25  C   UNL     1       5.164   4.293  16.931  0.00  0.00    +0.000 A 
ENDBRANCH  16  18
ENDBRANCH   1  16
TORSDOF 3
ENDMDL
MODEL 3
REMARK VINA RESULT:      -8.7      0.733      1.516
REMARK  Name = 
REMARK  3 active torsions:
REMARK  status: ('A' for Active; 'I' for Inactive)
REMARK    1  A    between atoms: S_2  and  C_4
REMARK    2  A    between atoms: S_2  and  N_12
REMARK    3  A    between atoms: C_16  and  C_17
REMARK                            x       y       z     vdW  Elec       q    Type
REMARK                         _______ _______ _______ _____ _____    ______ ____
ROOT
ATOM      1  N   UNL     1       3.270   4.175  20.102  0.00  0.00    +0.000 NA
ATOM      2  C   UNL     1       2.722   3.596  21.358  0.00  0.00    +0.000 C 
ATOM      3  C   UNL     1       1.424   2.944  20.920  0.00  0.00    +0.000 C 
ATOM      4  C   UNL     1       0.870   3.910  19.885  0.00  0.00    +0.000 C 
ATOM      5  C   UNL     1       2.084   4.690  19.333  0.00  0.00    +0.000 C 
ENDROOT
BRANCH   5   6
ATOM      6  C   UNL     1       1.890   6.201  19.466  0.00  0.00    +0.000 A 
ATOM      7  C   UNL     1       2.161   7.094  18.402  0.00  0.00    +0.000 A 
ATOM      8  C   UNL     1       1.977   8.477  18.540  0.00  0.00    +0.000 A 
ATOM      9  C   UNL     1       1.519   8.944  19.750  0.00  0.00    +0.000 A 
ATOM     10  C   UNL     1       1.240   8.094  20.791  0.00  0.00    +0.000 A 
ATOM     11  C   UNL     1       1.406   6.727  20.681  0.00  0.00    +0.000 A 
ATOM     12  O   UNL     1       0.798   8.753  21.896  0.00  0.00    +0.000 OA
ATOM     13  C   UNL     1       0.838  10.119  21.429  0.00  0.00    +0.000 C 
ATOM     14  O   UNL     1       1.286  10.246  20.063  0.00  0.00    +0.000 OA
ENDBRANCH   5   6
BRANCH   1  16
ATOM     15  O   UNL     1       3.529   2.457  18.210  0.00  0.00    +0.000 OA
ATOM     16  S   UNL     1       4.312   3.166  19.199  0.00  0.00    +0.000 S 
ATOM     17  O   UNL     1       5.185   2.469  20.117  0.00  0.00    +0.000 OA
BRANCH  16  18
ATOM     18  C   UNL     1       5.297   4.317  18.276  0.00  0.00    +0.000 A 
ATOM     19  C   UNL     1       4.919   4.696  16.986  0.00  0.00    +0.000 A 
ATOM     20  C   UNL     1       5.636   5.701  16.345  0.00  0.00    +0.000 A 
ATOM     21  F   UNL     1       5.272   6.086  15.115  0.00  0.00    +0.000 F 
ATOM     22  C   UNL     1       6.712   6.329  16.962  0.00  0.00    +0.000 A 
ATOM     23  C   UNL     1       7.070   5.938  18.246  0.00  0.00    +0.000 A 
ATOM     24  F   UNL     1       8.093   6.550  18.857  0.00  0.00    +0.000 F 
ATOM     25  C   UNL     1       6.375   4.938  18.915  0.00  0.00    +0.000 A 
ENDBRANCH  16  18
ENDBRANCH   1  16
TORSDOF 3
ENDMDL
MODEL 4
REMARK VINA RESULT:      -8.6      0.766      2.241
REMARK  Name = 
REMARK  3 active torsions:
REMARK  status: ('A' for Active; 'I' for Inactive)
REMARK    1  A    between atoms: S_2  and  C_4
REMARK    2  A    between atoms: S_2  and  N_12
REMARK    3  A    between atoms: C_16  and  C_17
REMARK                            x       y       z     vdW  Elec       q    Type
REMARK                         _______ _______ _______ _____ _____    ______ ____
ROOT
ATOM      1  N   UNL     1       3.273   4.170  20.101  0.00  0.00    +0.000 NA
ATOM      2  C   UNL     1       2.730   3.595  21.361  0.00  0.00    +0.000 C 
ATOM      3  C   UNL     1       1.431   2.941  20.929  0.00  0.00    +0.000 C 
ATOM      4  C   UNL     1       0.873   3.902  19.892  0.00  0.00    +0.000 C 
ATOM      5  C   UNL     1       2.084   4.681  19.334  0.00  0.00    +0.000 C 
ENDROOT
BRANCH   5   6
ATOM      6  C   UNL     1       1.890   6.192  19.461  0.00  0.00    +0.000 A 
ATOM      7  C   UNL     1       2.166   7.083  18.397  0.00  0.00    +0.000 A 
ATOM      8  C   UNL     1       1.982   8.466  18.530  0.00  0.00    +0.000 A 
ATOM      9  C   UNL     1       1.517   8.936  19.737  0.00  0.00    +0.000 A 
ATOM     10  C   UNL     1       1.233   8.089  20.778  0.00  0.00    +0.000 A 
ATOM     11  C   UNL     1       1.400   6.722  20.672  0.00  0.00    +0.000 A 
ATOM     12  O   UNL     1       0.786   8.751  21.879  0.00  0.00    +0.000 OA
ATOM     13  C   UNL     1       0.828  10.115  21.409  0.00  0.00    +0.000 C 
ATOM     14  O   UNL     1       1.283  10.239  20.045  0.00  0.00    +0.000 OA
ENDBRANCH   5   6
BRANCH   1  16
ATOM     15  O   UNL     1       3.530   2.455  18.206  0.00  0.00    +0.000 OA
ATOM     16  S   UNL     1       4.313   3.158  19.198  0.00  0.00    +0.000 S 
ATOM     17  O   UNL     1       5.181   2.456  20.117  0.00  0.00    +0.000 OA
BRANCH  16  18
ATOM     18  C   UNL     1       5.307   4.307  18.280  0.00  0.00    +0.000 A 
ATOM     19  C   UNL     1       6.332   5.015  18.910  0.00  0.00    +0.000 A 
ATOM     20  C   UNL     1       7.178   5.803  18.136  0.00  0.00    +0.000 A 
ATOM     21  F   UNL     1       8.175   6.473  18.726  0.00  0.00    +0.000 F 
ATOM     22  C   UNL     1       7.020   5.894  16.758  0.00  0.00    +0.000 A 
ATOM     23  C   UNL     1       5.995   5.180  16.150  0.00  0.00    +0.000 A 
ATOM     24  F   UNL     1       5.847   5.246  14.821  0.00  0.00    +0.000 F 
ATOM     25  C   UNL     1       5.133   4.384  16.894  0.00  0.00    +0.000 A 
ENDBRANCH  16  18
ENDBRANCH   1  16
TORSDOF 3
ENDMDL
MODEL 5
REMARK VINA RESULT:      -8.4      3.085      5.708
REMARK  Name = 
REMARK  3 active torsions:
REMARK  status: ('A' for Active; 'I' for Inactive)
REMARK    1  A    between atoms: S_2  and  C_4
REMARK    2  A    between atoms: S_2  and  N_12
REMARK    3  A    between atoms: C_16  and  C_17
REMARK                            x       y       z     vdW  Elec       q    Type
REMARK                         _______ _______ _______ _____ _____    ______ ____
ROOT
ATOM      1  N   UNL     1       2.652   4.321  18.632  0.00  0.00    +0.000 NA
ATOM      2  C   UNL     1       1.769   3.443  17.819  0.00  0.00    +0.000 C 
ATOM      3  C   UNL     1       2.140   2.042  18.267  0.00  0.00    +0.000 C 
ATOM      4  C   UNL     1       3.646   2.116  18.464  0.00  0.00    +0.000 C 
ATOM      5  C   UNL     1       3.970   3.603  18.732  0.00  0.00    +0.000 C 
ENDROOT
BRANCH   5   6
ATOM      6  C   UNL     1       5.021   4.134  17.756  0.00  0.00    +0.000 A 
ATOM      7  C   UNL     1       6.080   4.978  18.170  0.00  0.00    +0.000 A 
ATOM      8  C   UNL     1       7.035   5.455  17.263  0.00  0.00    +0.000 A 
ATOM      9  C   UNL     1       6.914   5.075  15.946  0.00  0.00    +0.000 A 
ATOM     10  C   UNL     1       5.902   4.250  15.526  0.00  0.00    +0.000 A 
ATOM     11  C   UNL     1       4.951   3.759  16.399  0.00  0.00    +0.000 A 
ATOM     12  O   UNL     1       5.961   3.994  14.191  0.00  0.00    +0.000 OA
ATOM     13  C   UNL     1       7.127   4.760  13.821  0.00  0.00    +0.000 C 
ATOM     14  O   UNL     1       7.743   5.442  14.933  0.00  0.00    +0.000 OA
ENDBRANCH   5   6
BRANCH   1  16
ATOM     15  O   UNL     1       3.028   4.655  21.151  0.00  0.00    +0.000 OA
ATOM     16  S   UNL     1       2.021   4.847  20.131  0.00  0.00    +0.000 S 
ATOM     17  O   UNL     1       0.684   4.316  20.276  0.00  0.00    +0.000 OA
BRANCH  16  18
ATOM     18  C   UNL     1       1.891   6.605  19.926  0.00  0.00    +0.000 A 
ATOM     19  C   UNL     1       2.220   7.200  18.707  0.00  0.00    +0.000 A 
ATOM     20  C   UNL     1       1.977   8.560  18.537  0.00  0.00    +0.000 A 
ATOM     21  F   UNL     1       2.272   9.139  17.367  0.00  0.00    +0.000 F 
ATOM     22  C   UNL     1       1.417   9.326  19.553  0.00  0.00    +0.000 A 
ATOM     23  C   UNL     1       1.096   8.714  20.757  0.00  0.00    +0.000 A 
ATOM     24  F   UNL     1       0.537   9.439  21.735  0.00  0.00    +0.000 F 
ATOM     25  C   UNL     1       1.325   7.358  20.959  0.00  0.00    +0.000 A 
ENDBRANCH  16  18
ENDBRANCH   1  16
TORSDOF 3
ENDMDL
MODEL 6
REMARK VINA RESULT:      -8.1      2.937      5.651
REMARK  Name = 
REMARK  3 active torsions:
REMARK  status: ('A' for Active; 'I' for Inactive)
REMARK    1  A    between atoms: S_2  and  C_4
REMARK    2  A    between atoms: S_2  and  N_12
REMARK    3  A    between atoms: C_16  and  C_17
REMARK                            x       y       z     vdW  Elec       q    Type
REMARK                         _______ _______ _______ _____ _____    ______ ____
ROOT
ATOM      1  N   UNL     1       2.719   3.935  18.852  0.00  0.00    +0.000 NA
ATOM      2  C   UNL     1       2.083   2.759  18.200  0.00  0.00    +0.000 C 
ATOM      3  C   UNL     1       2.699   1.572  18.917  0.00  0.00    +0.000 C 
ATOM      4  C   UNL     1       4.144   1.994  19.132  0.00  0.00    +0.000 C 
ATOM      5  C   UNL     1       4.145   3.539  19.119  0.00  0.00    +0.000 C 
ENDROOT
BRANCH   5   6
ATOM      6  C   UNL     1       5.128   4.092  18.086  0.00  0.00    +0.000 A 
ATOM      7  C   UNL     1       6.220   4.916  18.447  0.00  0.00    +0.000 A 
ATOM      8  C   UNL     1       7.112   5.414  17.487  0.00  0.00    +0.000 A 
ATOM      9  C   UNL     1       6.894   5.073  16.172  0.00  0.00    +0.000 A 
ATOM     10  C   UNL     1       5.847   4.267  15.803  0.00  0.00    +0.000 A 
ATOM     11  C   UNL     1       4.957   3.757  16.727  0.00  0.00    +0.000 A 
ATOM     12  O   UNL     1       5.808   4.050  14.460  0.00  0.00    +0.000 OA
ATOM     13  C   UNL     1       6.950   4.819  14.029  0.00  0.00    +0.000 C 
ATOM     14  O   UNL     1       7.651   5.465  15.113  0.00  0.00    +0.000 OA
ENDBRANCH   5   6
BRANCH   1  16
ATOM     15  O   UNL     1       2.782   4.519  21.353  0.00  0.00    +0.000 OA
ATOM     16  S   UNL     1       1.901   4.581  20.207  0.00  0.00    +0.000 S 
ATOM     17  O   UNL     1       0.568   4.024  20.245  0.00  0.00    +0.000 OA
BRANCH  16  18
ATOM     18  C   UNL     1       1.761   6.306  19.817  0.00  0.00    +0.000 A 
ATOM     19  C   UNL     1       1.325   7.215  20.783  0.00  0.00    +0.000 A 
ATOM     20  C   UNL     1       1.357   8.575  20.487  0.00  0.00    +0.000 A 
ATOM     21  F   UNL     1       0.959   9.458  21.411  0.00  0.00    +0.000 F 
ATOM     22  C   UNL     1       1.814   9.036  19.258  0.00  0.00    +0.000 A 
ATOM     23  C   UNL     1       2.245   8.115  18.312  0.00  0.00    +0.000 A 
ATOM     24  F   UNL     1       2.704   8.551  17.132  0.00  0.00    +0.000 F 
ATOM     25  C   UNL     1       2.226   6.751  18.575  0.00  0.00    +0.000 A 
ENDBRANCH  16  18
ENDBRANCH   1  16
TORSDOF 3
ENDMDL
MODEL 7
REMARK VINA RESULT:      -7.9      2.918      5.504
REMARK  Name = 
REMARK  3 active torsions:
REMARK  status: ('A' for Active; 'I' for Inactive)
REMARK    1  A    between atoms: S_2  and  C_4
REMARK    2  A    between atoms: S_2  and  N_12
REMARK    3  A    between atoms: C_16  and  C_17
REMARK                            x       y       z     vdW  Elec       q    Type
REMARK                         _______ _______ _______ _____ _____    ______ ____
ROOT
ATOM      1  N   UNL     1       3.156   3.156  18.318  0.00  0.00    +0.000 NA
ATOM      2  C   UNL     1       3.481   1.730  18.589  0.00  0.00    +0.000 C 
ATOM      3  C   UNL     1       4.191   1.769  19.929  0.00  0.00    +0.000 C 
ATOM      4  C   UNL     1       5.028   3.036  19.854  0.00  0.00    +0.000 C 
ATOM      5  C   UNL     1       4.329   3.950  18.823  0.00  0.00    +0.000 C 
ENDROOT
BRANCH   5   6
ATOM      6  C   UNL     1       5.288   4.380  17.712  0.00  0.00    +0.000 A 
ATOM      7  C   UNL     1       6.389   5.236  17.952  0.00  0.00    +0.000 A 
ATOM      8  C   UNL     1       7.259   5.620  16.923  0.00  0.00    +0.000 A 
ATOM      9  C   UNL     1       7.010   5.134  15.659  0.00  0.00    +0.000 A 
ATOM     10  C   UNL     1       5.953   4.295  15.407  0.00  0.00    +0.000 A 
ATOM     11  C   UNL     1       5.085   3.896  16.403  0.00  0.00    +0.000 A 
ATOM     12  O   UNL     1       5.884   3.929  14.099  0.00  0.00    +0.000 OA
ATOM     13  C   UNL     1       7.016   4.641  13.558  0.00  0.00    +0.000 C 
ATOM     14  O   UNL     1       7.742   5.402  14.546  0.00  0.00    +0.000 OA
ENDBRANCH   5   6
BRANCH   1  16
ATOM     15  O   UNL     1       1.411   3.158  20.204  0.00  0.00    +0.000 OA
ATOM     16  S   UNL     1       1.638   3.703  18.883  0.00  0.00    +0.000 S 
ATOM     17  O   UNL     1       0.670   3.546  17.821  0.00  0.00    +0.000 OA
BRANCH  16  18
ATOM     18  C   UNL     1       1.897   5.441  19.133  0.00  0.00    +0.000 A 
ATOM     19  C   UNL     1       2.220   6.268  18.056  0.00  0.00    +0.000 A 
ATOM     20  C   UNL     1       2.282   7.643  18.261  0.00  0.00    +0.000 A 
ATOM     21  F   UNL     1       2.573   8.449  17.233  0.00  0.00    +0.000 F 
ATOM     22  C   UNL     1       2.027   8.199  19.509  0.00  0.00    +0.000 A 
ATOM     23  C   UNL     1       1.705   7.359  20.567  0.00  0.00    +0.000 A 
ATOM     24  F   UNL     1       1.439   7.886  21.769  0.00  0.00    +0.000 F 
ATOM     25  C   UNL     1       1.635   5.981  20.396  0.00  0.00    +0.000 A 
ENDBRANCH  16  18
ENDBRANCH   1  16
TORSDOF 3
ENDMDL
MODEL 8
REMARK VINA RESULT:      -7.8      1.056      1.199
REMARK  Name = 
REMARK  3 active torsions:
REMARK  status: ('A' for Active; 'I' for Inactive)
REMARK    1  A    between atoms: S_2  and  C_4
REMARK    2  A    between atoms: S_2  and  N_12
REMARK    3  A    between atoms: C_16  and  C_17
REMARK                            x       y       z     vdW  Elec       q    Type
REMARK                         _______ _______ _______ _____ _____    ______ ____
ROOT
ATOM      1  N   UNL     1       3.253   4.109  19.119  0.00  0.00    +0.000 NA
ATOM      2  C   UNL     1       3.565   3.579  20.473  0.00  0.00    +0.000 C 
ATOM      3  C   UNL     1       2.264   2.937  20.918  0.00  0.00    +0.000 C 
ATOM      4  C   UNL     1       1.198   3.880  20.385  0.00  0.00    +0.000 C 
ATOM      5  C   UNL     1       1.840   4.621  19.190  0.00  0.00    +0.000 C 
ENDROOT
BRANCH   5   6
ATOM      6  C   UNL     1       1.757   6.138  19.359  0.00  0.00    +0.000 A 
ATOM      7  C   UNL     1       1.438   6.745  20.597  0.00  0.00    +0.000 A 
ATOM      8  C   UNL     1       1.367   8.138  20.735  0.00  0.00    +0.000 A 
ATOM      9  C   UNL     1       1.621   8.906  19.621  0.00  0.00    +0.000 A 
ATOM     10  C   UNL     1       1.941   8.337  18.414  0.00  0.00    +0.000 A 
ATOM     11  C   UNL     1       2.025   6.969  18.251  0.00  0.00    +0.000 A 
ATOM     12  O   UNL     1       2.156   9.267  17.444  0.00  0.00    +0.000 OA
ATOM     13  C   UNL     1       1.925  10.485  18.182  0.00  0.00    +0.000 C 
ATOM     14  O   UNL     1       1.594  10.264  19.569  0.00  0.00    +0.000 OA
ENDBRANCH   5   6
BRANCH   1  16
ATOM     15  O   UNL     1       2.479   3.185  16.850  0.00  0.00    +0.000 OA
ATOM     16  S   UNL     1       3.555   3.054  17.808  0.00  0.00    +0.000 S 
ATOM     17  O   UNL     1       3.948   1.767  18.337  0.00  0.00    +0.000 OA
BRANCH  16  18
ATOM     18  C   UNL     1       4.972   3.776  17.020  0.00  0.00    +0.000 A 
ATOM     19  C   UNL     1       5.102   3.739  15.631  0.00  0.00    +0.000 A 
ATOM     20  C   UNL     1       6.154   4.432  15.037  0.00  0.00    +0.000 A 
ATOM     21  F   UNL     1       6.279   4.419  13.705  0.00  0.00    +0.000 F 
ATOM     22  C   UNL     1       7.065   5.154  15.799  0.00  0.00    +0.000 A 
ATOM     23  C   UNL     1       6.916   5.179  17.180  0.00  0.00    +0.000 A 
ATOM     24  F   UNL     1       7.777   5.888  17.921  0.00  0.00    +0.000 F 
ATOM     25  C   UNL     1       5.878   4.498  17.804  0.00  0.00    +0.000 A 
ENDBRANCH  16  18
ENDBRANCH   1  16
TORSDOF 3
ENDMDL
MODEL 9
REMARK VINA RESULT:      -7.7      1.308      2.514
REMARK  Name = 
REMARK  3 active torsions:
REMARK  status: ('A' for Active; 'I' for Inactive)
REMARK    1  A    between atoms: S_2  and  C_4
REMARK    2  A    between atoms: S_2  and  N_12
REMARK    3  A    between atoms: C_16  and  C_17
REMARK                            x       y       z     vdW  Elec       q    Type
REMARK                         _______ _______ _______ _____ _____    ______ ____
ROOT
ATOM      1  N   UNL     1       3.136   4.033  19.279  0.00  0.00    +0.000 NA
ATOM      2  C   UNL     1       3.322   3.455  20.637  0.00  0.00    +0.000 C 
ATOM      3  C   UNL     1       1.972   2.842  20.957  0.00  0.00    +0.000 C 
ATOM      4  C   UNL     1       0.980   3.833  20.369  0.00  0.00    +0.000 C 
ATOM      5  C   UNL     1       1.738   4.587  19.254  0.00  0.00    +0.000 C 
ENDROOT
BRANCH   5   6
ATOM      6  C   UNL     1       1.686   6.101  19.462  0.00  0.00    +0.000 A 
ATOM      7  C   UNL     1       2.045   7.017  18.445  0.00  0.00    +0.000 A 
ATOM      8  C   UNL     1       1.992   8.402  18.652  0.00  0.00    +0.000 A 
ATOM      9  C   UNL     1       1.572   8.850  19.884  0.00  0.00    +0.000 A 
ATOM     10  C   UNL     1       1.209   7.978  20.880  0.00  0.00    +0.000 A 
ATOM     11  C   UNL     1       1.247   6.610  20.702  0.00  0.00    +0.000 A 
ATOM     12  O   UNL     1       0.825   8.621  22.016  0.00  0.00    +0.000 OA
ATOM     13  C   UNL     1       0.996   9.997  21.620  0.00  0.00    +0.000 C 
ATOM     14  O   UNL     1       1.461  10.151  20.262  0.00  0.00    +0.000 OA
ENDBRANCH   5   6
BRANCH   1  16
ATOM     15  O   UNL     1       2.453   3.103  16.984  0.00  0.00    +0.000 OA
ATOM     16  S   UNL     1       3.512   3.007  17.965  0.00  0.00    +0.000 S 
ATOM     17  O   UNL     1       3.948   1.732  18.489  0.00  0.00    +0.000 OA
BRANCH  16  18
ATOM     18  C   UNL     1       4.914   3.798  17.217  0.00  0.00    +0.000 A 
ATOM     19  C   UNL     1       5.856   4.460  18.006  0.00  0.00    +0.000 A 
ATOM     20  C   UNL     1       7.011   4.950  17.404  0.00  0.00    +0.000 A 
ATOM     21  F   UNL     1       7.930   5.571  18.153  0.00  0.00    +0.000 F 
ATOM     22  C   UNL     1       7.239   4.789  16.042  0.00  0.00    +0.000 A 
ATOM     23  C   UNL     1       6.290   4.126  15.275  0.00  0.00    +0.000 A 
ATOM     24  F   UNL     1       6.510   3.949  13.966  0.00  0.00    +0.000 F 
ATOM     25  C   UNL     1       5.126   3.624  15.845  0.00  0.00    +0.000 A 
ENDBRANCH  16  18
ENDBRANCH   1  16
TORSDOF 3
ENDMDL
