MODEL 1
REMARK VINA RESULT:      -8.9      0.000      0.000
REMARK  Name = 
REMARK  6 active torsions:
REMARK  status: ('A' for Active; 'I' for Inactive)
REMARK    1  A    between atoms: C_1  and  N_2
REMARK    2  A    between atoms: C_6  and  C_7
REMARK    3  A    between atoms: C_7  and  C_8
REMARK    4  A    between atoms: C_8  and  C_9
REMARK    5  A    between atoms: C_13  and  N_14
REMARK    6  A    between atoms: C_19  and  C_20
REMARK                            x       y       z     vdW  Elec       q    Type
REMARK                         _______ _______ _______ _____ _____    ______ ____
ROOT
ATOM      1  C   UNL     1       3.203   4.035  19.417  0.00  0.00    +0.000 A 
ATOM      2  C   UNL     1       2.889   3.472  18.163  0.00  0.00    +0.000 A 
ATOM      3  C   UNL     1       3.879   3.054  17.278  0.00  0.00    +0.000 A 
ATOM      4  C   UNL     1       5.211   3.314  17.564  0.00  0.00    +0.000 A 
ATOM      5  C   UNL     1       5.526   4.152  18.642  0.00  0.00    +0.000 A 
ATOM      6  C   UNL     1       4.556   4.368  19.628  0.00  0.00    +0.000 A 
ENDROOT
BRANCH   5   7
ATOM      7  N   UNL     1       6.596   5.145  18.506  0.00  0.00    +0.000 N 
ATOM      8  C   UNL     1       6.024   6.407  17.959  0.00  0.00    +0.000 C 
ATOM      9  C   UNL     1       6.101   6.148  16.485  0.00  0.00    +0.000 A 
ATOM     10  C   UNL     1       5.112   6.303  15.528  0.00  0.00    +0.000 A 
ATOM     11  C   UNL     1       5.226   5.559  14.347  0.00  0.00    +0.000 A 
ATOM     12  C   UNL     1       6.323   4.690  14.122  0.00  0.00    +0.000 A 
ATOM     13  C   UNL     1       7.344   4.593  15.080  0.00  0.00    +0.000 A 
ATOM     14  C   UNL     1       7.186   5.302  16.260  0.00  0.00    +0.000 A 
ATOM     15  C   UNL     1       7.621   4.799  17.591  0.00  0.00    +0.000 C 
ATOM     16  O   UNL     1       8.564   4.043  17.753  0.00  0.00    +0.000 OA
BRANCH  12  17
ATOM     17  C   UNL     1       6.344   3.757  12.937  0.00  0.00    +0.000 C 
ATOM     18  F   UNL     1       5.098   3.564  12.415  0.00  0.00    +0.000 F 
ATOM     19  F   UNL     1       7.104   4.210  11.901  0.00  0.00    +0.000 F 
ENDBRANCH  12  17
ENDBRANCH   5   7
BRANCH   1  20
ATOM     20  C   UNL     1       2.090   4.253  20.546  0.00  0.00    +0.000 C 
ATOM     21  C   UNL     1       0.699   3.627  20.217  0.00  0.00    +0.000 C 
ATOM     22  O   UNL     1       0.705   2.846  21.429  0.00  0.00    +0.000 OA
ATOM     23  C   UNL     1       2.078   3.206  21.690  0.00  0.00    +0.000 C 
BRANCH  20  24
ATOM     24  C   UNL     1       1.911   5.717  20.997  0.00  0.00    +0.000 C 
BRANCH  24  30
ATOM     25  C   UNL     1       1.191   8.815  21.259  0.00  0.00    +0.000 C 
ATOM     26  N   UNL     1       1.672   8.114  20.098  0.00  0.00    +0.000 N 
ATOM     27  C   UNL     1       1.813   8.676  18.863  0.00  0.00    +0.000 A 
ATOM     28  N   UNL     1       2.221   7.768  18.012  0.00  0.00    +0.000 NA
ATOM     29  N   UNL     1       2.323   6.581  18.694  0.00  0.00    +0.000 NA
ATOM     30  C   UNL     1       2.015   6.790  19.961  0.00  0.00    +0.000 A 
ENDBRANCH  24  30
ENDBRANCH  20  24
ENDBRANCH   1  20
TORSDOF 5
ENDMDL
MODEL 2
REMARK VINA RESULT:      -8.5      3.877      7.364
REMARK  Name = 
REMARK  6 active torsions:
REMARK  status: ('A' for Active; 'I' for Inactive)
REMARK    1  A    between atoms: C_1  and  N_2
REMARK    2  A    between atoms: C_6  and  C_7
REMARK    3  A    between atoms: C_7  and  C_8
REMARK    4  A    between atoms: C_8  and  C_9
REMARK    5  A    between atoms: C_13  and  N_14
REMARK    6  A    between atoms: C_19  and  C_20
REMARK                            x       y       z     vdW  Elec       q    Type
REMARK                         _______ _______ _______ _____ _____    ______ ____
ROOT
ATOM      1  C   UNL     1       2.347   5.646  18.983  0.00  0.00    +0.000 A 
ATOM      2  C   UNL     1       2.213   6.490  17.862  0.00  0.00    +0.000 A 
ATOM      3  C   UNL     1       2.144   7.874  17.990  0.00  0.00    +0.000 A 
ATOM      4  C   UNL     1       2.069   8.445  19.252  0.00  0.00    +0.000 A 
ATOM      5  C   UNL     1       1.878   7.616  20.366  0.00  0.00    +0.000 A 
ATOM      6  C   UNL     1       2.172   6.253  20.244  0.00  0.00    +0.000 A 
ENDROOT
BRANCH   5   7
ATOM      7  N   UNL     1       0.956   8.023  21.429  0.00  0.00    +0.000 N 
ATOM      8  C   UNL     1      -0.408   8.193  20.856  0.00  0.00    +0.000 C 
ATOM      9  C   UNL     1      -0.352   9.614  20.383  0.00  0.00    +0.000 A 
ATOM     10  C   UNL     1      -0.710  10.129  19.148  0.00  0.00    +0.000 A 
ATOM     11  C   UNL     1      -0.131  11.343  18.756  0.00  0.00    +0.000 A 
ATOM     12  C   UNL     1       0.775  12.037  19.596  0.00  0.00    +0.000 A 
ATOM     13  C   UNL     1       1.078  11.527  20.867  0.00  0.00    +0.000 A 
ATOM     14  C   UNL     1       0.531  10.302  21.214  0.00  0.00    +0.000 A 
ATOM     15  C   UNL     1       1.245   9.277  22.024  0.00  0.00    +0.000 C 
ATOM     16  O   UNL     1       2.083   9.546  22.868  0.00  0.00    +0.000 OA
BRANCH  12  17
ATOM     17  C   UNL     1       1.533  13.240  19.093  0.00  0.00    +0.000 C 
ATOM     18  F   UNL     1       2.249  12.960  17.965  0.00  0.00    +0.000 F 
ATOM     19  F   UNL     1       0.730  14.290  18.761  0.00  0.00    +0.000 F 
ENDBRANCH  12  17
ENDBRANCH   5   7
BRANCH   1  20
ATOM     20  C   UNL     1       2.710   4.094  18.833  0.00  0.00    +0.000 C 
ATOM     21  C   UNL     1       2.602   3.271  20.154  0.00  0.00    +0.000 C 
ATOM     22  O   UNL     1       1.672   2.343  19.562  0.00  0.00    +0.000 OA
ATOM     23  C   UNL     1       1.547   3.171  18.387  0.00  0.00    +0.000 C 
BRANCH  20  24
ATOM     24  C   UNL     1       4.066   3.815  18.154  0.00  0.00    +0.000 C 
BRANCH  24  30
ATOM     25  C   UNL     1       5.646   5.989  16.433  0.00  0.00    +0.000 C 
ATOM     26  N   UNL     1       5.916   5.561  17.779  0.00  0.00    +0.000 N 
ATOM     27  C   UNL     1       6.985   5.975  18.519  0.00  0.00    +0.000 A 
ATOM     28  N   UNL     1       6.977   5.367  19.679  0.00  0.00    +0.000 NA
ATOM     29  N   UNL     1       5.898   4.519  19.691  0.00  0.00    +0.000 NA
ATOM     30  C   UNL     1       5.240   4.649  18.555  0.00  0.00    +0.000 A 
ENDBRANCH  24  30
ENDBRANCH  20  24
ENDBRANCH   1  20
TORSDOF 5
ENDMDL
MODEL 3
REMARK VINA RESULT:      -8.2      2.647      4.243
REMARK  Name = 
REMARK  6 active torsions:
REMARK  status: ('A' for Active; 'I' for Inactive)
REMARK    1  A    between atoms: C_1  and  N_2
REMARK    2  A    between atoms: C_6  and  C_7
REMARK    3  A    between atoms: C_7  and  C_8
REMARK    4  A    between atoms: C_8  and  C_9
REMARK    5  A    between atoms: C_13  and  N_14
REMARK    6  A    between atoms: C_19  and  C_20
REMARK                            x       y       z     vdW  Elec       q    Type
REMARK                         _______ _______ _______ _____ _____    ______ ____
ROOT
ATOM      1  C   UNL     1       1.780   8.143  19.613  0.00  0.00    +0.000 A 
ATOM      2  C   UNL     1       2.415   8.597  18.439  0.00  0.00    +0.000 A 
ATOM      3  C   UNL     1       2.829   7.718  17.441  0.00  0.00    +0.000 A 
ATOM      4  C   UNL     1       2.741   6.350  17.651  0.00  0.00    +0.000 A 
ATOM      5  C   UNL     1       2.415   5.875  18.929  0.00  0.00    +0.000 A 
ATOM      6  C   UNL     1       1.797   6.750  19.830  0.00  0.00    +0.000 A 
ENDROOT
BRANCH   5   7
ATOM      7  N   UNL     1       3.119   4.713  19.478  0.00  0.00    +0.000 N 
ATOM      8  C   UNL     1       4.477   5.131  19.925  0.00  0.00    +0.000 C 
ATOM      9  C   UNL     1       5.260   4.985  18.656  0.00  0.00    +0.000 A 
ATOM     10  C   UNL     1       6.122   5.892  18.063  0.00  0.00    +0.000 A 
ATOM     11  C   UNL     1       6.348   5.771  16.685  0.00  0.00    +0.000 A 
ATOM     12  C   UNL     1       5.736   4.746  15.921  0.00  0.00    +0.000 A 
ATOM     13  C   UNL     1       4.913   3.802  16.554  0.00  0.00    +0.000 A 
ATOM     14  C   UNL     1       4.667   3.969  17.906  0.00  0.00    +0.000 A 
ATOM     15  C   UNL     1       3.360   3.667  18.552  0.00  0.00    +0.000 C 
ATOM     16  O   UNL     1       2.591   2.810  18.153  0.00  0.00    +0.000 OA
BRANCH  12  17
ATOM     17  C   UNL     1       5.837   4.735  14.417  0.00  0.00    +0.000 C 
ATOM     18  F   UNL     1       7.012   5.273  13.977  0.00  0.00    +0.000 F 
ATOM     19  F   UNL     1       5.787   3.485  13.877  0.00  0.00    +0.000 F 
ENDBRANCH  12  17
ENDBRANCH   5   7
BRANCH   1  20
ATOM     20  C   UNL     1       1.053   9.150  20.623  0.00  0.00    +0.000 C 
ATOM     21  C   UNL     1      -0.263   8.599  21.254  0.00  0.00    +0.000 C 
ATOM     22  O   UNL     1       0.234   8.798  22.593  0.00  0.00    +0.000 OA
ATOM     23  C   UNL     1       1.551   9.106  22.091  0.00  0.00    +0.000 C 
BRANCH  20  24
ATOM     24  C   UNL     1       0.809  10.563  20.056  0.00  0.00    +0.000 C 
BRANCH  24  30
ATOM     25  C   UNL     1      -1.789  12.231  20.863  0.00  0.00    +0.000 C 
ATOM     26  N   UNL     1      -1.550  11.500  19.647  0.00  0.00    +0.000 N 
ATOM     27  C   UNL     1      -2.472  11.333  18.655  0.00  0.00    +0.000 A 
ATOM     28  N   UNL     1      -1.968  10.580  17.710  0.00  0.00    +0.000 NA
ATOM     29  N   UNL     1      -0.701  10.223  18.101  0.00  0.00    +0.000 NA
ATOM     30  C   UNL     1      -0.435  10.797  19.259  0.00  0.00    +0.000 A 
ENDBRANCH  24  30
ENDBRANCH  20  24
ENDBRANCH   1  20
TORSDOF 5
ENDMDL
MODEL 4
REMARK VINA RESULT:      -8.2      2.690      4.509
REMARK  Name = 
REMARK  6 active torsions:
REMARK  status: ('A' for Active; 'I' for Inactive)
REMARK    1  A    between atoms: C_1  and  N_2
REMARK    2  A    between atoms: C_6  and  C_7
REMARK    3  A    between atoms: C_7  and  C_8
REMARK    4  A    between atoms: C_8  and  C_9
REMARK    5  A    between atoms: C_13  and  N_14
REMARK    6  A    between atoms: C_19  and  C_20
REMARK                            x       y       z     vdW  Elec       q    Type
REMARK                         _______ _______ _______ _____ _____    ______ ____
ROOT
ATOM      1  C   UNL     1       1.673   8.216  19.741  0.00  0.00    +0.000 A 
ATOM      2  C   UNL     1       2.282   8.675  18.556  0.00  0.00    +0.000 A 
ATOM      3  C   UNL     1       2.629   7.806  17.525  0.00  0.00    +0.000 A 
ATOM      4  C   UNL     1       2.500   6.437  17.707  0.00  0.00    +0.000 A 
ATOM      5  C   UNL     1       2.202   5.944  18.985  0.00  0.00    +0.000 A 
ATOM      6  C   UNL     1       1.647   6.818  19.927  0.00  0.00    +0.000 A 
ENDROOT
BRANCH   5   7
ATOM      7  N   UNL     1       2.883   4.746  19.482  0.00  0.00    +0.000 N 
ATOM      8  C   UNL     1       4.232   5.125  19.989  0.00  0.00    +0.000 C 
ATOM      9  C   UNL     1       5.048   5.048  18.734  0.00  0.00    +0.000 A 
ATOM     10  C   UNL     1       5.931   5.981  18.219  0.00  0.00    +0.000 A 
ATOM     11  C   UNL     1       6.193   5.940  16.844  0.00  0.00    +0.000 A 
ATOM     12  C   UNL     1       5.595   4.967  16.004  0.00  0.00    +0.000 A 
ATOM     13  C   UNL     1       4.750   3.994  16.558  0.00  0.00    +0.000 A 
ATOM     14  C   UNL     1       4.468   4.083  17.911  0.00  0.00    +0.000 A 
ATOM     15  C   UNL     1       3.142   3.755  18.503  0.00  0.00    +0.000 C 
ATOM     16  O   UNL     1       2.378   2.928  18.033  0.00  0.00    +0.000 OA
BRANCH  12  17
ATOM     17  C   UNL     1       5.736   5.044  14.505  0.00  0.00    +0.000 C 
ATOM     18  F   UNL     1       7.040   4.973  14.108  0.00  0.00    +0.000 F 
ATOM     19  F   UNL     1       5.102   4.034  13.846  0.00  0.00    +0.000 F 
ENDBRANCH  12  17
ENDBRANCH   5   7
BRANCH   1  20
ATOM     20  C   UNL     1       1.018   9.223  20.799  0.00  0.00    +0.000 C 
ATOM     21  C   UNL     1      -0.325   8.729  21.421  0.00  0.00    +0.000 C 
ATOM     22  O   UNL     1       0.194   8.842  22.762  0.00  0.00    +0.000 OA
ATOM     23  C   UNL     1       1.524   9.088  22.259  0.00  0.00    +0.000 C 
BRANCH  20  24
ATOM     24  C   UNL     1       0.858  10.671  20.292  0.00  0.00    +0.000 C 
BRANCH  24  30
ATOM     25  C   UNL     1      -1.065  10.145  17.801  0.00  0.00    +0.000 C 
ATOM     26  N   UNL     1      -1.321  10.961  18.958  0.00  0.00    +0.000 N 
ATOM     27  C   UNL     1      -2.434  11.732  19.126  0.00  0.00    +0.000 A 
ATOM     28  N   UNL     1      -2.344  12.391  20.254  0.00  0.00    +0.000 NA
ATOM     29  N   UNL     1      -1.138  12.068  20.825  0.00  0.00    +0.000 NA
ATOM     30  C   UNL     1      -0.526  11.185  20.057  0.00  0.00    +0.000 A 
ENDBRANCH  24  30
ENDBRANCH  20  24
ENDBRANCH   1  20
TORSDOF 5
ENDMDL
MODEL 5
REMARK VINA RESULT:      -8.2      3.507      4.861
REMARK  Name = 
REMARK  6 active torsions:
REMARK  status: ('A' for Active; 'I' for Inactive)
REMARK    1  A    between atoms: C_1  and  N_2
REMARK    2  A    between atoms: C_6  and  C_7
REMARK    3  A    between atoms: C_7  and  C_8
REMARK    4  A    between atoms: C_8  and  C_9
REMARK    5  A    between atoms: C_13  and  N_14
REMARK    6  A    between atoms: C_19  and  C_20
REMARK                            x       y       z     vdW  Elec       q    Type
REMARK                         _______ _______ _______ _____ _____    ______ ____
ROOT
ATOM      1  C   UNL     1       1.832   7.242  20.325  0.00  0.00    +0.000 A 
ATOM      2  C   UNL     1       1.584   6.071  21.069  0.00  0.00    +0.000 A 
ATOM      3  C   UNL     1       2.347   4.919  20.902  0.00  0.00    +0.000 A 
ATOM      4  C   UNL     1       3.292   4.862  19.889  0.00  0.00    +0.000 A 
ATOM      5  C   UNL     1       3.334   5.889  18.936  0.00  0.00    +0.000 A 
ATOM      6  C   UNL     1       2.731   7.114  19.246  0.00  0.00    +0.000 A 
ENDROOT
BRANCH   5   7
ATOM      7  N   UNL     1       3.536   5.566  17.522  0.00  0.00    +0.000 N 
ATOM      8  C   UNL     1       4.514   4.447  17.411  0.00  0.00    +0.000 C 
ATOM      9  C   UNL     1       5.814   5.193  17.409  0.00  0.00    +0.000 A 
ATOM     10  C   UNL     1       6.945   4.959  18.171  0.00  0.00    +0.000 A 
ATOM     11  C   UNL     1       7.827   6.029  18.375  0.00  0.00    +0.000 A 
ATOM     12  C   UNL     1       7.586   7.305  17.808  0.00  0.00    +0.000 A 
ATOM     13  C   UNL     1       6.463   7.504  16.991  0.00  0.00    +0.000 A 
ATOM     14  C   UNL     1       5.582   6.446  16.842  0.00  0.00    +0.000 A 
ATOM     15  C   UNL     1       4.105   6.607  16.745  0.00  0.00    +0.000 C 
ATOM     16  O   UNL     1       3.562   7.592  16.276  0.00  0.00    +0.000 OA
BRANCH  12  17
ATOM     17  C   UNL     1       8.435   8.493  18.183  0.00  0.00    +0.000 C 
ATOM     18  F   UNL     1       7.726   9.659  18.156  0.00  0.00    +0.000 F 
ATOM     19  F   UNL     1       8.956   8.416  19.440  0.00  0.00    +0.000 F 
ENDBRANCH  12  17
ENDBRANCH   5   7
BRANCH   1  20
ATOM     20  C   UNL     1       1.158   8.643  20.705  0.00  0.00    +0.000 C 
ATOM     21  C   UNL     1      -0.271   8.530  21.320  0.00  0.00    +0.000 C 
ATOM     22  O   UNL     1       0.124   9.250  22.505  0.00  0.00    +0.000 OA
ATOM     23  C   UNL     1       1.511   9.202  22.107  0.00  0.00    +0.000 C 
BRANCH  20  24
ATOM     24  C   UNL     1       1.155   9.683  19.567  0.00  0.00    +0.000 C 
BRANCH  24  30
ATOM     25  C   UNL     1       0.298  12.426  20.954  0.00  0.00    +0.000 C 
ATOM     26  N   UNL     1      -0.438  11.657  19.987  0.00  0.00    +0.000 N 
ATOM     27  C   UNL     1      -1.703  11.954  19.569  0.00  0.00    +0.000 A 
ATOM     28  N   UNL     1      -2.112  11.038  18.727  0.00  0.00    +0.000 NA
ATOM     29  N   UNL     1      -1.109  10.108  18.612  0.00  0.00    +0.000 NA
ATOM     30  C   UNL     1      -0.086  10.490  19.353  0.00  0.00    +0.000 A 
ENDBRANCH  24  30
ENDBRANCH  20  24
ENDBRANCH   1  20
TORSDOF 5
ENDMDL
MODEL 6
REMARK VINA RESULT:      -8.2      3.532      4.961
REMARK  Name = 
REMARK  6 active torsions:
REMARK  status: ('A' for Active; 'I' for Inactive)
REMARK    1  A    between atoms: C_1  and  N_2
REMARK    2  A    between atoms: C_6  and  C_7
REMARK    3  A    between atoms: C_7  and  C_8
REMARK    4  A    between atoms: C_8  and  C_9
REMARK    5  A    between atoms: C_13  and  N_14
REMARK    6  A    between atoms: C_19  and  C_20
REMARK                            x       y       z     vdW  Elec       q    Type
REMARK                         _______ _______ _______ _____ _____    ______ ____
ROOT
ATOM      1  C   UNL     1       1.743   7.265  20.396  0.00  0.00    +0.000 A 
ATOM      2  C   UNL     1       1.534   6.083  21.134  0.00  0.00    +0.000 A 
ATOM      3  C   UNL     1       2.309   4.944  20.932  0.00  0.00    +0.000 A 
ATOM      4  C   UNL     1       3.224   4.912  19.891  0.00  0.00    +0.000 A 
ATOM      5  C   UNL     1       3.223   5.950  18.949  0.00  0.00    +0.000 A 
ATOM      6  C   UNL     1       2.611   7.163  19.290  0.00  0.00    +0.000 A 
ENDROOT
BRANCH   5   7
ATOM      7  N   UNL     1       3.388   5.645  17.525  0.00  0.00    +0.000 N 
ATOM      8  C   UNL     1       4.313   4.487  17.378  0.00  0.00    +0.000 C 
ATOM      9  C   UNL     1       5.645   5.176  17.367  0.00  0.00    +0.000 A 
ATOM     10  C   UNL     1       6.777   4.879  18.106  0.00  0.00    +0.000 A 
ATOM     11  C   UNL     1       7.707   5.906  18.314  0.00  0.00    +0.000 A 
ATOM     12  C   UNL     1       7.513   7.202  17.774  0.00  0.00    +0.000 A 
ATOM     13  C   UNL     1       6.387   7.464  16.979  0.00  0.00    +0.000 A 
ATOM     14  C   UNL     1       5.458   6.448  16.827  0.00  0.00    +0.000 A 
ATOM     15  C   UNL     1       3.988   6.674  16.758  0.00  0.00    +0.000 C 
ATOM     16  O   UNL     1       3.481   7.691  16.316  0.00  0.00    +0.000 OA
BRANCH  12  17
ATOM     17  C   UNL     1       8.419   8.345  18.156  0.00  0.00    +0.000 C 
ATOM     18  F   UNL     1       7.762   9.541  18.159  0.00  0.00    +0.000 F 
ATOM     19  F   UNL     1       8.954   8.223  19.403  0.00  0.00    +0.000 F 
ENDBRANCH  12  17
ENDBRANCH   5   7
BRANCH   1  20
ATOM     20  C   UNL     1       1.059   8.652  20.810  0.00  0.00    +0.000 C 
ATOM     21  C   UNL     1      -0.365   8.513  21.432  0.00  0.00    +0.000 C 
ATOM     22  O   UNL     1       0.032   9.211  22.629  0.00  0.00    +0.000 OA
ATOM     23  C   UNL     1       1.416   9.183  22.223  0.00  0.00    +0.000 C 
BRANCH  20  24
ATOM     24  C   UNL     1       1.041   9.717  19.695  0.00  0.00    +0.000 C 
BRANCH  24  30
ATOM     25  C   UNL     1      -1.443   9.935  17.704  0.00  0.00    +0.000 C 
ATOM     26  N   UNL     1      -1.115  10.800  18.805  0.00  0.00    +0.000 N 
ATOM     27  C   UNL     1      -1.798  11.939  19.120  0.00  0.00    +0.000 A 
ATOM     28  N   UNL     1      -1.222  12.527  20.139  0.00  0.00    +0.000 NA
ATOM     29  N   UNL     1      -0.126  11.775  20.483  0.00  0.00    +0.000 NA
ATOM     30  C   UNL     1      -0.071  10.717  19.695  0.00  0.00    +0.000 A 
ENDBRANCH  24  30
ENDBRANCH  20  24
ENDBRANCH   1  20
TORSDOF 5
ENDMDL
MODEL 7
REMARK VINA RESULT:      -8.2      3.561      7.190
REMARK  Name = 
REMARK  6 active torsions:
REMARK  status: ('A' for Active; 'I' for Inactive)
REMARK    1  A    between atoms: C_1  and  N_2
REMARK    2  A    between atoms: C_6  and  C_7
REMARK    3  A    between atoms: C_7  and  C_8
REMARK    4  A    between atoms: C_8  and  C_9
REMARK    5  A    between atoms: C_13  and  N_14
REMARK    6  A    between atoms: C_19  and  C_20
REMARK                            x       y       z     vdW  Elec       q    Type
REMARK                         _______ _______ _______ _____ _____    ______ ____
ROOT
ATOM      1  C   UNL     1       5.318   4.098  17.833  0.00  0.00    +0.000 A 
ATOM      2  C   UNL     1       5.811   4.358  19.128  0.00  0.00    +0.000 A 
ATOM      3  C   UNL     1       5.497   3.542  20.210  0.00  0.00    +0.000 A 
ATOM      4  C   UNL     1       4.571   2.521  20.056  0.00  0.00    +0.000 A 
ATOM      5  C   UNL     1       3.830   2.446  18.868  0.00  0.00    +0.000 A 
ATOM      6  C   UNL     1       4.310   3.116  17.736  0.00  0.00    +0.000 A 
ENDROOT
BRANCH   5   7
ATOM      7  N   UNL     1       2.401   2.125  18.917  0.00  0.00    +0.000 N 
ATOM      8  C   UNL     1       1.725   2.726  17.733  0.00  0.00    +0.000 C 
ATOM      9  C   UNL     1       1.417   4.102  18.240  0.00  0.00    +0.000 A 
ATOM     10  C   UNL     1       1.664   5.322  17.633  0.00  0.00    +0.000 A 
ATOM     11  C   UNL     1       1.758   6.452  18.456  0.00  0.00    +0.000 A 
ATOM     12  C   UNL     1       1.588   6.362  19.860  0.00  0.00    +0.000 A 
ATOM     13  C   UNL     1       1.280   5.126  20.447  0.00  0.00    +0.000 A 
ATOM     14  C   UNL     1       1.238   4.015  19.621  0.00  0.00    +0.000 A 
ATOM     15  C   UNL     1       1.706   2.662  20.029  0.00  0.00    +0.000 C 
ATOM     16  O   UNL     1       1.672   2.254  21.177  0.00  0.00    +0.000 OA
BRANCH  12  17
ATOM     17  C   UNL     1       1.874   7.543  20.753  0.00  0.00    +0.000 C 
ATOM     18  F   UNL     1       1.913   8.716  20.055  0.00  0.00    +0.000 F 
ATOM     19  F   UNL     1       0.936   7.732  21.723  0.00  0.00    +0.000 F 
ENDBRANCH  12  17
ENDBRANCH   5   7
BRANCH   1  20
ATOM     20  C   UNL     1       5.893   4.851  16.543  0.00  0.00    +0.000 C 
ATOM     21  C   UNL     1       4.962   5.967  15.975  0.00  0.00    +0.000 C 
ATOM     22  O   UNL     1       5.997   6.964  16.094  0.00  0.00    +0.000 OA
ATOM     23  C   UNL     1       6.837   6.048  16.828  0.00  0.00    +0.000 C 
BRANCH  20  24
ATOM     24  C   UNL     1       6.345   3.917  15.402  0.00  0.00    +0.000 C 
BRANCH  24  30
ATOM     25  C   UNL     1       5.666   3.247  12.358  0.00  0.00    +0.000 C 
ATOM     26  N   UNL     1       6.609   4.209  12.861  0.00  0.00    +0.000 N 
ATOM     27  C   UNL     1       7.449   4.946  12.079  0.00  0.00    +0.000 A 
ATOM     28  N   UNL     1       8.215   5.689  12.838  0.00  0.00    +0.000 NA
ATOM     29  N   UNL     1       7.891   5.416  14.143  0.00  0.00    +0.000 NA
ATOM     30  C   UNL     1       6.904   4.540  14.163  0.00  0.00    +0.000 A 
ENDBRANCH  24  30
ENDBRANCH  20  24
ENDBRANCH   1  20
TORSDOF 5
ENDMDL
MODEL 8
REMARK VINA RESULT:      -8.1      9.052     11.720
REMARK  Name = 
REMARK  6 active torsions:
REMARK  status: ('A' for Active; 'I' for Inactive)
REMARK    1  A    between atoms: C_1  and  N_2
REMARK    2  A    between atoms: C_6  and  C_7
REMARK    3  A    between atoms: C_7  and  C_8
REMARK    4  A    between atoms: C_8  and  C_9
REMARK    5  A    between atoms: C_13  and  N_14
REMARK    6  A    between atoms: C_19  and  C_20
REMARK                            x       y       z     vdW  Elec       q    Type
REMARK                         _______ _______ _______ _____ _____    ______ ____
ROOT
ATOM      1  C   UNL     1      -3.804  11.375  18.099  0.00  0.00    +0.000 A 
ATOM      2  C   UNL     1      -3.667  10.656  16.894  0.00  0.00    +0.000 A 
ATOM      3  C   UNL     1      -2.536   9.893  16.618  0.00  0.00    +0.000 A 
ATOM      4  C   UNL     1      -1.450   9.937  17.481  0.00  0.00    +0.000 A 
ATOM      5  C   UNL     1      -1.436  10.887  18.511  0.00  0.00    +0.000 A 
ATOM      6  C   UNL     1      -2.647  11.471  18.900  0.00  0.00    +0.000 A 
ENDROOT
BRANCH   5   7
ATOM      7  N   UNL     1      -0.199  11.607  18.823  0.00  0.00    +0.000 N 
ATOM      8  C   UNL     1       0.591  10.820  19.811  0.00  0.00    +0.000 C 
ATOM      9  C   UNL     1       0.004  11.300  21.104  0.00  0.00    +0.000 A 
ATOM     10  C   UNL     1      -0.456  10.553  22.175  0.00  0.00    +0.000 A 
ATOM     11  C   UNL     1      -1.388  11.150  23.033  0.00  0.00    +0.000 A 
ATOM     12  C   UNL     1      -1.836  12.479  22.830  0.00  0.00    +0.000 A 
ATOM     13  C   UNL     1      -1.313  13.239  21.773  0.00  0.00    +0.000 A 
ATOM     14  C   UNL     1      -0.428  12.612  20.911  0.00  0.00    +0.000 A 
ATOM     15  C   UNL     1      -0.381  12.868  19.445  0.00  0.00    +0.000 C 
ATOM     16  O   UNL     1      -0.683  13.934  18.935  0.00  0.00    +0.000 OA
BRANCH  12  17
ATOM     17  C   UNL     1      -2.972  13.048  23.644  0.00  0.00    +0.000 C 
ATOM     18  F   UNL     1      -3.296  14.316  23.256  0.00  0.00    +0.000 F 
ATOM     19  F   UNL     1      -4.127  12.332  23.541  0.00  0.00    +0.000 F 
ENDBRANCH  12  17
ENDBRANCH   5   7
BRANCH   1  20
ATOM     20  C   UNL     1      -5.200  12.017  18.546  0.00  0.00    +0.000 C 
ATOM     21  C   UNL     1      -5.941  12.806  17.423  0.00  0.00    +0.000 C 
ATOM     22  O   UNL     1      -7.125  11.993  17.560  0.00  0.00    +0.000 OA
ATOM     23  C   UNL     1      -6.434  11.083  18.442  0.00  0.00    +0.000 C 
BRANCH  20  24
ATOM     24  C   UNL     1      -5.133  12.871  19.828  0.00  0.00    +0.000 C 
BRANCH  24  30
ATOM     25  C   UNL     1      -6.495  14.937  21.843  0.00  0.00    +0.000 C 
ATOM     26  N   UNL     1      -6.681  13.512  21.778  0.00  0.00    +0.000 N 
ATOM     27  C   UNL     1      -7.432  12.793  22.662  0.00  0.00    +0.000 A 
ATOM     28  N   UNL     1      -7.360  11.520  22.363  0.00  0.00    +0.000 NA
ATOM     29  N   UNL     1      -6.526  11.398  21.280  0.00  0.00    +0.000 NA
ATOM     30  C   UNL     1      -6.131  12.602  20.907  0.00  0.00    +0.000 A 
ENDBRANCH  24  30
ENDBRANCH  20  24
ENDBRANCH   1  20
TORSDOF 5
ENDMDL
MODEL 9
REMARK VINA RESULT:      -8.1      3.715      5.167
REMARK  Name = 
REMARK  6 active torsions:
REMARK  status: ('A' for Active; 'I' for Inactive)
REMARK    1  A    between atoms: C_1  and  N_2
REMARK    2  A    between atoms: C_6  and  C_7
REMARK    3  A    between atoms: C_7  and  C_8
REMARK    4  A    between atoms: C_8  and  C_9
REMARK    5  A    between atoms: C_13  and  N_14
REMARK    6  A    between atoms: C_19  and  C_20
REMARK                            x       y       z     vdW  Elec       q    Type
REMARK                         _______ _______ _______ _____ _____    ______ ____
ROOT
ATOM      1  C   UNL     1       2.201   7.390  19.180  0.00  0.00    +0.000 A 
ATOM      2  C   UNL     1       1.709   6.396  20.050  0.00  0.00    +0.000 A 
ATOM      3  C   UNL     1       2.464   5.275  20.386  0.00  0.00    +0.000 A 
ATOM      4  C   UNL     1       3.677   5.049  19.754  0.00  0.00    +0.000 A 
ATOM      5  C   UNL     1       4.035   5.848  18.659  0.00  0.00    +0.000 A 
ATOM      6  C   UNL     1       3.389   7.078  18.489  0.00  0.00    +0.000 A 
ENDROOT
BRANCH   5   7
ATOM      7  N   UNL     1       4.664   5.238  17.485  0.00  0.00    +0.000 N 
ATOM      8  C   UNL     1       5.809   4.393  17.927  0.00  0.00    +0.000 C 
ATOM      9  C   UNL     1       6.916   5.402  17.975  0.00  0.00    +0.000 A 
ATOM     10  C   UNL     1       7.822   5.643  18.993  0.00  0.00    +0.000 A 
ATOM     11  C   UNL     1       8.422   6.907  19.046  0.00  0.00    +0.000 A 
ATOM     12  C   UNL     1       8.133   7.905  18.083  0.00  0.00    +0.000 A 
ATOM     13  C   UNL     1       7.256   7.620  17.025  0.00  0.00    +0.000 A 
ATOM     14  C   UNL     1       6.639   6.380  17.020  0.00  0.00    +0.000 A 
ATOM     15  C   UNL     1       5.238   6.155  16.569  0.00  0.00    +0.000 C 
ATOM     16  O   UNL     1       4.684   6.832  15.720  0.00  0.00    +0.000 OA
BRANCH  12  17
ATOM     17  C   UNL     1       8.637   9.317  18.252  0.00  0.00    +0.000 C 
ATOM     18  F   UNL     1       7.737  10.240  17.803  0.00  0.00    +0.000 F 
ATOM     19  F   UNL     1       8.885   9.655  19.548  0.00  0.00    +0.000 F 
ENDBRANCH  12  17
ENDBRANCH   5   7
BRANCH   1  20
ATOM     20  C   UNL     1       1.469   8.803  19.013  0.00  0.00    +0.000 C 
ATOM     21  C   UNL     1       2.413   9.981  18.619  0.00  0.00    +0.000 C 
ATOM     22  O   UNL     1       1.634  10.282  17.443  0.00  0.00    +0.000 OA
ATOM     23  C   UNL     1       0.853   9.081  17.617  0.00  0.00    +0.000 C 
BRANCH  20  24
ATOM     24  C   UNL     1       0.589   9.216  20.210  0.00  0.00    +0.000 C 
BRANCH  24  30
ATOM     25  C   UNL     1      -1.412  11.389  19.002  0.00  0.00    +0.000 C 
ATOM     26  N   UNL     1      -0.374  11.589  19.978  0.00  0.00    +0.000 N 
ATOM     27  C   UNL     1      -0.021  12.804  20.488  0.00  0.00    +0.000 A 
ATOM     28  N   UNL     1       0.986  12.657  21.312  0.00  0.00    +0.000 NA
ATOM     29  N   UNL     1       1.318  11.325  21.323  0.00  0.00    +0.000 NA
ATOM     30  C   UNL     1       0.483  10.671  20.537  0.00  0.00    +0.000 A 
ENDBRANCH  24  30
ENDBRANCH  20  24
ENDBRANCH   1  20
TORSDOF 5
ENDMDL
