MODEL 1
REMARK VINA RESULT:      -8.7      0.000      0.000
REMARK  Name = 
REMARK  4 active torsions:
REMARK  status: ('A' for Active; 'I' for Inactive)
REMARK    1  A    between atoms: C_2  and  C_18
REMARK    2  A    between atoms: N_3  and  C_4
REMARK    3  A    between atoms: C_7  and  C_8
REMARK    4  A    between atoms: C_10  and  C_11
REMARK                            x       y       z     vdW  Elec       q    Type
REMARK                         _______ _______ _______ _____ _____    ______ ____
ROOT
ATOM      1  C   UNL     1       2.303   7.800  18.922  0.00  0.00    +0.000 A 
ATOM      2  C   UNL     1       1.764   8.996  18.453  0.00  0.00    +0.000 A 
ATOM      3  C   UNL     1       0.922   9.762  19.266  0.00  0.00    +0.000 A 
ATOM      4  C   UNL     1       0.608   9.352  20.570  0.00  0.00    +0.000 A 
ATOM      5  C   UNL     1       1.111   8.127  21.019  0.00  0.00    +0.000 A 
ATOM      6  C   UNL     1       1.946   7.354  20.199  0.00  0.00    +0.000 A 
ENDROOT
BRANCH   4   7
ATOM      7  C   UNL     1      -0.211  10.194  21.443  0.00  0.00    +0.000 A 
ATOM      8  N   UNL     1      -0.977  11.221  21.120  0.00  0.00    +0.000 NA
ATOM      9  C   UNL     1      -1.479  11.643  22.329  0.00  0.00    +0.000 A 
ATOM     10  N   UNL     1      -1.107  10.904  23.378  0.00  0.00    +0.000 NA
ATOM     11  N   UNL     1      -0.319   9.995  22.794  0.00  0.00    +0.000 N 
ATOM     12  H   UNL     1       0.110   9.275  23.362  0.00  0.00    +0.000 HD
BRANCH   9  13
ATOM     13  C   UNL     1      -2.363  12.865  22.517  0.00  0.00    +0.000 C 
ATOM     14  C   UNL     1      -3.380  12.898  23.636  0.00  0.00    +0.000 C 
ATOM     15  C   UNL     1      -3.845  12.732  22.230  0.00  0.00    +0.000 C 
ENDBRANCH   9  13
ENDBRANCH   4   7
BRANCH   1  18
ATOM     16  O   UNL     1       4.022   5.558  19.797  0.00  0.00    +0.000 OA
ATOM     17  C   UNL     1       4.002   6.000  18.651  0.00  0.00    +0.000 C 
ATOM     18  N   UNL     1       3.189   7.006  18.164  0.00  0.00    +0.000 N 
ATOM     19  H   UNL     1       3.099   7.077  17.158  0.00  0.00    +0.000 HD
BRANCH  17  20
ATOM     20  C   UNL     1       4.853   5.329  17.643  0.00  0.00    +0.000 A 
ATOM     21  C   UNL     1       4.404   4.974  16.359  0.00  0.00    +0.000 A 
ATOM     22  C   UNL     1       5.259   4.347  15.446  0.00  0.00    +0.000 A 
ATOM     23  C   UNL     1       6.590   4.058  15.783  0.00  0.00    +0.000 A 
ATOM     24  C   UNL     1       7.051   4.417  17.057  0.00  0.00    +0.000 A 
ATOM     25  N   UNL     1       8.275   4.259  17.651  0.00  0.00    +0.000 NA
ATOM     26  N   UNL     1       8.206   4.762  18.878  0.00  0.00    +0.000 NA
ATOM     27  N   UNL     1       6.962   5.241  19.049  0.00  0.00    +0.000 N 
ATOM     28  C   UNL     1       6.187   5.040  17.941  0.00  0.00    +0.000 A 
ATOM     29  H   UNL     1       6.707   5.683  19.927  0.00  0.00    +0.000 HD
ENDBRANCH  17  20
ENDBRANCH   1  18
TORSDOF 4
ENDMDL
MODEL 2
REMARK VINA RESULT:      -8.5      0.971      1.395
REMARK  Name = 
REMARK  4 active torsions:
REMARK  status: ('A' for Active; 'I' for Inactive)
REMARK    1  A    between atoms: C_2  and  C_18
REMARK    2  A    between atoms: N_3  and  C_4
REMARK    3  A    between atoms: C_7  and  C_8
REMARK    4  A    between atoms: C_10  and  C_11
REMARK                            x       y       z     vdW  Elec       q    Type
REMARK                         _______ _______ _______ _____ _____    ______ ____
ROOT
ATOM      1  C   UNL     1       2.409   8.158  18.545  0.00  0.00    +0.000 A 
ATOM      2  C   UNL     1       1.738   9.126  17.801  0.00  0.00    +0.000 A 
ATOM      3  C   UNL     1       0.755   9.924  18.397  0.00  0.00    +0.000 A 
ATOM      4  C   UNL     1       0.429   9.777  19.753  0.00  0.00    +0.000 A 
ATOM      5  C   UNL     1       1.069   8.771  20.483  0.00  0.00    +0.000 A 
ATOM      6  C   UNL     1       2.046   7.963  19.882  0.00  0.00    +0.000 A 
ENDROOT
BRANCH   4   7
ATOM      7  C   UNL     1      -0.544  10.664  20.390  0.00  0.00    +0.000 A 
ATOM      8  N   UNL     1      -0.725  10.906  21.677  0.00  0.00    +0.000 NA
ATOM      9  C   UNL     1      -1.782  11.785  21.696  0.00  0.00    +0.000 A 
ATOM     10  N   UNL     1      -2.234  12.143  20.491  0.00  0.00    +0.000 NA
ATOM     11  N   UNL     1      -1.435  11.432  19.688  0.00  0.00    +0.000 N 
ATOM     12  H   UNL     1      -1.544  11.514  18.684  0.00  0.00    +0.000 HD
BRANCH   9  13
ATOM     13  C   UNL     1      -2.442  12.314  22.959  0.00  0.00    +0.000 C 
ATOM     14  C   UNL     1      -3.289  13.566  22.902  0.00  0.00    +0.000 C 
ATOM     15  C   UNL     1      -1.943  13.624  23.537  0.00  0.00    +0.000 C 
ENDBRANCH   9  13
ENDBRANCH   4   7
BRANCH   1  18
ATOM     16  O   UNL     1       2.435   5.240  18.061  0.00  0.00    +0.000 OA
ATOM     17  C   UNL     1       3.395   5.978  17.856  0.00  0.00    +0.000 C 
ATOM     18  N   UNL     1       3.435   7.351  18.010  0.00  0.00    +0.000 N 
ATOM     19  H   UNL     1       4.196   7.842  17.558  0.00  0.00    +0.000 HD
BRANCH  17  20
ATOM     20  C   UNL     1       4.617   5.370  17.283  0.00  0.00    +0.000 A 
ATOM     21  C   UNL     1       4.716   4.931  15.951  0.00  0.00    +0.000 A 
ATOM     22  C   UNL     1       5.902   4.369  15.464  0.00  0.00    +0.000 A 
ATOM     23  C   UNL     1       7.028   4.233  16.291  0.00  0.00    +0.000 A 
ATOM     24  C   UNL     1       6.944   4.677  17.617  0.00  0.00    +0.000 A 
ATOM     25  N   UNL     1       7.864   4.666  18.631  0.00  0.00    +0.000 NA
ATOM     26  N   UNL     1       7.297   5.197  19.709  0.00  0.00    +0.000 NA
ATOM     27  N   UNL     1       6.043   5.547  19.373  0.00  0.00    +0.000 N 
ATOM     28  C   UNL     1       5.761   5.232  18.074  0.00  0.00    +0.000 A 
ATOM     29  H   UNL     1       5.440   5.986  20.062  0.00  0.00    +0.000 HD
ENDBRANCH  17  20
ENDBRANCH   1  18
TORSDOF 4
ENDMDL
MODEL 3
REMARK VINA RESULT:      -8.3      1.089      1.094
REMARK  Name = 
REMARK  4 active torsions:
REMARK  status: ('A' for Active; 'I' for Inactive)
REMARK    1  A    between atoms: C_2  and  C_18
REMARK    2  A    between atoms: N_3  and  C_4
REMARK    3  A    between atoms: C_7  and  C_8
REMARK    4  A    between atoms: C_10  and  C_11
REMARK                            x       y       z     vdW  Elec       q    Type
REMARK                         _______ _______ _______ _____ _____    ______ ____
ROOT
ATOM      1  C   UNL     1       2.136   7.883  18.881  0.00  0.00    +0.000 A 
ATOM      2  C   UNL     1       1.546   9.049  18.396  0.00  0.00    +0.000 A 
ATOM      3  C   UNL     1       0.740   9.835  19.226  0.00  0.00    +0.000 A 
ATOM      4  C   UNL     1       0.514   9.478  20.563  0.00  0.00    +0.000 A 
ATOM      5  C   UNL     1       1.066   8.282  21.032  0.00  0.00    +0.000 A 
ATOM      6  C   UNL     1       1.865   7.488  20.196  0.00  0.00    +0.000 A 
ENDROOT
BRANCH   4   7
ATOM      7  C   UNL     1      -0.267  10.343  21.448  0.00  0.00    +0.000 A 
ATOM      8  N   UNL     1      -1.091  11.325  21.127  0.00  0.00    +0.000 NA
ATOM      9  C   UNL     1      -1.515  11.802  22.345  0.00  0.00    +0.000 A 
ATOM     10  N   UNL     1      -1.040  11.138  23.403  0.00  0.00    +0.000 NA
ATOM     11  N   UNL     1      -0.265  10.221  22.812  0.00  0.00    +0.000 N 
ATOM     12  H   UNL     1       0.230   9.550  23.385  0.00  0.00    +0.000 HD
BRANCH   9  13
ATOM     13  C   UNL     1      -2.426  13.004  22.532  0.00  0.00    +0.000 C 
ATOM     14  C   UNL     1      -3.312  13.100  23.754  0.00  0.00    +0.000 C 
ATOM     15  C   UNL     1      -3.924  12.795  22.431  0.00  0.00    +0.000 C 
ENDBRANCH   9  13
ENDBRANCH   4   7
BRANCH   1  18
ATOM     16  O   UNL     1       3.732   5.530  19.697  0.00  0.00    +0.000 OA
ATOM     17  C   UNL     1       3.746   6.010  18.566  0.00  0.00    +0.000 C 
ATOM     18  N   UNL     1       2.989   7.071  18.105  0.00  0.00    +0.000 N 
ATOM     19  H   UNL     1       2.914   7.180  17.102  0.00  0.00    +0.000 HD
BRANCH  17  20
ATOM     20  C   UNL     1       4.573   5.331  17.544  0.00  0.00    +0.000 A 
ATOM     21  C   UNL     1       4.225   4.105  16.951  0.00  0.00    +0.000 A 
ATOM     22  C   UNL     1       5.046   3.515  15.983  0.00  0.00    +0.000 A 
ATOM     23  C   UNL     1       6.238   4.133  15.573  0.00  0.00    +0.000 A 
ATOM     24  C   UNL     1       6.589   5.361  16.150  0.00  0.00    +0.000 A 
ATOM     25  N   UNL     1       7.673   6.173  15.951  0.00  0.00    +0.000 NA
ATOM     26  N   UNL     1       7.550   7.229  16.748  0.00  0.00    +0.000 NA
ATOM     27  N   UNL     1       6.399   7.088  17.428  0.00  0.00    +0.000 N 
ATOM     28  C   UNL     1       5.758   5.925  17.103  0.00  0.00    +0.000 A 
ATOM     29  H   UNL     1       6.112   7.805  18.088  0.00  0.00    +0.000 HD
ENDBRANCH  17  20
ENDBRANCH   1  18
TORSDOF 4
ENDMDL
MODEL 4
REMARK VINA RESULT:      -8.3      1.001      1.074
REMARK  Name = 
REMARK  4 active torsions:
REMARK  status: ('A' for Active; 'I' for Inactive)
REMARK    1  A    between atoms: C_2  and  C_18
REMARK    2  A    between atoms: N_3  and  C_4
REMARK    3  A    between atoms: C_7  and  C_8
REMARK    4  A    between atoms: C_10  and  C_11
REMARK                            x       y       z     vdW  Elec       q    Type
REMARK                         _______ _______ _______ _____ _____    ______ ____
ROOT
ATOM      1  C   UNL     1       2.460   8.126  18.515  0.00  0.00    +0.000 A 
ATOM      2  C   UNL     1       1.794   9.127  17.809  0.00  0.00    +0.000 A 
ATOM      3  C   UNL     1       0.825   9.914  18.439  0.00  0.00    +0.000 A 
ATOM      4  C   UNL     1       0.505   9.724  19.792  0.00  0.00    +0.000 A 
ATOM      5  C   UNL     1       1.139   8.686  20.482  0.00  0.00    +0.000 A 
ATOM      6  C   UNL     1       2.103   7.889  19.848  0.00  0.00    +0.000 A 
ENDROOT
BRANCH   4   7
ATOM      7  C   UNL     1      -0.454  10.599  20.466  0.00  0.00    +0.000 A 
ATOM      8  N   UNL     1      -1.315  11.447  19.932  0.00  0.00    +0.000 NA
ATOM      9  C   UNL     1      -1.929  12.014  21.024  0.00  0.00    +0.000 A 
ATOM     10  N   UNL     1      -1.533  11.528  22.204  0.00  0.00    +0.000 NA
ATOM     11  N   UNL     1      -0.612  10.635  21.826  0.00  0.00    +0.000 N 
ATOM     12  H   UNL     1      -0.135  10.088  22.532  0.00  0.00    +0.000 HD
BRANCH   9  13
ATOM     13  C   UNL     1      -2.959  13.130  20.953  0.00  0.00    +0.000 C 
ATOM     14  C   UNL     1      -3.915  13.352  22.104  0.00  0.00    +0.000 C 
ATOM     15  C   UNL     1      -4.423  12.752  20.838  0.00  0.00    +0.000 C 
ENDBRANCH   9  13
ENDBRANCH   4   7
BRANCH   1  18
ATOM     16  O   UNL     1       2.549   5.191  18.155  0.00  0.00    +0.000 OA
ATOM     17  C   UNL     1       3.468   5.948  17.853  0.00  0.00    +0.000 C 
ATOM     18  N   UNL     1       3.474   7.327  17.946  0.00  0.00    +0.000 N 
ATOM     19  H   UNL     1       4.186   7.820  17.422  0.00  0.00    +0.000 HD
BRANCH  17  20
ATOM     20  C   UNL     1       4.668   5.351  17.224  0.00  0.00    +0.000 A 
ATOM     21  C   UNL     1       4.722   4.950  15.878  0.00  0.00    +0.000 A 
ATOM     22  C   UNL     1       5.888   4.398  15.337  0.00  0.00    +0.000 A 
ATOM     23  C   UNL     1       7.040   4.233  16.122  0.00  0.00    +0.000 A 
ATOM     24  C   UNL     1       7.001   4.640  17.463  0.00  0.00    +0.000 A 
ATOM     25  N   UNL     1       7.953   4.597  18.446  0.00  0.00    +0.000 NA
ATOM     26  N   UNL     1       7.424   5.099  19.556  0.00  0.00    +0.000 NA
ATOM     27  N   UNL     1       6.161   5.464  19.271  0.00  0.00    +0.000 N 
ATOM     28  C   UNL     1       5.836   5.187  17.973  0.00  0.00    +0.000 A 
ATOM     29  H   UNL     1       5.583   5.885  19.991  0.00  0.00    +0.000 HD
ENDBRANCH  17  20
ENDBRANCH   1  18
TORSDOF 4
ENDMDL
MODEL 5
REMARK VINA RESULT:      -8.3      2.592      3.357
REMARK  Name = 
REMARK  4 active torsions:
REMARK  status: ('A' for Active; 'I' for Inactive)
REMARK    1  A    between atoms: C_2  and  C_18
REMARK    2  A    between atoms: N_3  and  C_4
REMARK    3  A    between atoms: C_7  and  C_8
REMARK    4  A    between atoms: C_10  and  C_11
REMARK                            x       y       z     vdW  Elec       q    Type
REMARK                         _______ _______ _______ _____ _____    ______ ____
ROOT
ATOM      1  C   UNL     1       1.244   8.922  20.245  0.00  0.00    +0.000 A 
ATOM      2  C   UNL     1       1.163   8.858  21.634  0.00  0.00    +0.000 A 
ATOM      3  C   UNL     1       0.466   9.838  22.350  0.00  0.00    +0.000 A 
ATOM      4  C   UNL     1      -0.172  10.899  21.690  0.00  0.00    +0.000 A 
ATOM      5  C   UNL     1      -0.045  10.987  20.301  0.00  0.00    +0.000 A 
ATOM      6  C   UNL     1       0.662  10.011  19.584  0.00  0.00    +0.000 A 
ENDROOT
BRANCH   4   7
ATOM      7  C   UNL     1      -0.962  11.879  22.437  0.00  0.00    +0.000 A 
ATOM      8  N   UNL     1      -2.113  11.708  23.063  0.00  0.00    +0.000 NA
ATOM      9  C   UNL     1      -2.402  12.958  23.556  0.00  0.00    +0.000 A 
ATOM     10  N   UNL     1      -1.469  13.884  23.315  0.00  0.00    +0.000 NA
ATOM     11  N   UNL     1      -0.571  13.179  22.618  0.00  0.00    +0.000 N 
ATOM     12  H   UNL     1       0.275  13.634  22.300  0.00  0.00    +0.000 HD
BRANCH   9  13
ATOM     13  C   UNL     1      -3.679  13.320  24.296  0.00  0.00    +0.000 C 
ATOM     14  C   UNL     1      -4.611  12.229  24.775  0.00  0.00    +0.000 C 
ATOM     15  C   UNL     1      -5.006  13.067  23.608  0.00  0.00    +0.000 C 
ENDBRANCH   9  13
ENDBRANCH   4   7
BRANCH   1  18
ATOM     16  O   UNL     1       1.593   6.033  20.777  0.00  0.00    +0.000 OA
ATOM     17  C   UNL     1       2.064   6.613  19.802  0.00  0.00    +0.000 C 
ATOM     18  N   UNL     1       1.897   7.944  19.466  0.00  0.00    +0.000 N 
ATOM     19  H   UNL     1       2.119   8.209  18.515  0.00  0.00    +0.000 HD
BRANCH  17  20
ATOM     20  C   UNL     1       2.805   5.799  18.813  0.00  0.00    +0.000 A 
ATOM     21  C   UNL     1       3.995   6.220  18.194  0.00  0.00    +0.000 A 
ATOM     22  C   UNL     1       4.655   5.401  17.271  0.00  0.00    +0.000 A 
ATOM     23  C   UNL     1       4.150   4.134  16.939  0.00  0.00    +0.000 A 
ATOM     24  C   UNL     1       2.970   3.700  17.558  0.00  0.00    +0.000 A 
ATOM     25  N   UNL     1       2.258   2.538  17.426  0.00  0.00    +0.000 NA
ATOM     26  N   UNL     1       1.200   2.609  18.228  0.00  0.00    +0.000 NA
ATOM     27  N   UNL     1       1.254   3.793  18.862  0.00  0.00    +0.000 N 
ATOM     28  C   UNL     1       2.338   4.527  18.471  0.00  0.00    +0.000 A 
ATOM     29  H   UNL     1       0.534   4.037  19.536  0.00  0.00    +0.000 HD
ENDBRANCH  17  20
ENDBRANCH   1  18
TORSDOF 4
ENDMDL
MODEL 6
REMARK VINA RESULT:      -8.3      2.314     10.137
REMARK  Name = 
REMARK  4 active torsions:
REMARK  status: ('A' for Active; 'I' for Inactive)
REMARK    1  A    between atoms: C_2  and  C_18
REMARK    2  A    between atoms: N_3  and  C_4
REMARK    3  A    between atoms: C_7  and  C_8
REMARK    4  A    between atoms: C_10  and  C_11
REMARK                            x       y       z     vdW  Elec       q    Type
REMARK                         _______ _______ _______ _____ _____    ______ ____
ROOT
ATOM      1  C   UNL     1       2.747   7.303  18.911  0.00  0.00    +0.000 A 
ATOM      2  C   UNL     1       3.150   5.974  19.030  0.00  0.00    +0.000 A 
ATOM      3  C   UNL     1       3.974   5.393  18.061  0.00  0.00    +0.000 A 
ATOM      4  C   UNL     1       4.422   6.131  16.956  0.00  0.00    +0.000 A 
ATOM      5  C   UNL     1       3.975   7.448  16.813  0.00  0.00    +0.000 A 
ATOM      6  C   UNL     1       3.140   8.027  17.779  0.00  0.00    +0.000 A 
ENDROOT
BRANCH   4   7
ATOM      7  C   UNL     1       5.345   5.541  15.986  0.00  0.00    +0.000 A 
ATOM      8  N   UNL     1       5.090   4.672  15.024  0.00  0.00    +0.000 NA
ATOM      9  C   UNL     1       6.321   4.451  14.452  0.00  0.00    +0.000 A 
ATOM     10  N   UNL     1       7.318   5.173  14.973  0.00  0.00    +0.000 NA
ATOM     11  N   UNL     1       6.677   5.855  15.928  0.00  0.00    +0.000 N 
ATOM     12  H   UNL     1       7.196   6.512  16.498  0.00  0.00    +0.000 HD
BRANCH   9  13
ATOM     13  C   UNL     1       6.588   3.453  13.337  0.00  0.00    +0.000 C 
ATOM     14  C   UNL     1       6.920   3.946  11.946  0.00  0.00    +0.000 C 
ATOM     15  C   UNL     1       5.581   3.348  12.209  0.00  0.00    +0.000 C 
ENDBRANCH   9  13
ENDBRANCH   4   7
BRANCH   1  18
ATOM     16  O   UNL     1       0.987   9.660  18.598  0.00  0.00    +0.000 OA
ATOM     17  C   UNL     1       1.185   9.088  19.667  0.00  0.00    +0.000 C 
ATOM     18  N   UNL     1       1.950   7.955  19.874  0.00  0.00    +0.000 N 
ATOM     19  H   UNL     1       1.806   7.457  20.743  0.00  0.00    +0.000 HD
BRANCH  17  20
ATOM     20  C   UNL     1       0.452   9.583  20.854  0.00  0.00    +0.000 A 
ATOM     21  C   UNL     1      -0.039   8.745  21.870  0.00  0.00    +0.000 A 
ATOM     22  C   UNL     1      -0.718   9.273  22.974  0.00  0.00    +0.000 A 
ATOM     23  C   UNL     1      -0.926  10.656  23.100  0.00  0.00    +0.000 A 
ATOM     24  C   UNL     1      -0.431  11.501  22.098  0.00  0.00    +0.000 A 
ATOM     25  N   UNL     1      -0.488  12.862  21.958  0.00  0.00    +0.000 NA
ATOM     26  N   UNL     1       0.126  13.187  20.826  0.00  0.00    +0.000 NA
ATOM     27  N   UNL     1       0.574  12.048  20.269  0.00  0.00    +0.000 N 
ATOM     28  C   UNL     1       0.241  10.954  21.018  0.00  0.00    +0.000 A 
ATOM     29  H   UNL     1       1.088  12.082  19.394  0.00  0.00    +0.000 HD
ENDBRANCH  17  20
ENDBRANCH   1  18
TORSDOF 4
ENDMDL
MODEL 7
REMARK VINA RESULT:      -8.2      2.587      3.232
REMARK  Name = 
REMARK  4 active torsions:
REMARK  status: ('A' for Active; 'I' for Inactive)
REMARK    1  A    between atoms: C_2  and  C_18
REMARK    2  A    between atoms: N_3  and  C_4
REMARK    3  A    between atoms: C_7  and  C_8
REMARK    4  A    between atoms: C_10  and  C_11
REMARK                            x       y       z     vdW  Elec       q    Type
REMARK                         _______ _______ _______ _____ _____    ______ ____
ROOT
ATOM      1  C   UNL     1       1.333   8.512  20.589  0.00  0.00    +0.000 A 
ATOM      2  C   UNL     1       0.621   9.430  19.820  0.00  0.00    +0.000 A 
ATOM      3  C   UNL     1      -0.146  10.427  20.433  0.00  0.00    +0.000 A 
ATOM      4  C   UNL     1      -0.210  10.532  21.830  0.00  0.00    +0.000 A 
ATOM      5  C   UNL     1       0.465   9.578  22.599  0.00  0.00    +0.000 A 
ATOM      6  C   UNL     1       1.224   8.573  21.984  0.00  0.00    +0.000 A 
ENDROOT
BRANCH   4   7
ATOM      7  C   UNL     1      -0.952  11.621  22.466  0.00  0.00    +0.000 A 
ATOM      8  N   UNL     1      -2.056  11.558  23.189  0.00  0.00    +0.000 NA
ATOM      9  C   UNL     1      -2.316  12.873  23.498  0.00  0.00    +0.000 A 
ATOM     10  N   UNL     1      -1.406  13.744  23.051  0.00  0.00    +0.000 NA
ATOM     11  N   UNL     1      -0.555  12.932  22.413  0.00  0.00    +0.000 N 
ATOM     12  H   UNL     1       0.265  13.326  21.970  0.00  0.00    +0.000 HD
BRANCH   9  13
ATOM     13  C   UNL     1      -3.541  13.355  24.258  0.00  0.00    +0.000 C 
ATOM     14  C   UNL     1      -4.566  12.358  24.750  0.00  0.00    +0.000 C 
ATOM     15  C   UNL     1      -4.896  13.233  23.590  0.00  0.00    +0.000 C 
ENDBRANCH   9  13
ENDBRANCH   4   7
BRANCH   1  18
ATOM     16  O   UNL     1       1.081   5.570  20.765  0.00  0.00    +0.000 OA
ATOM     17  C   UNL     1       2.002   6.147  20.194  0.00  0.00    +0.000 C 
ATOM     18  N   UNL     1       2.154   7.511  20.029  0.00  0.00    +0.000 N 
ATOM     19  H   UNL     1       2.809   7.818  19.322  0.00  0.00    +0.000 HD
BRANCH  17  20
ATOM     20  C   UNL     1       3.014   5.310  19.510  0.00  0.00    +0.000 A 
ATOM     21  C   UNL     1       4.383   5.628  19.464  0.00  0.00    +0.000 A 
ATOM     22  C   UNL     1       5.294   4.793  18.807  0.00  0.00    +0.000 A 
ATOM     23  C   UNL     1       4.868   3.612  18.179  0.00  0.00    +0.000 A 
ATOM     24  C   UNL     1       3.507   3.280  18.229  0.00  0.00    +0.000 A 
ATOM     25  N   UNL     1       2.820   2.215  17.711  0.00  0.00    +0.000 NA
ATOM     26  N   UNL     1       1.537   2.360  18.025  0.00  0.00    +0.000 NA
ATOM     27  N   UNL     1       1.422   3.493  18.739  0.00  0.00    +0.000 N 
ATOM     28  C   UNL     1       2.627   4.121  18.888  0.00  0.00    +0.000 A 
ATOM     29  H   UNL     1       0.513   3.779  19.088  0.00  0.00    +0.000 HD
ENDBRANCH  17  20
ENDBRANCH   1  18
TORSDOF 4
ENDMDL
MODEL 8
REMARK VINA RESULT:      -8.2      6.400      8.940
REMARK  Name = 
REMARK  4 active torsions:
REMARK  status: ('A' for Active; 'I' for Inactive)
REMARK    1  A    between atoms: C_2  and  C_18
REMARK    2  A    between atoms: N_3  and  C_4
REMARK    3  A    between atoms: C_7  and  C_8
REMARK    4  A    between atoms: C_10  and  C_11
REMARK                            x       y       z     vdW  Elec       q    Type
REMARK                         _______ _______ _______ _____ _____    ______ ____
ROOT
ATOM      1  C   UNL     1       7.824   8.322  17.770  0.00  0.00    +0.000 A 
ATOM      2  C   UNL     1       6.597   8.163  17.129  0.00  0.00    +0.000 A 
ATOM      3  C   UNL     1       5.831   7.011  17.338  0.00  0.00    +0.000 A 
ATOM      4  C   UNL     1       6.271   5.997  18.201  0.00  0.00    +0.000 A 
ATOM      5  C   UNL     1       7.525   6.138  18.804  0.00  0.00    +0.000 A 
ATOM      6  C   UNL     1       8.298   7.287  18.585  0.00  0.00    +0.000 A 
ENDROOT
BRANCH   4   7
ATOM      7  C   UNL     1       5.432   4.831  18.476  0.00  0.00    +0.000 A 
ATOM      8  N   UNL     1       4.227   4.551  18.011  0.00  0.00    +0.000 NA
ATOM      9  C   UNL     1       3.913   3.358  18.619  0.00  0.00    +0.000 A 
ATOM     10  N   UNL     1       4.878   2.856  19.395  0.00  0.00    +0.000 NA
ATOM     11  N   UNL     1       5.824   3.795  19.282  0.00  0.00    +0.000 N 
ATOM     12  H   UNL     1       6.702   3.673  19.770  0.00  0.00    +0.000 HD
BRANCH   9  13
ATOM     13  C   UNL     1       2.580   2.642  18.479  0.00  0.00    +0.000 C 
ATOM     14  C   UNL     1       1.327   3.430  18.171  0.00  0.00    +0.000 C 
ATOM     15  C   UNL     1       1.523   2.875  19.540  0.00  0.00    +0.000 C 
ENDBRANCH   9  13
ENDBRANCH   4   7
BRANCH   1  18
ATOM     16  O   UNL     1       8.872  10.137  19.857  0.00  0.00    +0.000 OA
ATOM     17  C   UNL     1       9.037  10.309  18.653  0.00  0.00    +0.000 C 
ATOM     18  N   UNL     1       8.622   9.477  17.630  0.00  0.00    +0.000 N 
ATOM     19  H   UNL     1       9.053   9.611  16.725  0.00  0.00    +0.000 HD
BRANCH  17  20
ATOM     20  C   UNL     1       9.856  11.468  18.232  0.00  0.00    +0.000 A 
ATOM     21  C   UNL     1      11.193  11.363  17.809  0.00  0.00    +0.000 A 
ATOM     22  C   UNL     1      11.915  12.496  17.416  0.00  0.00    +0.000 A 
ATOM     23  C   UNL     1      11.323  13.769  17.428  0.00  0.00    +0.000 A 
ATOM     24  C   UNL     1       9.988  13.883  17.838  0.00  0.00    +0.000 A 
ATOM     25  N   UNL     1       9.171  14.976  17.952  0.00  0.00    +0.000 NA
ATOM     26  N   UNL     1       7.987  14.563  18.392  0.00  0.00    +0.000 NA
ATOM     27  N   UNL     1       8.056  13.228  18.539  0.00  0.00    +0.000 N 
ATOM     28  C   UNL     1       9.294  12.747  18.218  0.00  0.00    +0.000 A 
ATOM     29  H   UNL     1       7.241  12.713  18.858  0.00  0.00    +0.000 HD
ENDBRANCH  17  20
ENDBRANCH   1  18
TORSDOF 4
ENDMDL
MODEL 9
REMARK VINA RESULT:      -8.2      1.807      2.590
REMARK  Name = 
REMARK  4 active torsions:
REMARK  status: ('A' for Active; 'I' for Inactive)
REMARK    1  A    between atoms: C_2  and  C_18
REMARK    2  A    between atoms: N_3  and  C_4
REMARK    3  A    between atoms: C_7  and  C_8
REMARK    4  A    between atoms: C_10  and  C_11
REMARK                            x       y       z     vdW  Elec       q    Type
REMARK                         _______ _______ _______ _____ _____    ______ ____
ROOT
ATOM      1  C   UNL     1       1.271   8.477  20.463  0.00  0.00    +0.000 A 
ATOM      2  C   UNL     1       1.147   8.510  21.851  0.00  0.00    +0.000 A 
ATOM      3  C   UNL     1       0.491   9.574  22.479  0.00  0.00    +0.000 A 
ATOM      4  C   UNL     1      -0.063  10.625  21.733  0.00  0.00    +0.000 A 
ATOM      5  C   UNL     1       0.108  10.613  20.345  0.00  0.00    +0.000 A 
ATOM      6  C   UNL     1       0.775   9.552  19.716  0.00  0.00    +0.000 A 
ENDROOT
BRANCH   4   7
ATOM      7  C   UNL     1      -0.813  11.696  22.388  0.00  0.00    +0.000 A 
ATOM      8  N   UNL     1      -1.909  11.608  23.121  0.00  0.00    +0.000 NA
ATOM      9  C   UNL     1      -2.185  12.915  23.449  0.00  0.00    +0.000 A 
ATOM     10  N   UNL     1      -1.292  13.804  23.004  0.00  0.00    +0.000 NA
ATOM     11  N   UNL     1      -0.436  13.012  22.349  0.00  0.00    +0.000 N 
ATOM     12  H   UNL     1       0.375  13.423  21.903  0.00  0.00    +0.000 HD
BRANCH   9  13
ATOM     13  C   UNL     1      -3.409  13.370  24.226  0.00  0.00    +0.000 C 
ATOM     14  C   UNL     1      -4.443  12.359  24.668  0.00  0.00    +0.000 C 
ATOM     15  C   UNL     1      -4.763  13.288  23.548  0.00  0.00    +0.000 C 
ENDBRANCH   9  13
ENDBRANCH   4   7
BRANCH   1  18
ATOM     16  O   UNL     1       2.736   8.515  17.894  0.00  0.00    +0.000 OA
ATOM     17  C   UNL     1       2.516   7.496  18.543  0.00  0.00    +0.000 C 
ATOM     18  N   UNL     1       1.886   7.413  19.771  0.00  0.00    +0.000 N 
ATOM     19  H   UNL     1       2.011   6.556  20.295  0.00  0.00    +0.000 HD
BRANCH  17  20
ATOM     20  C   UNL     1       3.065   6.222  18.027  0.00  0.00    +0.000 A 
ATOM     21  C   UNL     1       2.374   4.999  18.077  0.00  0.00    +0.000 A 
ATOM     22  C   UNL     1       2.944   3.828  17.565  0.00  0.00    +0.000 A 
ATOM     23  C   UNL     1       4.221   3.841  16.983  0.00  0.00    +0.000 A 
ATOM     24  C   UNL     1       4.915   5.057  16.918  0.00  0.00    +0.000 A 
ATOM     25  N   UNL     1       6.153   5.363  16.419  0.00  0.00    +0.000 NA
ATOM     26  N   UNL     1       6.362   6.663  16.600  0.00  0.00    +0.000 NA
ATOM     27  N   UNL     1       5.266   7.169  17.191  0.00  0.00    +0.000 N 
ATOM     28  C   UNL     1       4.328   6.203  17.428  0.00  0.00    +0.000 A 
ATOM     29  H   UNL     1       5.220   8.160  17.406  0.00  0.00    +0.000 HD
ENDBRANCH  17  20
ENDBRANCH   1  18
TORSDOF 4
ENDMDL
