MODEL 1
REMARK VINA RESULT:      -9.3      0.000      0.000
REMARK  Name = 
REMARK  5 active torsions:
REMARK  status: ('A' for Active; 'I' for Inactive)
REMARK    1  A    between atoms: C_2  and  C_4
REMARK    2  A    between atoms: N_7  and  C_8
REMARK    3  A    between atoms: C_13  and  N_14
REMARK    4  A    between atoms: C_15  and  C_17
REMARK    5  A    between atoms: C_20  and  C_21
REMARK                            x       y       z     vdW  Elec       q    Type
REMARK                         _______ _______ _______ _____ _____    ______ ____
ROOT
ATOM      1  C   UNL     1       3.801   3.979  18.158  0.00  0.00    +0.000 A 
ATOM      2  C   UNL     1       3.898   2.574  18.240  0.00  0.00    +0.000 A 
ATOM      3  C   UNL     1       2.788   1.748  18.449  0.00  0.00    +0.000 A 
ATOM      4  C   UNL     1       1.522   2.304  18.577  0.00  0.00    +0.000 A 
ATOM      5  C   UNL     1       1.369   3.678  18.437  0.00  0.00    +0.000 A 
ATOM      6  C   UNL     1       2.487   4.506  18.214  0.00  0.00    +0.000 A 
ENDROOT
BRANCH   1  10
ATOM      7  C   UNL     1       7.559   5.833  17.698  0.00  0.00    +0.000 C 
ATOM      8  C   UNL     1       6.604   5.575  16.523  0.00  0.00    +0.000 C 
ATOM      9  C   UNL     1       5.131   5.655  16.906  0.00  0.00    +0.000 C 
ATOM     10  N   UNL     1       4.940   4.777  18.065  0.00  0.00    +0.000 N 
ATOM     11  C   UNL     1       5.586   5.312  19.266  0.00  0.00    +0.000 C 
ATOM     12  C   UNL     1       7.100   5.233  19.042  0.00  0.00    +0.000 C 
BRANCH   7  14
ATOM     13  N   UNL     1       8.570   7.652  18.949  0.00  0.00    +0.000 N 
ATOM     14  C   UNL     1       7.837   7.316  17.844  0.00  0.00    +0.000 C 
ATOM     15  O   UNL     1       7.422   8.176  17.076  0.00  0.00    +0.000 OA
ATOM     16  H   UNL     1       8.862   8.620  19.019  0.00  0.00    +0.000 HD
ATOM     17  H   UNL     1       9.116   6.966  19.447  0.00  0.00    +0.000 HD
ENDBRANCH   7  14
ENDBRANCH   1  10
BRANCH   6  18
ATOM     18  N   UNL     1       2.237   5.893  18.154  0.00  0.00    +0.000 N 
ATOM     19  C   UNL     1       2.203   6.651  19.319  0.00  0.00    +0.000 C 
ATOM     20  O   UNL     1       2.393   6.197  20.447  0.00  0.00    +0.000 OA
ATOM     21  H   UNL     1       1.666   6.223  17.386  0.00  0.00    +0.000 HD
BRANCH  19  22
ATOM     22  C   UNL     1       1.833   8.037  19.117  0.00  0.00    +0.000 A 
ATOM     23  C   UNL     1       2.127   8.920  18.101  0.00  0.00    +0.000 A 
ATOM     24  C   UNL     1       1.457  10.131  18.412  0.00  0.00    +0.000 A 
ATOM     25  C   UNL     1       0.793   9.921  19.606  0.00  0.00    +0.000 A 
ATOM     26  O   UNL     1       1.024   8.646  20.029  0.00  0.00    +0.000 OA
BRANCH  25  27
ATOM     27  C   UNL     1      -0.089  10.736  20.441  0.00  0.00    +0.000 A 
ATOM     28  C   UNL     1      -0.001  10.596  21.841  0.00  0.00    +0.000 A 
ATOM     29  C   UNL     1      -0.832  11.325  22.699  0.00  0.00    +0.000 A 
ATOM     30  C   UNL     1      -1.761  12.214  22.176  0.00  0.00    +0.000 A 
ATOM     31  C   UNL     1      -1.864  12.376  20.796  0.00  0.00    +0.000 A 
ATOM     32  C   UNL     1      -1.038  11.644  19.930  0.00  0.00    +0.000 A 
ATOM     33 CL   UNL     1      -1.318  11.897  18.237  0.00  0.00    +0.000 Cl
ENDBRANCH  25  27
ENDBRANCH  19  22
ENDBRANCH   6  18
TORSDOF 5
ENDMDL
MODEL 2
REMARK VINA RESULT:      -9.2      1.127      1.314
REMARK  Name = 
REMARK  5 active torsions:
REMARK  status: ('A' for Active; 'I' for Inactive)
REMARK    1  A    between atoms: C_2  and  C_4
REMARK    2  A    between atoms: N_7  and  C_8
REMARK    3  A    between atoms: C_13  and  N_14
REMARK    4  A    between atoms: C_15  and  C_17
REMARK    5  A    between atoms: C_20  and  C_21
REMARK                            x       y       z     vdW  Elec       q    Type
REMARK                         _______ _______ _______ _____ _____    ______ ____
ROOT
ATOM      1  C   UNL     1       3.823   4.165  17.949  0.00  0.00    +0.000 A 
ATOM      2  C   UNL     1       3.928   2.759  17.945  0.00  0.00    +0.000 A 
ATOM      3  C   UNL     1       2.823   1.915  18.110  0.00  0.00    +0.000 A 
ATOM      4  C   UNL     1       1.555   2.455  18.278  0.00  0.00    +0.000 A 
ATOM      5  C   UNL     1       1.394   3.835  18.222  0.00  0.00    +0.000 A 
ATOM      6  C   UNL     1       2.506   4.680  18.043  0.00  0.00    +0.000 A 
ENDROOT
BRANCH   1  10
ATOM      7  C   UNL     1       7.566   6.067  17.576  0.00  0.00    +0.000 C 
ATOM      8  C   UNL     1       6.600   5.883  16.396  0.00  0.00    +0.000 C 
ATOM      9  C   UNL     1       5.132   5.930  16.799  0.00  0.00    +0.000 C 
ATOM     10  N   UNL     1       4.957   4.974  17.898  0.00  0.00    +0.000 N 
ATOM     11  C   UNL     1       5.613   5.430  19.126  0.00  0.00    +0.000 C 
ATOM     12  C   UNL     1       7.125   5.375  18.881  0.00  0.00    +0.000 C 
BRANCH   7  14
ATOM     13  N   UNL     1       8.602   7.801  18.924  0.00  0.00    +0.000 N 
ATOM     14  C   UNL     1       7.839   7.538  17.819  0.00  0.00    +0.000 C 
ATOM     15  O   UNL     1       7.397   8.446  17.127  0.00  0.00    +0.000 OA
ATOM     16  H   UNL     1       8.889   8.764  19.055  0.00  0.00    +0.000 HD
ATOM     17  H   UNL     1       9.167   7.086  19.356  0.00  0.00    +0.000 HD
ENDBRANCH   7  14
ENDBRANCH   1  10
BRANCH   6  18
ATOM     18  N   UNL     1       2.248   6.067  18.068  0.00  0.00    +0.000 N 
ATOM     19  C   UNL     1       2.169   6.744  19.279  0.00  0.00    +0.000 C 
ATOM     20  O   UNL     1       2.323   6.216  20.380  0.00  0.00    +0.000 OA
ATOM     21  H   UNL     1       1.702   6.445  17.305  0.00  0.00    +0.000 HD
BRANCH  19  22
ATOM     22  C   UNL     1       1.796   8.139  19.158  0.00  0.00    +0.000 A 
ATOM     23  C   UNL     1       1.875   9.015  18.098  0.00  0.00    +0.000 A 
ATOM     24  C   UNL     1       1.321  10.242  18.545  0.00  0.00    +0.000 A 
ATOM     25  C   UNL     1       0.937  10.048  19.859  0.00  0.00    +0.000 A 
ATOM     26  O   UNL     1       1.227   8.768  20.226  0.00  0.00    +0.000 OA
BRANCH  25  27
ATOM     27  C   UNL     1       0.284  10.884  20.866  0.00  0.00    +0.000 A 
ATOM     28  C   UNL     1       0.401  12.284  20.749  0.00  0.00    +0.000 A 
ATOM     29  C   UNL     1      -0.175  13.144  21.689  0.00  0.00    +0.000 A 
ATOM     30  C   UNL     1      -0.887  12.623  22.762  0.00  0.00    +0.000 A 
ATOM     31  C   UNL     1      -1.023  11.243  22.897  0.00  0.00    +0.000 A 
ATOM     32  C   UNL     1      -0.443  10.375  21.961  0.00  0.00    +0.000 A 
ATOM     33 CL   UNL     1      -0.636   8.683  22.288  0.00  0.00    +0.000 Cl
ENDBRANCH  25  27
ENDBRANCH  19  22
ENDBRANCH   6  18
TORSDOF 5
ENDMDL
MODEL 3
REMARK VINA RESULT:      -8.9      1.962      2.344
REMARK  Name = 
REMARK  5 active torsions:
REMARK  status: ('A' for Active; 'I' for Inactive)
REMARK    1  A    between atoms: C_2  and  C_4
REMARK    2  A    between atoms: N_7  and  C_8
REMARK    3  A    between atoms: C_13  and  N_14
REMARK    4  A    between atoms: C_15  and  C_17
REMARK    5  A    between atoms: C_20  and  C_21
REMARK                            x       y       z     vdW  Elec       q    Type
REMARK                         _______ _______ _______ _____ _____    ______ ____
ROOT
ATOM      1  C   UNL     1       3.767   3.833  19.657  0.00  0.00    +0.000 A 
ATOM      2  C   UNL     1       3.818   2.505  20.129  0.00  0.00    +0.000 A 
ATOM      3  C   UNL     1       3.073   2.062  21.227  0.00  0.00    +0.000 A 
ATOM      4  C   UNL     1       2.230   2.939  21.896  0.00  0.00    +0.000 A 
ATOM      5  C   UNL     1       2.097   4.240  21.426  0.00  0.00    +0.000 A 
ATOM      6  C   UNL     1       2.839   4.681  20.312  0.00  0.00    +0.000 A 
ENDROOT
BRANCH   1  10
ATOM      7  C   UNL     1       5.915   5.684  16.538  0.00  0.00    +0.000 C 
ATOM      8  C   UNL     1       6.133   6.023  18.020  0.00  0.00    +0.000 C 
ATOM      9  C   UNL     1       5.921   4.838  18.953  0.00  0.00    +0.000 C 
ATOM     10  N   UNL     1       4.608   4.269  18.634  0.00  0.00    +0.000 N 
ATOM     11  C   UNL     1       4.602   3.614  17.323  0.00  0.00    +0.000 C 
ATOM     12  C   UNL     1       4.747   4.714  16.266  0.00  0.00    +0.000 C 
BRANCH   7  14
ATOM     13  N   UNL     1       7.380   5.520  14.607  0.00  0.00    +0.000 N 
ATOM     14  C   UNL     1       7.195   5.163  15.916  0.00  0.00    +0.000 C 
ATOM     15  O   UNL     1       8.003   4.447  16.494  0.00  0.00    +0.000 OA
ATOM     16  H   UNL     1       8.272   5.276  14.195  0.00  0.00    +0.000 HD
ATOM     17  H   UNL     1       6.871   6.287  14.194  0.00  0.00    +0.000 HD
ENDBRANCH   7  14
ENDBRANCH   1  10
BRANCH   6  18
ATOM     18  N   UNL     1       2.685   6.036  19.954  0.00  0.00    +0.000 N 
ATOM     19  C   UNL     1       2.103   6.379  18.739  0.00  0.00    +0.000 C 
ATOM     20  O   UNL     1       1.682   5.564  17.918  0.00  0.00    +0.000 OA
ATOM     21  H   UNL     1       3.362   6.688  20.328  0.00  0.00    +0.000 HD
BRANCH  19  22
ATOM     22  C   UNL     1       2.106   7.800  18.457  0.00  0.00    +0.000 A 
ATOM     23  C   UNL     1       2.881   8.560  17.609  0.00  0.00    +0.000 A 
ATOM     24  C   UNL     1       2.406   9.892  17.712  0.00  0.00    +0.000 A 
ATOM     25  C   UNL     1       1.366   9.873  18.623  0.00  0.00    +0.000 A 
ATOM     26  O   UNL     1       1.186   8.599  19.071  0.00  0.00    +0.000 OA
BRANCH  25  27
ATOM     27  C   UNL     1       0.446  10.884  19.144  0.00  0.00    +0.000 A 
ATOM     28  C   UNL     1       0.900  11.732  20.174  0.00  0.00    +0.000 A 
ATOM     29  C   UNL     1       0.067  12.704  20.737  0.00  0.00    +0.000 A 
ATOM     30  C   UNL     1      -1.234  12.854  20.277  0.00  0.00    +0.000 A 
ATOM     31  C   UNL     1      -1.706  12.033  19.255  0.00  0.00    +0.000 A 
ATOM     32  C   UNL     1      -0.877  11.052  18.690  0.00  0.00    +0.000 A 
ATOM     33 CL   UNL     1      -1.615  10.059  17.474  0.00  0.00    +0.000 Cl
ENDBRANCH  25  27
ENDBRANCH  19  22
ENDBRANCH   6  18
TORSDOF 5
ENDMDL
MODEL 4
REMARK VINA RESULT:      -8.9      1.050      1.486
REMARK  Name = 
REMARK  5 active torsions:
REMARK  status: ('A' for Active; 'I' for Inactive)
REMARK    1  A    between atoms: C_2  and  C_4
REMARK    2  A    between atoms: N_7  and  C_8
REMARK    3  A    between atoms: C_13  and  N_14
REMARK    4  A    between atoms: C_15  and  C_17
REMARK    5  A    between atoms: C_20  and  C_21
REMARK                            x       y       z     vdW  Elec       q    Type
REMARK                         _______ _______ _______ _____ _____    ______ ____
ROOT
ATOM      1  C   UNL     1       3.747   3.986  18.236  0.00  0.00    +0.000 A 
ATOM      2  C   UNL     1       3.783   2.593  18.453  0.00  0.00    +0.000 A 
ATOM      3  C   UNL     1       2.629   1.828  18.654  0.00  0.00    +0.000 A 
ATOM      4  C   UNL     1       1.380   2.434  18.636  0.00  0.00    +0.000 A 
ATOM      5  C   UNL     1       1.292   3.793  18.361  0.00  0.00    +0.000 A 
ATOM      6  C   UNL     1       2.454   4.559  18.146  0.00  0.00    +0.000 A 
ENDROOT
BRANCH   1  10
ATOM      7  C   UNL     1       7.604   5.662  17.938  0.00  0.00    +0.000 C 
ATOM      8  C   UNL     1       6.776   5.244  16.713  0.00  0.00    +0.000 C 
ATOM      9  C   UNL     1       5.275   5.416  16.906  0.00  0.00    +0.000 C 
ATOM     10  N   UNL     1       4.921   4.734  18.155  0.00  0.00    +0.000 N 
ATOM     11  C   UNL     1       5.450   5.436  19.328  0.00  0.00    +0.000 C 
ATOM     12  C   UNL     1       6.975   5.289  19.295  0.00  0.00    +0.000 C 
BRANCH   7  14
ATOM     13  N   UNL     1       8.568   7.625  18.994  0.00  0.00    +0.000 N 
ATOM     14  C   UNL     1       7.924   7.142  17.887  0.00  0.00    +0.000 C 
ATOM     15  O   UNL     1       7.611   7.886  16.965  0.00  0.00    +0.000 OA
ATOM     16  H   UNL     1       8.888   8.585  18.946  0.00  0.00    +0.000 HD
ATOM     17  H   UNL     1       9.041   7.009  19.637  0.00  0.00    +0.000 HD
ENDBRANCH   7  14
ENDBRANCH   1  10
BRANCH   6  18
ATOM     18  N   UNL     1       2.264   5.942  17.942  0.00  0.00    +0.000 N 
ATOM     19  C   UNL     1       2.190   6.808  19.026  0.00  0.00    +0.000 C 
ATOM     20  O   UNL     1       2.291   6.457  20.202  0.00  0.00    +0.000 OA
ATOM     21  H   UNL     1       1.755   6.216  17.112  0.00  0.00    +0.000 HD
BRANCH  19  22
ATOM     22  C   UNL     1       1.889   8.181  18.673  0.00  0.00    +0.000 A 
ATOM     23  C   UNL     1       2.563   9.088  17.886  0.00  0.00    +0.000 A 
ATOM     24  C   UNL     1       1.774  10.266  17.862  0.00  0.00    +0.000 A 
ATOM     25  C   UNL     1       0.660  10.014  18.641  0.00  0.00    +0.000 A 
ATOM     26  O   UNL     1       0.734   8.744  19.130  0.00  0.00    +0.000 OA
BRANCH  25  27
ATOM     27  C   UNL     1      -0.534  10.781  18.994  0.00  0.00    +0.000 A 
ATOM     28  C   UNL     1      -1.670  10.665  18.169  0.00  0.00    +0.000 A 
ATOM     29  C   UNL     1      -2.838  11.389  18.432  0.00  0.00    +0.000 A 
ATOM     30  C   UNL     1      -2.896  12.238  19.528  0.00  0.00    +0.000 A 
ATOM     31  C   UNL     1      -1.789  12.367  20.364  0.00  0.00    +0.000 A 
ATOM     32  C   UNL     1      -0.613  11.648  20.103  0.00  0.00    +0.000 A 
ATOM     33 CL   UNL     1       0.707  11.954  21.185  0.00  0.00    +0.000 Cl
ENDBRANCH  25  27
ENDBRANCH  19  22
ENDBRANCH   6  18
TORSDOF 5
ENDMDL
MODEL 5
REMARK VINA RESULT:      -8.8      1.595      1.684
REMARK  Name = 
REMARK  5 active torsions:
REMARK  status: ('A' for Active; 'I' for Inactive)
REMARK    1  A    between atoms: C_2  and  C_4
REMARK    2  A    between atoms: N_7  and  C_8
REMARK    3  A    between atoms: C_13  and  N_14
REMARK    4  A    between atoms: C_15  and  C_17
REMARK    5  A    between atoms: C_20  and  C_21
REMARK                            x       y       z     vdW  Elec       q    Type
REMARK                         _______ _______ _______ _____ _____    ______ ____
ROOT
ATOM      1  C   UNL     1       3.322   3.632  18.761  0.00  0.00    +0.000 A 
ATOM      2  C   UNL     1       3.256   2.315  19.261  0.00  0.00    +0.000 A 
ATOM      3  C   UNL     1       2.194   1.855  20.048  0.00  0.00    +0.000 A 
ATOM      4  C   UNL     1       1.141   2.704  20.360  0.00  0.00    +0.000 A 
ATOM      5  C   UNL     1       1.131   3.991  19.834  0.00  0.00    +0.000 A 
ATOM      6  C   UNL     1       2.195   4.447  19.032  0.00  0.00    +0.000 A 
ENDROOT
BRANCH   1  10
ATOM      7  C   UNL     1       6.981   4.412  16.817  0.00  0.00    +0.000 C 
ATOM      8  C   UNL     1       5.807   3.694  16.134  0.00  0.00    +0.000 C 
ATOM      9  C   UNL     1       4.441   4.168  16.614  0.00  0.00    +0.000 C 
ATOM     10  N   UNL     1       4.449   4.089  18.079  0.00  0.00    +0.000 N 
ATOM     11  C   UNL     1       5.334   5.094  18.673  0.00  0.00    +0.000 C 
ATOM     12  C   UNL     1       6.772   4.701  18.317  0.00  0.00    +0.000 C 
BRANCH   7  14
ATOM     13  N   UNL     1       7.432   5.543  14.716  0.00  0.00    +0.000 N 
ATOM     14  C   UNL     1       7.333   5.684  16.074  0.00  0.00    +0.000 C 
ATOM     15  O   UNL     1       7.557   6.761  16.613  0.00  0.00    +0.000 OA
ATOM     16  H   UNL     1       7.563   6.394  14.182  0.00  0.00    +0.000 HD
ATOM     17  H   UNL     1       7.025   4.753  14.239  0.00  0.00    +0.000 HD
ENDBRANCH   7  14
ENDBRANCH   1  10
BRANCH   6  18
ATOM     18  N   UNL     1       2.125   5.788  18.602  0.00  0.00    +0.000 N 
ATOM     19  C   UNL     1       2.190   6.825  19.525  0.00  0.00    +0.000 C 
ATOM     20  O   UNL     1       2.321   6.666  20.739  0.00  0.00    +0.000 OA
ATOM     21  H   UNL     1       1.600   5.972  17.756  0.00  0.00    +0.000 HD
BRANCH  19  22
ATOM     22  C   UNL     1       2.000   8.144  18.955  0.00  0.00    +0.000 A 
ATOM     23  C   UNL     1       2.544   8.741  17.838  0.00  0.00    +0.000 A 
ATOM     24  C   UNL     1       1.959  10.029  17.744  0.00  0.00    +0.000 A 
ATOM     25  C   UNL     1       1.091  10.150  18.813  0.00  0.00    +0.000 A 
ATOM     26  O   UNL     1       1.119   9.001  19.545  0.00  0.00    +0.000 OA
BRANCH  25  27
ATOM     27  C   UNL     1       0.172  11.192  19.270  0.00  0.00    +0.000 A 
ATOM     28  C   UNL     1       0.643  12.134  20.207  0.00  0.00    +0.000 A 
ATOM     29  C   UNL     1      -0.188  13.143  20.706  0.00  0.00    +0.000 A 
ATOM     30  C   UNL     1      -1.504  13.235  20.273  0.00  0.00    +0.000 A 
ATOM     31  C   UNL     1      -1.993  12.321  19.342  0.00  0.00    +0.000 A 
ATOM     32  C   UNL     1      -1.166  11.304  18.842  0.00  0.00    +0.000 A 
ATOM     33 CL   UNL     1      -1.923  10.198  17.741  0.00  0.00    +0.000 Cl
ENDBRANCH  25  27
ENDBRANCH  19  22
ENDBRANCH   6  18
TORSDOF 5
ENDMDL
MODEL 6
REMARK VINA RESULT:      -8.7      1.676      2.063
REMARK  Name = 
REMARK  5 active torsions:
REMARK  status: ('A' for Active; 'I' for Inactive)
REMARK    1  A    between atoms: C_2  and  C_4
REMARK    2  A    between atoms: N_7  and  C_8
REMARK    3  A    between atoms: C_13  and  N_14
REMARK    4  A    between atoms: C_15  and  C_17
REMARK    5  A    between atoms: C_20  and  C_21
REMARK                            x       y       z     vdW  Elec       q    Type
REMARK                         _______ _______ _______ _____ _____    ______ ____
ROOT
ATOM      1  C   UNL     1       3.126   3.739  19.097  0.00  0.00    +0.000 A 
ATOM      2  C   UNL     1       3.172   2.467  19.706  0.00  0.00    +0.000 A 
ATOM      3  C   UNL     1       2.230   2.045  20.651  0.00  0.00    +0.000 A 
ATOM      4  C   UNL     1       1.188   2.886  21.019  0.00  0.00    +0.000 A 
ATOM      5  C   UNL     1       1.065   4.122  20.396  0.00  0.00    +0.000 A 
ATOM      6  C   UNL     1       2.007   4.540  19.436  0.00  0.00    +0.000 A 
ENDROOT
BRANCH   1  10
ATOM      7  C   UNL     1       5.812   5.564  16.410  0.00  0.00    +0.000 C 
ATOM      8  C   UNL     1       5.725   5.947  17.895  0.00  0.00    +0.000 C 
ATOM      9  C   UNL     1       5.357   4.781  18.803  0.00  0.00    +0.000 C 
ATOM     10  N   UNL     1       4.145   4.170  18.249  0.00  0.00    +0.000 N 
ATOM     11  C   UNL     1       4.412   3.482  16.982  0.00  0.00    +0.000 C 
ATOM     12  C   UNL     1       4.742   4.558  15.942  0.00  0.00    +0.000 C 
BRANCH   7  14
ATOM     13  N   UNL     1       7.815   4.360  17.071  0.00  0.00    +0.000 N 
ATOM     14  C   UNL     1       7.200   5.061  16.069  0.00  0.00    +0.000 C 
ATOM     15  O   UNL     1       7.774   5.278  15.008  0.00  0.00    +0.000 OA
ATOM     16  H   UNL     1       8.698   3.922  16.838  0.00  0.00    +0.000 HD
ATOM     17  H   UNL     1       7.289   3.967  17.837  0.00  0.00    +0.000 HD
ENDBRANCH   7  14
ENDBRANCH   1  10
BRANCH   6  18
ATOM     18  N   UNL     1       1.834   5.838  18.912  0.00  0.00    +0.000 N 
ATOM     19  C   UNL     1       2.197   6.951  19.661  0.00  0.00    +0.000 C 
ATOM     20  O   UNL     1       2.688   6.899  20.788  0.00  0.00    +0.000 OA
ATOM     21  H   UNL     1       1.080   5.967  18.250  0.00  0.00    +0.000 HD
BRANCH  19  22
ATOM     22  C   UNL     1       1.866   8.219  19.042  0.00  0.00    +0.000 A 
ATOM     23  C   UNL     1       2.352   8.834  17.908  0.00  0.00    +0.000 A 
ATOM     24  C   UNL     1       1.627  10.043  17.763  0.00  0.00    +0.000 A 
ATOM     25  C   UNL     1       0.738  10.102  18.820  0.00  0.00    +0.000 A 
ATOM     26  O   UNL     1       0.887   8.990  19.593  0.00  0.00    +0.000 OA
BRANCH  25  27
ATOM     27  C   UNL     1      -0.299  11.050  19.231  0.00  0.00    +0.000 A 
ATOM     28  C   UNL     1       0.013  11.985  20.238  0.00  0.00    +0.000 A 
ATOM     29  C   UNL     1      -0.937  12.903  20.698  0.00  0.00    +0.000 A 
ATOM     30  C   UNL     1      -2.215  12.910  20.156  0.00  0.00    +0.000 A 
ATOM     31  C   UNL     1      -2.547  12.001  19.154  0.00  0.00    +0.000 A 
ATOM     32  C   UNL     1      -1.601  11.074  18.692  0.00  0.00    +0.000 A 
ATOM     33 CL   UNL     1      -2.169   9.960  17.491  0.00  0.00    +0.000 Cl
ENDBRANCH  25  27
ENDBRANCH  19  22
ENDBRANCH   6  18
TORSDOF 5
ENDMDL
MODEL 7
REMARK VINA RESULT:      -8.7      1.988      2.390
REMARK  Name = 
REMARK  5 active torsions:
REMARK  status: ('A' for Active; 'I' for Inactive)
REMARK    1  A    between atoms: C_2  and  C_4
REMARK    2  A    between atoms: N_7  and  C_8
REMARK    3  A    between atoms: C_13  and  N_14
REMARK    4  A    between atoms: C_15  and  C_17
REMARK    5  A    between atoms: C_20  and  C_21
REMARK                            x       y       z     vdW  Elec       q    Type
REMARK                         _______ _______ _______ _____ _____    ______ ____
ROOT
ATOM      1  C   UNL     1       3.275   3.988  19.277  0.00  0.00    +0.000 A 
ATOM      2  C   UNL     1       3.275   2.729  19.914  0.00  0.00    +0.000 A 
ATOM      3  C   UNL     1       2.361   2.387  20.918  0.00  0.00    +0.000 A 
ATOM      4  C   UNL     1       1.396   3.301  21.321  0.00  0.00    +0.000 A 
ATOM      5  C   UNL     1       1.316   4.529  20.675  0.00  0.00    +0.000 A 
ATOM      6  C   UNL     1       2.229   4.866  19.656  0.00  0.00    +0.000 A 
ENDROOT
BRANCH   1  10
ATOM      7  C   UNL     1       5.876   5.534  16.342  0.00  0.00    +0.000 C 
ATOM      8  C   UNL     1       5.804   6.089  17.773  0.00  0.00    +0.000 C 
ATOM      9  C   UNL     1       5.477   5.032  18.820  0.00  0.00    +0.000 C 
ATOM     10  N   UNL     1       4.270   4.335  18.365  0.00  0.00    +0.000 N 
ATOM     11  C   UNL     1       4.532   3.507  17.184  0.00  0.00    +0.000 C 
ATOM     12  C   UNL     1       4.821   4.458  16.017  0.00  0.00    +0.000 C 
BRANCH   7  14
ATOM     13  N   UNL     1       7.697   5.256  14.759  0.00  0.00    +0.000 N 
ATOM     14  C   UNL     1       7.269   5.022  16.038  0.00  0.00    +0.000 C 
ATOM     15  O   UNL     1       7.971   4.410  16.834  0.00  0.00    +0.000 OA
ATOM     16  H   UNL     1       8.660   5.020  14.555  0.00  0.00    +0.000 HD
ATOM     17  H   UNL     1       7.255   5.951  14.176  0.00  0.00    +0.000 HD
ENDBRANCH   7  14
ENDBRANCH   1  10
BRANCH   6  18
ATOM     18  N   UNL     1       2.108   6.160  19.111  0.00  0.00    +0.000 N 
ATOM     19  C   UNL     1       1.950   7.261  19.944  0.00  0.00    +0.000 C 
ATOM     20  O   UNL     1       1.916   7.202  21.173  0.00  0.00    +0.000 OA
ATOM     21  H   UNL     1       1.698   6.232  18.188  0.00  0.00    +0.000 HD
BRANCH  19  22
ATOM     22  C   UNL     1       1.734   8.512  19.245  0.00  0.00    +0.000 A 
ATOM     23  C   UNL     1       2.125   8.936  17.994  0.00  0.00    +0.000 A 
ATOM     24  C   UNL     1       1.590  10.238  17.823  0.00  0.00    +0.000 A 
ATOM     25  C   UNL     1       0.903  10.540  18.984  0.00  0.00    +0.000 A 
ATOM     26  O   UNL     1       0.992   9.487  19.844  0.00  0.00    +0.000 OA
BRANCH  25  27
ATOM     27  C   UNL     1       0.111  11.685  19.434  0.00  0.00    +0.000 A 
ATOM     28  C   UNL     1      -1.282  11.521  19.571  0.00  0.00    +0.000 A 
ATOM     29  C   UNL     1      -2.104  12.580  19.971  0.00  0.00    +0.000 A 
ATOM     30  C   UNL     1      -1.549  13.822  20.251  0.00  0.00    +0.000 A 
ATOM     31  C   UNL     1      -0.173  14.009  20.129  0.00  0.00    +0.000 A 
ATOM     32  C   UNL     1       0.655  12.953  19.723  0.00  0.00    +0.000 A 
ATOM     33 CL   UNL     1       2.336  13.344  19.552  0.00  0.00    +0.000 Cl
ENDBRANCH  25  27
ENDBRANCH  19  22
ENDBRANCH   6  18
TORSDOF 5
ENDMDL
MODEL 8
REMARK VINA RESULT:      -8.6      1.852      2.086
REMARK  Name = 
REMARK  5 active torsions:
REMARK  status: ('A' for Active; 'I' for Inactive)
REMARK    1  A    between atoms: C_2  and  C_4
REMARK    2  A    between atoms: N_7  and  C_8
REMARK    3  A    between atoms: C_13  and  N_14
REMARK    4  A    between atoms: C_15  and  C_17
REMARK    5  A    between atoms: C_20  and  C_21
REMARK                            x       y       z     vdW  Elec       q    Type
REMARK                         _______ _______ _______ _____ _____    ______ ____
ROOT
ATOM      1  C   UNL     1       3.508   3.976  19.353  0.00  0.00    +0.000 A 
ATOM      2  C   UNL     1       3.486   2.724  20.002  0.00  0.00    +0.000 A 
ATOM      3  C   UNL     1       2.507   2.372  20.938  0.00  0.00    +0.000 A 
ATOM      4  C   UNL     1       1.496   3.268  21.258  0.00  0.00    +0.000 A 
ATOM      5  C   UNL     1       1.440   4.489  20.595  0.00  0.00    +0.000 A 
ATOM      6  C   UNL     1       2.419   4.835  19.643  0.00  0.00    +0.000 A 
ENDROOT
BRANCH   1  10
ATOM      7  C   UNL     1       6.903   4.438  16.897  0.00  0.00    +0.000 C 
ATOM      8  C   UNL     1       5.580   3.842  16.392  0.00  0.00    +0.000 C 
ATOM      9  C   UNL     1       4.349   4.435  17.066  0.00  0.00    +0.000 C 
ATOM     10  N   UNL     1       4.562   4.336  18.514  0.00  0.00    +0.000 N 
ATOM     11  C   UNL     1       5.615   5.245  18.973  0.00  0.00    +0.000 C 
ATOM     12  C   UNL     1       6.942   4.724  18.411  0.00  0.00    +0.000 C 
BRANCH   7  14
ATOM     13  N   UNL     1       7.355   5.495  14.757  0.00  0.00    +0.000 N 
ATOM     14  C   UNL     1       7.262   5.682  16.110  0.00  0.00    +0.000 C 
ATOM     15  O   UNL     1       7.497   6.775  16.613  0.00  0.00    +0.000 OA
ATOM     16  H   UNL     1       7.490   6.327  14.196  0.00  0.00    +0.000 HD
ATOM     17  H   UNL     1       6.940   4.694  14.308  0.00  0.00    +0.000 HD
ENDBRANCH   7  14
ENDBRANCH   1  10
BRANCH   6  18
ATOM     18  N   UNL     1       2.313   6.122  19.076  0.00  0.00    +0.000 N 
ATOM     19  C   UNL     1       2.014   7.219  19.875  0.00  0.00    +0.000 C 
ATOM     20  O   UNL     1       1.837   7.163  21.091  0.00  0.00    +0.000 OA
ATOM     21  H   UNL     1       2.014   6.174  18.111  0.00  0.00    +0.000 HD
BRANCH  19  22
ATOM     22  C   UNL     1       1.834   8.457  19.144  0.00  0.00    +0.000 A 
ATOM     23  C   UNL     1       2.234   8.837  17.881  0.00  0.00    +0.000 A 
ATOM     24  C   UNL     1       1.738  10.150  17.679  0.00  0.00    +0.000 A 
ATOM     25  C   UNL     1       1.064  10.502  18.833  0.00  0.00    +0.000 A 
ATOM     26  O   UNL     1       1.124   9.469  19.720  0.00  0.00    +0.000 OA
BRANCH  25  27
ATOM     27  C   UNL     1       0.310  11.682  19.256  0.00  0.00    +0.000 A 
ATOM     28  C   UNL     1      -1.007  11.500  19.723  0.00  0.00    +0.000 A 
ATOM     29  C   UNL     1      -1.796  12.586  20.118  0.00  0.00    +0.000 A 
ATOM     30  C   UNL     1      -1.282  13.874  20.063  0.00  0.00    +0.000 A 
ATOM     31  C   UNL     1       0.020  14.081  19.611  0.00  0.00    +0.000 A 
ATOM     32  C   UNL     1       0.814  12.997  19.207  0.00  0.00    +0.000 A 
ATOM     33 CL   UNL     1       2.389  13.406  18.607  0.00  0.00    +0.000 Cl
ENDBRANCH  25  27
ENDBRANCH  19  22
ENDBRANCH   6  18
TORSDOF 5
ENDMDL
MODEL 9
REMARK VINA RESULT:      -8.6      2.177      2.558
REMARK  Name = 
REMARK  5 active torsions:
REMARK  status: ('A' for Active; 'I' for Inactive)
REMARK    1  A    between atoms: C_2  and  C_4
REMARK    2  A    between atoms: N_7  and  C_8
REMARK    3  A    between atoms: C_13  and  N_14
REMARK    4  A    between atoms: C_15  and  C_17
REMARK    5  A    between atoms: C_20  and  C_21
REMARK                            x       y       z     vdW  Elec       q    Type
REMARK                         _______ _______ _______ _____ _____    ______ ____
ROOT
ATOM      1  C   UNL     1       3.715   3.879  19.651  0.00  0.00    +0.000 A 
ATOM      2  C   UNL     1       3.741   2.556  20.139  0.00  0.00    +0.000 A 
ATOM      3  C   UNL     1       2.979   2.137  21.235  0.00  0.00    +0.000 A 
ATOM      4  C   UNL     1       2.144   3.035  21.887  0.00  0.00    +0.000 A 
ATOM      5  C   UNL     1       2.036   4.333  21.400  0.00  0.00    +0.000 A 
ATOM      6  C   UNL     1       2.794   4.748  20.288  0.00  0.00    +0.000 A 
ENDROOT
BRANCH   1  10
ATOM      7  C   UNL     1       5.906   5.649  16.515  0.00  0.00    +0.000 C 
ATOM      8  C   UNL     1       6.090   6.040  17.989  0.00  0.00    +0.000 C 
ATOM      9  C   UNL     1       5.873   4.884  18.957  0.00  0.00    +0.000 C 
ATOM     10  N   UNL     1       4.572   4.290  18.632  0.00  0.00    +0.000 N 
ATOM     11  C   UNL     1       4.600   3.592  17.343  0.00  0.00    +0.000 C 
ATOM     12  C   UNL     1       4.754   4.658  16.252  0.00  0.00    +0.000 C 
BRANCH   7  14
ATOM     13  N   UNL     1       7.420   5.453  14.625  0.00  0.00    +0.000 N 
ATOM     14  C   UNL     1       7.204   5.122  15.936  0.00  0.00    +0.000 C 
ATOM     15  O   UNL     1       8.000   4.422  16.549  0.00  0.00    +0.000 OA
ATOM     16  H   UNL     1       8.324   5.206  14.241  0.00  0.00    +0.000 HD
ATOM     17  H   UNL     1       6.919   6.209  14.185  0.00  0.00    +0.000 HD
ENDBRANCH   7  14
ENDBRANCH   1  10
BRANCH   6  18
ATOM     18  N   UNL     1       2.665   6.102  19.913  0.00  0.00    +0.000 N 
ATOM     19  C   UNL     1       2.089   6.440  18.694  0.00  0.00    +0.000 C 
ATOM     20  O   UNL     1       1.653   5.623  17.883  0.00  0.00    +0.000 OA
ATOM     21  H   UNL     1       3.354   6.747  20.279  0.00  0.00    +0.000 HD
BRANCH  19  22
ATOM     22  C   UNL     1       2.117   7.857  18.395  0.00  0.00    +0.000 A 
ATOM     23  C   UNL     1       2.973   8.609  17.619  0.00  0.00    +0.000 A 
ATOM     24  C   UNL     1       2.487   9.940  17.656  0.00  0.00    +0.000 A 
ATOM     25  C   UNL     1       1.360   9.929  18.456  0.00  0.00    +0.000 A 
ATOM     26  O   UNL     1       1.138   8.661  18.901  0.00  0.00    +0.000 OA
BRANCH  25  27
ATOM     27  C   UNL     1       0.390  10.945  18.868  0.00  0.00    +0.000 A 
ATOM     28  C   UNL     1      -0.973  10.588  18.908  0.00  0.00    +0.000 A 
ATOM     29  C   UNL     1      -1.958  11.515  19.267  0.00  0.00    +0.000 A 
ATOM     30  C   UNL     1      -1.599  12.814  19.601  0.00  0.00    +0.000 A 
ATOM     31  C   UNL     1      -0.258  13.190  19.575  0.00  0.00    +0.000 A 
ATOM     32  C   UNL     1       0.733  12.268  19.211  0.00  0.00    +0.000 A 
ATOM     33 CL   UNL     1       2.352  12.890  19.160  0.00  0.00    +0.000 Cl
ENDBRANCH  25  27
ENDBRANCH  19  22
ENDBRANCH   6  18
TORSDOF 5
ENDMDL
