MODEL 1
REMARK VINA RESULT:      -8.4      0.000      0.000
REMARK  Name = 
REMARK  5 active torsions:
REMARK  status: ('A' for Active; 'I' for Inactive)
REMARK    1  A    between atoms: C_7  and  S_8
REMARK    2  A    between atoms: S_8  and  N_11
REMARK    3  A    between atoms: N_14  and  C_15
REMARK    4  A    between atoms: C_19  and  O_20
REMARK    5  A    between atoms: O_20  and  C_21
REMARK                            x       y       z     vdW  Elec       q    Type
REMARK                         _______ _______ _______ _____ _____    ______ ____
ROOT
ATOM      1  N   UNL     1       2.689   6.844  19.228  0.00  0.00    +0.000 NA
ATOM      2  C   UNL     1       2.259   7.611  18.009  0.00  0.00    +0.000 C 
ATOM      3  C   UNL     1       2.122   9.114  18.358  0.00  0.00    +0.000 C 
ATOM      4  N   UNL     1       1.257   9.327  19.535  0.00  0.00    +0.000 N 
ATOM      5  C   UNL     1       1.549   8.479  20.706  0.00  0.00    +0.000 C 
ATOM      6  C   UNL     1       1.632   7.000  20.285  0.00  0.00    +0.000 C 
ENDROOT
BRANCH   4   7
ATOM      7  C   UNL     1       0.143  10.145  19.541  0.00  0.00    +0.000 A 
ATOM      8  C   UNL     1      -0.295  10.809  20.691  0.00  0.00    +0.000 A 
ATOM      9  C   UNL     1      -1.384  11.690  20.659  0.00  0.00    +0.000 A 
ATOM     10  C   UNL     1      -2.081  11.914  19.472  0.00  0.00    +0.000 A 
ATOM     11  C   UNL     1      -1.699  11.236  18.321  0.00  0.00    +0.000 A 
ATOM     12  C   UNL     1      -0.595  10.375  18.366  0.00  0.00    +0.000 A 
BRANCH  11  13
ATOM     13  O   UNL     1      -2.283  11.356  17.092  0.00  0.00    +0.000 OA
BRANCH  13  14
ATOM     14  C   UNL     1      -2.331  10.175  16.313  0.00  0.00    +0.000 C 
ATOM     15  F   UNL     1      -3.362   9.406  16.742  0.00  0.00    +0.000 F 
ATOM     16  F   UNL     1      -2.626  10.544  15.040  0.00  0.00    +0.000 F 
ENDBRANCH  13  14
ENDBRANCH  11  13
ENDBRANCH   4   7
BRANCH   1  17
ATOM     17  S   UNL     1       3.174   5.234  18.995  0.00  0.00    +0.000 S 
ATOM     18  O   UNL     1       2.059   4.524  18.410  0.00  0.00    +0.000 OA
ATOM     19  O   UNL     1       3.809   4.776  20.211  0.00  0.00    +0.000 OA
BRANCH  17  26
ATOM     20  O   UNL     1       7.255   4.307  12.823  0.00  0.00    +0.000 OA
ATOM     21  C   UNL     1       6.792   4.598  13.909  0.00  0.00    +0.000 A 
ATOM     22  N   UNL     1       7.442   5.293  14.938  0.00  0.00    +0.000 N 
ATOM     23  C   UNL     1       6.571   5.420  16.015  0.00  0.00    +0.000 A 
ATOM     24  C   UNL     1       6.771   6.000  17.246  0.00  0.00    +0.000 A 
ATOM     25  C   UNL     1       5.697   5.958  18.144  0.00  0.00    +0.000 A 
ATOM     26  C   UNL     1       4.469   5.348  17.777  0.00  0.00    +0.000 A 
ATOM     27  C   UNL     1       4.286   4.759  16.520  0.00  0.00    +0.000 A 
ATOM     28  C   UNL     1       5.362   4.814  15.663  0.00  0.00    +0.000 A 
ATOM     29  N   UNL     1       5.499   4.310  14.374  0.00  0.00    +0.000 N 
ATOM     30  H   UNL     1       8.394   5.615  14.881  0.00  0.00    +0.000 HD
ATOM     31  H   UNL     1       4.817   3.800  13.837  0.00  0.00    +0.000 HD
ENDBRANCH  17  26
ENDBRANCH   1  17
TORSDOF 5
ENDMDL
MODEL 2
REMARK VINA RESULT:      -8.3      4.012      9.288
REMARK  Name = 
REMARK  5 active torsions:
REMARK  status: ('A' for Active; 'I' for Inactive)
REMARK    1  A    between atoms: C_7  and  S_8
REMARK    2  A    between atoms: S_8  and  N_11
REMARK    3  A    between atoms: N_14  and  C_15
REMARK    4  A    between atoms: C_19  and  O_20
REMARK    5  A    between atoms: O_20  and  C_21
REMARK                            x       y       z     vdW  Elec       q    Type
REMARK                         _______ _______ _______ _____ _____    ______ ____
ROOT
ATOM      1  N   UNL     1       1.101   9.026  19.087  0.00  0.00    +0.000 NA
ATOM      2  C   UNL     1       2.089   9.305  17.989  0.00  0.00    +0.000 C 
ATOM      3  C   UNL     1       2.501   7.977  17.307  0.00  0.00    +0.000 C 
ATOM      4  N   UNL     1       2.965   6.977  18.288  0.00  0.00    +0.000 N 
ATOM      5  C   UNL     1       2.097   6.784  19.465  0.00  0.00    +0.000 C 
ATOM      6  C   UNL     1       1.763   8.143  20.109  0.00  0.00    +0.000 C 
ENDROOT
BRANCH   4   7
ATOM      7  C   UNL     1       4.193   6.346  18.230  0.00  0.00    +0.000 A 
ATOM      8  C   UNL     1       4.686   5.565  19.280  0.00  0.00    +0.000 A 
ATOM      9  C   UNL     1       5.901   4.876  19.174  0.00  0.00    +0.000 A 
ATOM     10  C   UNL     1       6.670   4.968  18.014  0.00  0.00    +0.000 A 
ATOM     11  C   UNL     1       6.230   5.771  16.968  0.00  0.00    +0.000 A 
ATOM     12  C   UNL     1       5.002   6.436  17.083  0.00  0.00    +0.000 A 
BRANCH  11  13
ATOM     13  O   UNL     1       6.872   5.954  15.776  0.00  0.00    +0.000 OA
BRANCH  13  14
ATOM     14  C   UNL     1       6.978   4.809  14.949  0.00  0.00    +0.000 C 
ATOM     15  F   UNL     1       5.742   4.279  14.771  0.00  0.00    +0.000 F 
ATOM     16  F   UNL     1       7.399   5.232  13.729  0.00  0.00    +0.000 F 
ENDBRANCH  13  14
ENDBRANCH  11  13
ENDBRANCH   4   7
BRANCH   1  17
ATOM     17  S   UNL     1       0.307  10.362  19.770  0.00  0.00    +0.000 S 
ATOM     18  O   UNL     1       1.179  11.506  19.628  0.00  0.00    +0.000 OA
ATOM     19  O   UNL     1      -0.216   9.964  21.058  0.00  0.00    +0.000 OA
BRANCH  17  26
ATOM     20  O   UNL     1      -6.317  12.531  17.118  0.00  0.00    +0.000 OA
ATOM     21  C   UNL     1      -5.223  12.043  17.330  0.00  0.00    +0.000 A 
ATOM     22  N   UNL     1      -4.562  11.092  16.540  0.00  0.00    +0.000 N 
ATOM     23  C   UNL     1      -3.337  10.793  17.126  0.00  0.00    +0.000 A 
ATOM     24  C   UNL     1      -2.364   9.906  16.729  0.00  0.00    +0.000 A 
ATOM     25  C   UNL     1      -1.230   9.809  17.546  0.00  0.00    +0.000 A 
ATOM     26  C   UNL     1      -1.110  10.602  18.717  0.00  0.00    +0.000 A 
ATOM     27  C   UNL     1      -2.114  11.497  19.106  0.00  0.00    +0.000 A 
ATOM     28  C   UNL     1      -3.217  11.565  18.285  0.00  0.00    +0.000 A 
ATOM     29  N   UNL     1      -4.371  12.329  18.408  0.00  0.00    +0.000 N 
ATOM     30  H   UNL     1      -4.951  10.695  15.700  0.00  0.00    +0.000 HD
ATOM     31  H   UNL     1      -4.607  12.975  19.145  0.00  0.00    +0.000 HD
ENDBRANCH  17  26
ENDBRANCH   1  17
TORSDOF 5
ENDMDL
MODEL 3
REMARK VINA RESULT:      -8.3      4.017      8.756
REMARK  Name = 
REMARK  5 active torsions:
REMARK  status: ('A' for Active; 'I' for Inactive)
REMARK    1  A    between atoms: C_7  and  S_8
REMARK    2  A    between atoms: S_8  and  N_11
REMARK    3  A    between atoms: N_14  and  C_15
REMARK    4  A    between atoms: C_19  and  O_20
REMARK    5  A    between atoms: O_20  and  C_21
REMARK                            x       y       z     vdW  Elec       q    Type
REMARK                         _______ _______ _______ _____ _____    ______ ____
ROOT
ATOM      1  N   UNL     1       1.299   8.748  19.179  0.00  0.00    +0.000 NA
ATOM      2  C   UNL     1       2.348   9.196  18.199  0.00  0.00    +0.000 C 
ATOM      3  C   UNL     1       2.827   7.988  17.357  0.00  0.00    +0.000 C 
ATOM      4  N   UNL     1       3.248   6.858  18.209  0.00  0.00    +0.000 N 
ATOM      5  C   UNL     1       2.312   6.485  19.287  0.00  0.00    +0.000 C 
ATOM      6  C   UNL     1       1.913   7.730  20.100  0.00  0.00    +0.000 C 
ENDROOT
BRANCH   4   7
ATOM      7  C   UNL     1       4.489   6.254  18.138  0.00  0.00    +0.000 A 
ATOM      8  C   UNL     1       5.040   5.542  19.209  0.00  0.00    +0.000 A 
ATOM      9  C   UNL     1       6.268   4.878  19.093  0.00  0.00    +0.000 A 
ATOM     10  C   UNL     1       6.991   4.926  17.902  0.00  0.00    +0.000 A 
ATOM     11  C   UNL     1       6.493   5.662  16.833  0.00  0.00    +0.000 A 
ATOM     12  C   UNL     1       5.254   6.303  16.959  0.00  0.00    +0.000 A 
BRANCH  11  13
ATOM     13  O   UNL     1       7.087   5.797  15.610  0.00  0.00    +0.000 OA
BRANCH  13  14
ATOM     14  C   UNL     1       6.541   5.009  14.568  0.00  0.00    +0.000 C 
ATOM     15  F   UNL     1       7.367   5.065  13.494  0.00  0.00    +0.000 F 
ATOM     16  F   UNL     1       6.545   3.719  14.995  0.00  0.00    +0.000 F 
ENDBRANCH  13  14
ENDBRANCH  11  13
ENDBRANCH   4   7
BRANCH   1  17
ATOM     17  S   UNL     1       0.439   9.961  19.997  0.00  0.00    +0.000 S 
ATOM     18  O   UNL     1       1.314  11.104  20.128  0.00  0.00    +0.000 OA
ATOM     19  O   UNL     1      -0.199   9.361  21.148  0.00  0.00    +0.000 OA
BRANCH  17  26
ATOM     20  O   UNL     1      -4.012  10.260  14.021  0.00  0.00    +0.000 OA
ATOM     21  C   UNL     1      -3.437  10.401  15.084  0.00  0.00    +0.000 A 
ATOM     22  N   UNL     1      -3.691  11.385  16.049  0.00  0.00    +0.000 N 
ATOM     23  C   UNL     1      -2.818  11.204  17.116  0.00  0.00    +0.000 A 
ATOM     24  C   UNL     1      -2.678  11.935  18.273  0.00  0.00    +0.000 A 
ATOM     25  C   UNL     1      -1.684  11.516  19.166  0.00  0.00    +0.000 A 
ATOM     26  C   UNL     1      -0.877  10.386  18.873  0.00  0.00    +0.000 A 
ATOM     27  C   UNL     1      -1.032   9.657  17.688  0.00  0.00    +0.000 A 
ATOM     28  C   UNL     1      -2.015  10.098  16.830  0.00  0.00    +0.000 A 
ATOM     29  N   UNL     1      -2.394   9.608  15.586  0.00  0.00    +0.000 N 
ATOM     30  H   UNL     1      -4.390  12.103  15.945  0.00  0.00    +0.000 HD
ATOM     31  H   UNL     1      -1.998   8.829  15.083  0.00  0.00    +0.000 HD
ENDBRANCH  17  26
ENDBRANCH   1  17
TORSDOF 5
ENDMDL
MODEL 4
REMARK VINA RESULT:      -8.0      4.142      9.427
REMARK  Name = 
REMARK  5 active torsions:
REMARK  status: ('A' for Active; 'I' for Inactive)
REMARK    1  A    between atoms: C_7  and  S_8
REMARK    2  A    between atoms: S_8  and  N_11
REMARK    3  A    between atoms: N_14  and  C_15
REMARK    4  A    between atoms: C_19  and  O_20
REMARK    5  A    between atoms: O_20  and  C_21
REMARK                            x       y       z     vdW  Elec       q    Type
REMARK                         _______ _______ _______ _____ _____    ______ ____
ROOT
ATOM      1  N   UNL     1       1.032   9.118  19.055  0.00  0.00    +0.000 NA
ATOM      2  C   UNL     1       1.971   9.268  17.891  0.00  0.00    +0.000 C 
ATOM      3  C   UNL     1       2.308   7.873  17.308  0.00  0.00    +0.000 C 
ATOM      4  N   UNL     1       2.790   6.945  18.351  0.00  0.00    +0.000 N 
ATOM      5  C   UNL     1       1.976   6.884  19.580  0.00  0.00    +0.000 C 
ATOM      6  C   UNL     1       1.717   8.304  20.117  0.00  0.00    +0.000 C 
ENDROOT
BRANCH   4   7
ATOM      7  C   UNL     1       3.993   6.269  18.290  0.00  0.00    +0.000 A 
ATOM      8  C   UNL     1       5.112   6.785  17.629  0.00  0.00    +0.000 A 
ATOM      9  C   UNL     1       6.343   6.117  17.640  0.00  0.00    +0.000 A 
ATOM     10  C   UNL     1       6.482   4.896  18.298  0.00  0.00    +0.000 A 
ATOM     11  C   UNL     1       5.379   4.333  18.928  0.00  0.00    +0.000 A 
ATOM     12  C   UNL     1       4.160   5.025  18.925  0.00  0.00    +0.000 A 
BRANCH  11  13
ATOM     13  O   UNL     1       5.365   3.150  19.611  0.00  0.00    +0.000 OA
BRANCH  13  14
ATOM     14  C   UNL     1       4.085   2.606  19.878  0.00  0.00    +0.000 C 
ATOM     15  F   UNL     1       3.860   1.573  19.029  0.00  0.00    +0.000 F 
ATOM     16  F   UNL     1       4.125   2.079  21.129  0.00  0.00    +0.000 F 
ENDBRANCH  13  14
ENDBRANCH  11  13
ENDBRANCH   4   7
BRANCH   1  17
ATOM     17  S   UNL     1       0.314  10.535  19.655  0.00  0.00    +0.000 S 
ATOM     18  O   UNL     1       1.211  11.632  19.369  0.00  0.00    +0.000 OA
ATOM     19  O   UNL     1      -0.152  10.269  20.998  0.00  0.00    +0.000 OA
BRANCH  17  26
ATOM     20  O   UNL     1      -6.467  12.502  17.255  0.00  0.00    +0.000 OA
ATOM     21  C   UNL     1      -5.352  12.047  17.425  0.00  0.00    +0.000 A 
ATOM     22  N   UNL     1      -4.695  11.113  16.613  0.00  0.00    +0.000 N 
ATOM     23  C   UNL     1      -3.440  10.852  17.152  0.00  0.00    +0.000 A 
ATOM     24  C   UNL     1      -2.456   9.992  16.720  0.00  0.00    +0.000 A 
ATOM     25  C   UNL     1      -1.290   9.931  17.492  0.00  0.00    +0.000 A 
ATOM     26  C   UNL     1      -1.149  10.730  18.656  0.00  0.00    +0.000 A 
ATOM     27  C   UNL     1      -2.162  11.597  19.082  0.00  0.00    +0.000 A 
ATOM     28  C   UNL     1      -3.298  11.630  18.303  0.00  0.00    +0.000 A 
ATOM     29  N   UNL     1      -4.469  12.361  18.470  0.00  0.00    +0.000 N 
ATOM     30  H   UNL     1      -5.104  10.702  15.789  0.00  0.00    +0.000 HD
ATOM     31  H   UNL     1      -4.694  13.002  19.213  0.00  0.00    +0.000 HD
ENDBRANCH  17  26
ENDBRANCH   1  17
TORSDOF 5
ENDMDL
MODEL 5
REMARK VINA RESULT:      -7.9      4.321      9.413
REMARK  Name = 
REMARK  5 active torsions:
REMARK  status: ('A' for Active; 'I' for Inactive)
REMARK    1  A    between atoms: C_7  and  S_8
REMARK    2  A    between atoms: S_8  and  N_11
REMARK    3  A    between atoms: N_14  and  C_15
REMARK    4  A    between atoms: C_19  and  O_20
REMARK    5  A    between atoms: O_20  and  C_21
REMARK                            x       y       z     vdW  Elec       q    Type
REMARK                         _______ _______ _______ _____ _____    ______ ____
ROOT
ATOM      1  N   UNL     1       0.959   9.177  19.139  0.00  0.00    +0.000 NA
ATOM      2  C   UNL     1       1.908   9.291  17.979  0.00  0.00    +0.000 C 
ATOM      3  C   UNL     1       2.246   7.879  17.440  0.00  0.00    +0.000 C 
ATOM      4  N   UNL     1       2.718   6.981  18.513  0.00  0.00    +0.000 N 
ATOM      5  C   UNL     1       1.895   6.957  19.737  0.00  0.00    +0.000 C 
ATOM      6  C   UNL     1       1.634   8.393  20.230  0.00  0.00    +0.000 C 
ENDROOT
BRANCH   4   7
ATOM      7  C   UNL     1       3.921   6.301  18.482  0.00  0.00    +0.000 A 
ATOM      8  C   UNL     1       4.074   5.021  19.024  0.00  0.00    +0.000 A 
ATOM      9  C   UNL     1       5.283   4.321  18.919  0.00  0.00    +0.000 A 
ATOM     10  C   UNL     1       6.383   4.895  18.283  0.00  0.00    +0.000 A 
ATOM     11  C   UNL     1       6.278   6.183  17.772  0.00  0.00    +0.000 A 
ATOM     12  C   UNL     1       5.055   6.861  17.868  0.00  0.00    +0.000 A 
BRANCH  11  13
ATOM     13  O   UNL     1       7.266   6.869  17.125  0.00  0.00    +0.000 OA
BRANCH  13  14
ATOM     14  C   UNL     1       7.844   7.944  17.843  0.00  0.00    +0.000 C 
ATOM     15  F   UNL     1       8.664   7.444  18.800  0.00  0.00    +0.000 F 
ATOM     16  F   UNL     1       8.632   8.630  16.975  0.00  0.00    +0.000 F 
ENDBRANCH  13  14
ENDBRANCH  11  13
ENDBRANCH   4   7
BRANCH   1  17
ATOM     17  S   UNL     1       0.239  10.612  19.692  0.00  0.00    +0.000 S 
ATOM     18  O   UNL     1       1.140  11.699  19.381  0.00  0.00    +0.000 OA
ATOM     19  O   UNL     1      -0.239  10.386  21.038  0.00  0.00    +0.000 OA
BRANCH  17  26
ATOM     20  O   UNL     1      -6.536  12.482  17.198  0.00  0.00    +0.000 OA
ATOM     21  C   UNL     1      -5.418  12.041  17.385  0.00  0.00    +0.000 A 
ATOM     22  N   UNL     1      -4.744  11.102  16.592  0.00  0.00    +0.000 N 
ATOM     23  C   UNL     1      -3.492  10.860  17.147  0.00  0.00    +0.000 A 
ATOM     24  C   UNL     1      -2.496  10.005  16.736  0.00  0.00    +0.000 A 
ATOM     25  C   UNL     1      -1.337   9.964  17.521  0.00  0.00    +0.000 A 
ATOM     26  C   UNL     1      -1.215  10.780  18.676  0.00  0.00    +0.000 A 
ATOM     27  C   UNL     1      -2.242  11.643  19.081  0.00  0.00    +0.000 A 
ATOM     28  C   UNL     1      -3.369  11.655  18.290  0.00  0.00    +0.000 A 
ATOM     29  N   UNL     1      -4.548  12.376  18.435  0.00  0.00    +0.000 N 
ATOM     30  H   UNL     1      -5.140  10.677  15.770  0.00  0.00    +0.000 HD
ATOM     31  H   UNL     1      -4.788  13.025  19.168  0.00  0.00    +0.000 HD
ENDBRANCH  17  26
ENDBRANCH   1  17
TORSDOF 5
ENDMDL
MODEL 6
REMARK VINA RESULT:      -7.9      2.437      2.930
REMARK  Name = 
REMARK  5 active torsions:
REMARK  status: ('A' for Active; 'I' for Inactive)
REMARK    1  A    between atoms: C_7  and  S_8
REMARK    2  A    between atoms: S_8  and  N_11
REMARK    3  A    between atoms: N_14  and  C_15
REMARK    4  A    between atoms: C_19  and  O_20
REMARK    5  A    between atoms: O_20  and  C_21
REMARK                            x       y       z     vdW  Elec       q    Type
REMARK                         _______ _______ _______ _____ _____    ______ ____
ROOT
ATOM      1  N   UNL     1       2.345   6.885  19.461  0.00  0.00    +0.000 NA
ATOM      2  C   UNL     1       1.931   7.603  18.207  0.00  0.00    +0.000 C 
ATOM      3  C   UNL     1       1.907   9.130  18.464  0.00  0.00    +0.000 C 
ATOM      4  N   UNL     1       1.094   9.475  19.647  0.00  0.00    +0.000 N 
ATOM      5  C   UNL     1       1.364   8.683  20.862  0.00  0.00    +0.000 C 
ATOM      6  C   UNL     1       1.333   7.179  20.534  0.00  0.00    +0.000 C 
ENDROOT
BRANCH   4   7
ATOM      7  C   UNL     1       0.039  10.368  19.629  0.00  0.00    +0.000 A 
ATOM      8  C   UNL     1      -0.776  10.545  18.507  0.00  0.00    +0.000 A 
ATOM      9  C   UNL     1      -1.883  11.403  18.533  0.00  0.00    +0.000 A 
ATOM     10  C   UNL     1      -2.193  12.126  19.684  0.00  0.00    +0.000 A 
ATOM     11  C   UNL     1      -1.379  12.006  20.803  0.00  0.00    +0.000 A 
ATOM     12  C   UNL     1      -0.287  11.128  20.767  0.00  0.00    +0.000 A 
BRANCH  11  13
ATOM     13  O   UNL     1      -1.560  12.647  21.996  0.00  0.00    +0.000 OA
BRANCH  13  14
ATOM     14  C   UNL     1      -2.441  12.017  22.908  0.00  0.00    +0.000 C 
ATOM     15  F   UNL     1      -1.802  10.972  23.487  0.00  0.00    +0.000 F 
ATOM     16  F   UNL     1      -2.702  12.911  23.897  0.00  0.00    +0.000 F 
ENDBRANCH  13  14
ENDBRANCH  11  13
ENDBRANCH   4   7
BRANCH   1  17
ATOM     17  S   UNL     1       2.711   5.233  19.319  0.00  0.00    +0.000 S 
ATOM     18  O   UNL     1       1.688   4.629  18.496  0.00  0.00    +0.000 OA
ATOM     19  O   UNL     1       3.018   4.726  20.639  0.00  0.00    +0.000 OA
BRANCH  17  26
ATOM     20  O   UNL     1       7.745   5.343  13.819  0.00  0.00    +0.000 OA
ATOM     21  C   UNL     1       7.130   5.282  14.866  0.00  0.00    +0.000 A 
ATOM     22  N   UNL     1       7.651   4.955  16.126  0.00  0.00    +0.000 N 
ATOM     23  C   UNL     1       6.623   4.995  17.061  0.00  0.00    +0.000 A 
ATOM     24  C   UNL     1       6.649   4.726  18.410  0.00  0.00    +0.000 A 
ATOM     25  C   UNL     1       5.433   4.834  19.097  0.00  0.00    +0.000 A 
ATOM     26  C   UNL     1       4.246   5.211  18.415  0.00  0.00    +0.000 A 
ATOM     27  C   UNL     1       4.239   5.477  17.040  0.00  0.00    +0.000 A 
ATOM     28  C   UNL     1       5.450   5.357  16.394  0.00  0.00    +0.000 A 
ATOM     29  N   UNL     1       5.761   5.532  15.051  0.00  0.00    +0.000 N 
ATOM     30  H   UNL     1       8.616   4.716  16.287  0.00  0.00    +0.000 HD
ATOM     31  H   UNL     1       5.135   5.776  14.300  0.00  0.00    +0.000 HD
ENDBRANCH  17  26
ENDBRANCH   1  17
TORSDOF 5
ENDMDL
MODEL 7
REMARK VINA RESULT:      -7.9      4.159      8.844
REMARK  Name = 
REMARK  5 active torsions:
REMARK  status: ('A' for Active; 'I' for Inactive)
REMARK    1  A    between atoms: C_7  and  S_8
REMARK    2  A    between atoms: S_8  and  N_11
REMARK    3  A    between atoms: N_14  and  C_15
REMARK    4  A    between atoms: C_19  and  O_20
REMARK    5  A    between atoms: O_20  and  C_21
REMARK                            x       y       z     vdW  Elec       q    Type
REMARK                         _______ _______ _______ _____ _____    ______ ____
ROOT
ATOM      1  N   UNL     1       1.311   8.537  19.307  0.00  0.00    +0.000 NA
ATOM      2  C   UNL     1       2.191   9.070  18.212  0.00  0.00    +0.000 C 
ATOM      3  C   UNL     1       2.604   7.916  17.265  0.00  0.00    +0.000 C 
ATOM      4  N   UNL     1       3.191   6.782  18.005  0.00  0.00    +0.000 N 
ATOM      5  C   UNL     1       2.432   6.326  19.185  0.00  0.00    +0.000 C 
ATOM      6  C   UNL     1       2.093   7.523  20.094  0.00  0.00    +0.000 C 
ENDROOT
BRANCH   4   7
ATOM      7  C   UNL     1       4.437   6.245  17.741  0.00  0.00    +0.000 A 
ATOM      8  C   UNL     1       4.661   4.867  17.672  0.00  0.00    +0.000 A 
ATOM      9  C   UNL     1       5.915   4.344  17.332  0.00  0.00    +0.000 A 
ATOM     10  C   UNL     1       6.991   5.193  17.072  0.00  0.00    +0.000 A 
ATOM     11  C   UNL     1       6.813   6.567  17.175  0.00  0.00    +0.000 A 
ATOM     12  C   UNL     1       5.546   7.073  17.495  0.00  0.00    +0.000 A 
BRANCH  11  13
ATOM     13  O   UNL     1       7.769   7.516  16.948  0.00  0.00    +0.000 OA
BRANCH  13  14
ATOM     14  C   UNL     1       7.986   8.439  18.000  0.00  0.00    +0.000 C 
ATOM     15  F   UNL     1       8.767   7.857  18.943  0.00  0.00    +0.000 F 
ATOM     16  F   UNL     1       8.701   9.473  17.486  0.00  0.00    +0.000 F 
ENDBRANCH  13  14
ENDBRANCH  11  13
ENDBRANCH   4   7
BRANCH   1  17
ATOM     17  S   UNL     1       0.517   9.677  20.283  0.00  0.00    +0.000 S 
ATOM     18  O   UNL     1       1.447  10.754  20.539  0.00  0.00    +0.000 OA
ATOM     19  O   UNL     1      -0.135   8.968  21.363  0.00  0.00    +0.000 OA
BRANCH  17  26
ATOM     20  O   UNL     1      -3.937  10.972  14.445  0.00  0.00    +0.000 OA
ATOM     21  C   UNL     1      -3.357  10.940  15.513  0.00  0.00    +0.000 A 
ATOM     22  N   UNL     1      -3.584  11.774  16.616  0.00  0.00    +0.000 N 
ATOM     23  C   UNL     1      -2.713  11.416  17.639  0.00  0.00    +0.000 A 
ATOM     24  C   UNL     1      -2.552  11.962  18.891  0.00  0.00    +0.000 A 
ATOM     25  C   UNL     1      -1.567  11.390  19.705  0.00  0.00    +0.000 A 
ATOM     26  C   UNL     1      -0.789  10.297  19.243  0.00  0.00    +0.000 A 
ATOM     27  C   UNL     1      -0.966   9.756  17.963  0.00  0.00    +0.000 A 
ATOM     28  C   UNL     1      -1.939  10.345  17.186  0.00  0.00    +0.000 A 
ATOM     29  N   UNL     1      -2.333  10.054  15.885  0.00  0.00    +0.000 N 
ATOM     30  H   UNL     1      -4.264  12.518  16.624  0.00  0.00    +0.000 HD
ATOM     31  H   UNL     1      -1.958   9.350  15.271  0.00  0.00    +0.000 HD
ENDBRANCH  17  26
ENDBRANCH   1  17
TORSDOF 5
ENDMDL
MODEL 8
REMARK VINA RESULT:      -7.8      2.132      2.705
REMARK  Name = 
REMARK  5 active torsions:
REMARK  status: ('A' for Active; 'I' for Inactive)
REMARK    1  A    between atoms: C_7  and  S_8
REMARK    2  A    between atoms: S_8  and  N_11
REMARK    3  A    between atoms: N_14  and  C_15
REMARK    4  A    between atoms: C_19  and  O_20
REMARK    5  A    between atoms: O_20  and  C_21
REMARK                            x       y       z     vdW  Elec       q    Type
REMARK                         _______ _______ _______ _____ _____    ______ ____
ROOT
ATOM      1  N   UNL     1       2.838   6.868  19.074  0.00  0.00    +0.000 NA
ATOM      2  C   UNL     1       2.456   7.585  17.810  0.00  0.00    +0.000 C 
ATOM      3  C   UNL     1       2.240   9.089  18.107  0.00  0.00    +0.000 C 
ATOM      4  N   UNL     1       1.295   9.298  19.222  0.00  0.00    +0.000 N 
ATOM      5  C   UNL     1       1.545   8.493  20.432  0.00  0.00    +0.000 C 
ATOM      6  C   UNL     1       1.711   7.008  20.059  0.00  0.00    +0.000 C 
ENDROOT
BRANCH   4   7
ATOM      7  C   UNL     1       0.153  10.071  19.135  0.00  0.00    +0.000 A 
ATOM      8  C   UNL     1      -0.760   9.946  18.083  0.00  0.00    +0.000 A 
ATOM      9  C   UNL     1      -1.948  10.689  18.051  0.00  0.00    +0.000 A 
ATOM     10  C   UNL     1      -2.244  11.597  19.067  0.00  0.00    +0.000 A 
ATOM     11  C   UNL     1      -1.338  11.777  20.104  0.00  0.00    +0.000 A 
ATOM     12  C   UNL     1      -0.165  11.011  20.132  0.00  0.00    +0.000 A 
BRANCH  11  13
ATOM     13  O   UNL     1      -1.494  12.625  21.164  0.00  0.00    +0.000 OA
BRANCH  13  14
ATOM     14  C   UNL     1      -1.011  12.153  22.409  0.00  0.00    +0.000 C 
ATOM     15  F   UNL     1      -0.932  13.194  23.274  0.00  0.00    +0.000 F 
ATOM     16  F   UNL     1      -1.946  11.303  22.907  0.00  0.00    +0.000 F 
ENDBRANCH  13  14
ENDBRANCH  11  13
ENDBRANCH   4   7
BRANCH   1  17
ATOM     17  S   UNL     1       3.397   5.272  18.918  0.00  0.00    +0.000 S 
ATOM     18  O   UNL     1       2.304   4.475  18.409  0.00  0.00    +0.000 OA
ATOM     19  O   UNL     1       4.089   4.917  20.137  0.00  0.00    +0.000 OA
BRANCH  17  26
ATOM     20  O   UNL     1       7.266   4.308  12.616  0.00  0.00    +0.000 OA
ATOM     21  C   UNL     1       6.840   4.606  13.715  0.00  0.00    +0.000 A 
ATOM     22  N   UNL     1       7.524   5.308  14.717  0.00  0.00    +0.000 N 
ATOM     23  C   UNL     1       6.690   5.442  15.822  0.00  0.00    +0.000 A 
ATOM     24  C   UNL     1       6.932   6.030  17.042  0.00  0.00    +0.000 A 
ATOM     25  C   UNL     1       5.889   5.993  17.976  0.00  0.00    +0.000 A 
ATOM     26  C   UNL     1       4.650   5.379  17.656  0.00  0.00    +0.000 A 
ATOM     27  C   UNL     1       4.424   4.782  16.409  0.00  0.00    +0.000 A 
ATOM     28  C   UNL     1       5.471   4.832  15.515  0.00  0.00    +0.000 A 
ATOM     29  N   UNL     1       5.564   4.320  14.227  0.00  0.00    +0.000 N 
ATOM     30  H   UNL     1       8.473   5.631  14.625  0.00  0.00    +0.000 HD
ATOM     31  H   UNL     1       4.864   3.805  13.716  0.00  0.00    +0.000 HD
ENDBRANCH  17  26
ENDBRANCH   1  17
TORSDOF 5
ENDMDL
MODEL 9
REMARK VINA RESULT:      -7.8      2.926      3.577
REMARK  Name = 
REMARK  5 active torsions:
REMARK  status: ('A' for Active; 'I' for Inactive)
REMARK    1  A    between atoms: C_7  and  S_8
REMARK    2  A    between atoms: S_8  and  N_11
REMARK    3  A    between atoms: N_14  and  C_15
REMARK    4  A    between atoms: C_19  and  O_20
REMARK    5  A    between atoms: O_20  and  C_21
REMARK                            x       y       z     vdW  Elec       q    Type
REMARK                         _______ _______ _______ _____ _____    ______ ____
ROOT
ATOM      1  N   UNL     1       3.064   4.527  18.946  0.00  0.00    +0.000 NA
ATOM      2  C   UNL     1       3.128   5.205  20.286  0.00  0.00    +0.000 C 
ATOM      3  C   UNL     1       1.861   6.070  20.495  0.00  0.00    +0.000 C 
ATOM      4  N   UNL     1       1.637   6.996  19.366  0.00  0.00    +0.000 N 
ATOM      5  C   UNL     1       1.720   6.397  18.021  0.00  0.00    +0.000 C 
ATOM      6  C   UNL     1       3.022   5.585  17.879  0.00  0.00    +0.000 C 
ENDROOT
BRANCH   4   7
ATOM      7  C   UNL     1       1.502   8.364  19.502  0.00  0.00    +0.000 A 
ATOM      8  C   UNL     1       1.759   9.252  18.451  0.00  0.00    +0.000 A 
ATOM      9  C   UNL     1       1.549  10.630  18.588  0.00  0.00    +0.000 A 
ATOM     10  C   UNL     1       1.092  11.162  19.793  0.00  0.00    +0.000 A 
ATOM     11  C   UNL     1       0.869  10.313  20.870  0.00  0.00    +0.000 A 
ATOM     12  C   UNL     1       1.065   8.935  20.710  0.00  0.00    +0.000 A 
BRANCH  11  13
ATOM     13  O   UNL     1       0.421  10.689  22.105  0.00  0.00    +0.000 OA
BRANCH  13  14
ATOM     14  C   UNL     1      -0.216   9.678  22.865  0.00  0.00    +0.000 C 
ATOM     15  F   UNL     1       0.594   9.326  23.894  0.00  0.00    +0.000 F 
ATOM     16  F   UNL     1      -1.328  10.230  23.416  0.00  0.00    +0.000 F 
ENDBRANCH  13  14
ENDBRANCH  11  13
ENDBRANCH   4   7
BRANCH   1  17
ATOM     17  S   UNL     1       4.210   3.312  18.640  0.00  0.00    +0.000 S 
ATOM     18  O   UNL     1       3.515   2.202  18.027  0.00  0.00    +0.000 OA
ATOM     19  O   UNL     1       5.010   3.138  19.832  0.00  0.00    +0.000 OA
BRANCH  17  26
ATOM     20  O   UNL     1       7.679   4.913  12.236  0.00  0.00    +0.000 OA
ATOM     21  C   UNL     1       7.281   4.821  13.381  0.00  0.00    +0.000 A 
ATOM     22  N   UNL     1       7.846   5.420  14.515  0.00  0.00    +0.000 N 
ATOM     23  C   UNL     1       7.096   5.065  15.632  0.00  0.00    +0.000 A 
ATOM     24  C   UNL     1       7.280   5.391  16.956  0.00  0.00    +0.000 A 
ATOM     25  C   UNL     1       6.358   4.862  17.868  0.00  0.00    +0.000 A 
ATOM     26  C   UNL     1       5.291   4.039  17.424  0.00  0.00    +0.000 A 
ATOM     27  C   UNL     1       5.122   3.715  16.072  0.00  0.00    +0.000 A 
ATOM     28  C   UNL     1       6.048   4.248  15.202  0.00  0.00    +0.000 A 
ATOM     29  N   UNL     1       6.163   4.098  13.825  0.00  0.00    +0.000 N 
ATOM     30  H   UNL     1       8.673   5.993  14.491  0.00  0.00    +0.000 HD
ATOM     31  H   UNL     1       5.575   3.553  13.214  0.00  0.00    +0.000 HD
ENDBRANCH  17  26
ENDBRANCH   1  17
TORSDOF 5
ENDMDL
