MODEL 1
REMARK VINA RESULT:      -9.4      0.000      0.000
REMARK  Name = 
REMARK  3 active torsions:
REMARK  status: ('A' for Active; 'I' for Inactive)
REMARK    1  A    between atoms: C_1  and  C_2
REMARK    2  A    between atoms: C_2  and  C_3
REMARK    3  A    between atoms: C_7  and  C_8
REMARK                            x       y       z     vdW  Elec       q    Type
REMARK                         _______ _______ _______ _____ _____    ______ ____
ROOT
ATOM      1  C   UNL     1       2.281   6.337  19.385  0.00  0.00    +0.000 A 
ATOM      2  C   UNL     1       2.408   6.927  18.113  0.00  0.00    +0.000 A 
ATOM      3  C   UNL     1       2.064   8.261  17.894  0.00  0.00    +0.000 A 
ATOM      4  C   UNL     1       1.585   9.046  18.946  0.00  0.00    +0.000 A 
ATOM      5  C   UNL     1       1.512   8.512  20.238  0.00  0.00    +0.000 A 
ATOM      6  C   UNL     1       1.838   7.158  20.443  0.00  0.00    +0.000 A 
ENDROOT
BRANCH   5   7
ATOM      7  C   UNL     1       0.926   9.293  21.369  0.00  0.00    +0.000 C 
ATOM      8  O   UNL     1       1.154   8.867  22.502  0.00  0.00    +0.000 OA
ATOM      9  N   UNL     1       0.154  10.437  21.157  0.00  0.00    +0.000 N 
ATOM     10  C   UNL     1      -0.545  11.020  22.327  0.00  0.00    +0.000 C 
ATOM     11  C   UNL     1      -1.082  12.443  22.069  0.00  0.00    +0.000 C 
ATOM     12  C   UNL     1      -1.953  12.348  20.836  0.00  0.00    +0.000 A 
ATOM     13  C   UNL     1      -3.286  12.756  20.841  0.00  0.00    +0.000 A 
ATOM     14  C   UNL     1      -4.106  12.365  19.794  0.00  0.00    +0.000 A 
ATOM     15  F   UNL     1      -5.415  12.643  19.846  0.00  0.00    +0.000 F 
ATOM     16  C   UNL     1      -3.608  11.639  18.716  0.00  0.00    +0.000 A 
ATOM     17  C   UNL     1      -2.250  11.309  18.663  0.00  0.00    +0.000 A 
ATOM     18 BR   UNL     1      -1.650  10.365  17.133  0.00  0.00    +0.000 Br
ATOM     19  C   UNL     1      -1.410  11.640  19.731  0.00  0.00    +0.000 A 
ATOM     20  C   UNL     1       0.023  11.176  19.894  0.00  0.00    +0.000 C 
ENDBRANCH   5   7
BRANCH   1  22
ATOM     21  C   UNL     1       3.884   4.387  18.930  0.00  0.00    +0.000 C 
ATOM     22  C   UNL     1       2.562   4.843  19.553  0.00  0.00    +0.000 C 
ATOM     23  N   UNL     1       2.498   4.395  20.931  0.00  0.00    +0.000 N 
ATOM     24  C   UNL     1       1.522   3.455  21.148  0.00  0.00    +0.000 C 
ATOM     25  O   UNL     1       1.344   2.860  22.193  0.00  0.00    +0.000 OA
ATOM     26  N   UNL     1       0.836   3.266  19.995  0.00  0.00    +0.000 N 
ATOM     27  C   UNL     1       1.404   3.977  18.982  0.00  0.00    +0.000 C 
ATOM     28  O   UNL     1       1.072   3.887  17.808  0.00  0.00    +0.000 OA
ATOM     29  H   UNL     1       3.165   4.622  21.656  0.00  0.00    +0.000 HD
ATOM     30  H   UNL     1       0.099   2.594  19.883  0.00  0.00    +0.000 HD
ENDBRANCH   1  22
TORSDOF 2
ENDMDL
MODEL 2
REMARK VINA RESULT:      -9.4      1.395      1.930
REMARK  Name = 
REMARK  3 active torsions:
REMARK  status: ('A' for Active; 'I' for Inactive)
REMARK    1  A    between atoms: C_1  and  C_2
REMARK    2  A    between atoms: C_2  and  C_3
REMARK    3  A    between atoms: C_7  and  C_8
REMARK                            x       y       z     vdW  Elec       q    Type
REMARK                         _______ _______ _______ _____ _____    ______ ____
ROOT
ATOM      1  C   UNL     1       2.185   6.931  19.317  0.00  0.00    +0.000 A 
ATOM      2  C   UNL     1       2.373   7.476  18.033  0.00  0.00    +0.000 A 
ATOM      3  C   UNL     1       2.038   8.801  17.752  0.00  0.00    +0.000 A 
ATOM      4  C   UNL     1       1.507   9.620  18.750  0.00  0.00    +0.000 A 
ATOM      5  C   UNL     1       1.372   9.132  20.055  0.00  0.00    +0.000 A 
ATOM      6  C   UNL     1       1.690   7.787  20.324  0.00  0.00    +0.000 A 
ENDROOT
BRANCH   5   7
ATOM      7  C   UNL     1       0.731   9.951  21.127  0.00  0.00    +0.000 C 
ATOM      8  O   UNL     1       1.041   9.671  22.287  0.00  0.00    +0.000 OA
ATOM      9  N   UNL     1      -0.180  10.969  20.838  0.00  0.00    +0.000 N 
ATOM     10  C   UNL     1      -0.909  11.583  21.973  0.00  0.00    +0.000 C 
ATOM     11  C   UNL     1      -1.619  12.899  21.600  0.00  0.00    +0.000 C 
ATOM     12  C   UNL     1      -2.509  12.579  20.419  0.00  0.00    +0.000 A 
ATOM     13  C   UNL     1      -3.881  12.827  20.441  0.00  0.00    +0.000 A 
ATOM     14  C   UNL     1      -4.679  12.239  19.471  0.00  0.00    +0.000 A 
ATOM     15  F   UNL     1      -6.009  12.366  19.550  0.00  0.00    +0.000 F 
ATOM     16  C   UNL     1      -4.129  11.470  18.450  0.00  0.00    +0.000 A 
ATOM     17  C   UNL     1      -2.743  11.297  18.372  0.00  0.00    +0.000 A 
ATOM     18 BR   UNL     1      -2.080  10.278  16.918  0.00  0.00    +0.000 Br
ATOM     19  C   UNL     1      -1.918  11.830  19.367  0.00  0.00    +0.000 A 
ATOM     20  C   UNL     1      -0.435  11.556  19.515  0.00  0.00    +0.000 C 
ENDBRANCH   5   7
BRANCH   1  22
ATOM     21  C   UNL     1       2.185   4.982  20.987  0.00  0.00    +0.000 C 
ATOM     22  C   UNL     1       2.459   5.444  19.552  0.00  0.00    +0.000 C 
ATOM     23  N   UNL     1       1.763   4.575  18.623  0.00  0.00    +0.000 N 
ATOM     24  C   UNL     1       2.611   3.824  17.849  0.00  0.00    +0.000 C 
ATOM     25  O   UNL     1       2.265   2.954  17.074  0.00  0.00    +0.000 OA
ATOM     26  N   UNL     1       3.888   4.175  18.136  0.00  0.00    +0.000 N 
ATOM     27  C   UNL     1       3.917   5.065  19.166  0.00  0.00    +0.000 C 
ATOM     28  O   UNL     1       4.940   5.446  19.718  0.00  0.00    +0.000 OA
ATOM     29  H   UNL     1       0.767   4.408  18.606  0.00  0.00    +0.000 HD
ATOM     30  H   UNL     1       4.697   3.737  17.733  0.00  0.00    +0.000 HD
ENDBRANCH   1  22
TORSDOF 2
ENDMDL
MODEL 3
REMARK VINA RESULT:      -9.1      2.912      3.923
REMARK  Name = 
REMARK  3 active torsions:
REMARK  status: ('A' for Active; 'I' for Inactive)
REMARK    1  A    between atoms: C_1  and  C_2
REMARK    2  A    between atoms: C_2  and  C_3
REMARK    3  A    between atoms: C_7  and  C_8
REMARK                            x       y       z     vdW  Elec       q    Type
REMARK                         _______ _______ _______ _____ _____    ______ ____
ROOT
ATOM      1  C   UNL     1       4.194   6.033  18.364  0.00  0.00    +0.000 A 
ATOM      2  C   UNL     1       4.114   7.012  17.357  0.00  0.00    +0.000 A 
ATOM      3  C   UNL     1       3.167   8.036  17.415  0.00  0.00    +0.000 A 
ATOM      4  C   UNL     1       2.274   8.109  18.485  0.00  0.00    +0.000 A 
ATOM      5  C   UNL     1       2.372   7.192  19.539  0.00  0.00    +0.000 A 
ATOM      6  C   UNL     1       3.313   6.149  19.460  0.00  0.00    +0.000 A 
ENDROOT
BRANCH   5   7
ATOM      7  C   UNL     1       1.381   7.187  20.658  0.00  0.00    +0.000 C 
ATOM      8  O   UNL     1       0.919   6.089  20.972  0.00  0.00    +0.000 OA
ATOM      9  N   UNL     1       0.989   8.360  21.306  0.00  0.00    +0.000 N 
ATOM     10  C   UNL     1      -0.143   8.274  22.259  0.00  0.00    +0.000 C 
ATOM     11  C   UNL     1      -0.277   9.518  23.160  0.00  0.00    +0.000 C 
ATOM     12  C   UNL     1      -0.368  10.706  22.227  0.00  0.00    +0.000 A 
ATOM     13  C   UNL     1      -1.439  11.598  22.272  0.00  0.00    +0.000 A 
ATOM     14  C   UNL     1      -1.623  12.470  21.210  0.00  0.00    +0.000 A 
ATOM     15  F   UNL     1      -2.714  13.246  21.180  0.00  0.00    +0.000 F 
ATOM     16  C   UNL     1      -0.727  12.515  20.147  0.00  0.00    +0.000 A 
ATOM     17  C   UNL     1       0.400  11.687  20.145  0.00  0.00    +0.000 A 
ATOM     18 BR   UNL     1       1.593  11.854  18.682  0.00  0.00    +0.000 Br
ATOM     19  C   UNL     1       0.582  10.757  21.173  0.00  0.00    +0.000 A 
ATOM     20  C   UNL     1       1.640   9.672  21.196  0.00  0.00    +0.000 C 
ENDBRANCH   5   7
BRANCH   1  22
ATOM     21  C   UNL     1       4.684   3.558  18.835  0.00  0.00    +0.000 C 
ATOM     22  C   UNL     1       5.171   4.866  18.204  0.00  0.00    +0.000 C 
ATOM     23  N   UNL     1       5.559   4.623  16.827  0.00  0.00    +0.000 N 
ATOM     24  C   UNL     1       6.905   4.779  16.611  0.00  0.00    +0.000 C 
ATOM     25  O   UNL     1       7.479   4.532  15.568  0.00  0.00    +0.000 OA
ATOM     26  N   UNL     1       7.485   5.196  17.762  0.00  0.00    +0.000 N 
ATOM     27  C   UNL     1       6.575   5.214  18.774  0.00  0.00    +0.000 C 
ATOM     28  O   UNL     1       6.854   5.421  19.947  0.00  0.00    +0.000 OA
ATOM     29  H   UNL     1       4.961   4.247  16.104  0.00  0.00    +0.000 HD
ATOM     30  H   UNL     1       8.473   5.339  17.874  0.00  0.00    +0.000 HD
ENDBRANCH   1  22
TORSDOF 2
ENDMDL
MODEL 4
REMARK VINA RESULT:      -9.1      2.189      2.265
REMARK  Name = 
REMARK  3 active torsions:
REMARK  status: ('A' for Active; 'I' for Inactive)
REMARK    1  A    between atoms: C_1  and  C_2
REMARK    2  A    between atoms: C_2  and  C_3
REMARK    3  A    between atoms: C_7  and  C_8
REMARK                            x       y       z     vdW  Elec       q    Type
REMARK                         _______ _______ _______ _____ _____    ______ ____
ROOT
ATOM      1  C   UNL     1       2.491   6.912  19.419  0.00  0.00    +0.000 A 
ATOM      2  C   UNL     1       2.764   7.574  18.207  0.00  0.00    +0.000 A 
ATOM      3  C   UNL     1       2.186   8.808  17.908  0.00  0.00    +0.000 A 
ATOM      4  C   UNL     1       1.319   9.418  18.817  0.00  0.00    +0.000 A 
ATOM      5  C   UNL     1       1.081   8.821  20.062  0.00  0.00    +0.000 A 
ATOM      6  C   UNL     1       1.649   7.565  20.344  0.00  0.00    +0.000 A 
ENDROOT
BRANCH   5   7
ATOM      7  C   UNL     1       0.095   9.401  21.024  0.00  0.00    +0.000 C 
ATOM      8  O   UNL     1      -0.724   8.615  21.504  0.00  0.00    +0.000 OA
ATOM      9  N   UNL     1       0.091  10.757  21.354  0.00  0.00    +0.000 N 
ATOM     10  C   UNL     1      -1.047  11.266  22.156  0.00  0.00    +0.000 C 
ATOM     11  C   UNL     1      -0.796  12.668  22.749  0.00  0.00    +0.000 C 
ATOM     12  C   UNL     1      -0.438  13.561  21.581  0.00  0.00    +0.000 A 
ATOM     13  C   UNL     1      -1.146  14.729  21.303  0.00  0.00    +0.000 A 
ATOM     14  C   UNL     1      -0.976  15.331  20.065  0.00  0.00    +0.000 A 
ATOM     15  F   UNL     1      -1.740  16.381  19.736  0.00  0.00    +0.000 F 
ATOM     16  C   UNL     1      -0.068  14.832  19.136  0.00  0.00    +0.000 A 
ATOM     17  C   UNL     1       0.712  13.715  19.450  0.00  0.00    +0.000 A 
ATOM     18 BR   UNL     1       1.959  13.138  18.145  0.00  0.00    +0.000 Br
ATOM     19  C   UNL     1       0.522  13.052  20.667  0.00  0.00    +0.000 A 
ATOM     20  C   UNL     1       1.151  11.728  21.051  0.00  0.00    +0.000 C 
ENDBRANCH   5   7
BRANCH   1  22
ATOM     21  C   UNL     1       4.526   5.359  19.249  0.00  0.00    +0.000 C 
ATOM     22  C   UNL     1       3.057   5.511  19.655  0.00  0.00    +0.000 C 
ATOM     23  N   UNL     1       2.880   5.039  21.015  0.00  0.00    +0.000 N 
ATOM     24  C   UNL     1       2.108   3.908  21.098  0.00  0.00    +0.000 C 
ATOM     25  O   UNL     1       1.904   3.272  22.114  0.00  0.00    +0.000 OA
ATOM     26  N   UNL     1       1.663   3.594  19.857  0.00  0.00    +0.000 N 
ATOM     27  C   UNL     1       2.214   4.425  18.930  0.00  0.00    +0.000 C 
ATOM     28  O   UNL     1       2.092   4.284  17.721  0.00  0.00    +0.000 OA
ATOM     29  H   UNL     1       3.364   5.392  21.829  0.00  0.00    +0.000 HD
ATOM     30  H   UNL     1       1.113   2.780  19.646  0.00  0.00    +0.000 HD
ENDBRANCH   1  22
TORSDOF 2
ENDMDL
MODEL 5
REMARK VINA RESULT:      -9.1      2.604      3.219
REMARK  Name = 
REMARK  3 active torsions:
REMARK  status: ('A' for Active; 'I' for Inactive)
REMARK    1  A    between atoms: C_1  and  C_2
REMARK    2  A    between atoms: C_2  and  C_3
REMARK    3  A    between atoms: C_7  and  C_8
REMARK                            x       y       z     vdW  Elec       q    Type
REMARK                         _______ _______ _______ _____ _____    ______ ____
ROOT
ATOM      1  C   UNL     1       2.675   6.199  19.063  0.00  0.00    +0.000 A 
ATOM      2  C   UNL     1       2.211   6.000  20.377  0.00  0.00    +0.000 A 
ATOM      3  C   UNL     1       1.540   7.009  21.069  0.00  0.00    +0.000 A 
ATOM      4  C   UNL     1       1.312   8.247  20.463  0.00  0.00    +0.000 A 
ATOM      5  C   UNL     1       1.698   8.454  19.133  0.00  0.00    +0.000 A 
ATOM      6  C   UNL     1       2.396   7.439  18.452  0.00  0.00    +0.000 A 
ENDROOT
BRANCH   5   7
ATOM      7  C   UNL     1       1.547   9.790  18.481  0.00  0.00    +0.000 C 
ATOM      8  O   UNL     1       2.347  10.050  17.581  0.00  0.00    +0.000 OA
ATOM      9  N   UNL     1       0.564  10.700  18.875  0.00  0.00    +0.000 N 
ATOM     10  C   UNL     1       0.626  12.068  18.307  0.00  0.00    +0.000 C 
ATOM     11  C   UNL     1      -0.666  12.879  18.528  0.00  0.00    +0.000 C 
ATOM     12  C   UNL     1      -0.926  12.859  20.018  0.00  0.00    +0.000 A 
ATOM     13  C   UNL     1      -1.065  14.033  20.758  0.00  0.00    +0.000 A 
ATOM     14  C   UNL     1      -0.993  13.961  22.140  0.00  0.00    +0.000 A 
ATOM     15  F   UNL     1      -0.999  15.092  22.858  0.00  0.00    +0.000 F 
ATOM     16  C   UNL     1      -0.856  12.741  22.795  0.00  0.00    +0.000 A 
ATOM     17  C   UNL     1      -0.811  11.552  22.060  0.00  0.00    +0.000 A 
ATOM     18 BR   UNL     1      -0.676   9.935  23.038  0.00  0.00    +0.000 Br
ATOM     19  C   UNL     1      -0.824  11.598  20.662  0.00  0.00    +0.000 A 
ATOM     20  C   UNL     1      -0.585  10.416  19.745  0.00  0.00    +0.000 C 
ENDBRANCH   5   7
BRANCH   1  22
ATOM     21  C   UNL     1       4.219   5.571  17.112  0.00  0.00    +0.000 C 
ATOM     22  C   UNL     1       3.505   5.106  18.385  0.00  0.00    +0.000 C 
ATOM     23  N   UNL     1       4.461   4.472  19.272  0.00  0.00    +0.000 N 
ATOM     24  C   UNL     1       4.235   3.129  19.438  0.00  0.00    +0.000 C 
ATOM     25  O   UNL     1       4.959   2.368  20.049  0.00  0.00    +0.000 OA
ATOM     26  N   UNL     1       3.110   2.791  18.762  0.00  0.00    +0.000 N 
ATOM     27  C   UNL     1       2.641   3.856  18.055  0.00  0.00    +0.000 C 
ATOM     28  O   UNL     1       1.719   3.798  17.254  0.00  0.00    +0.000 OA
ATOM     29  H   UNL     1       5.297   4.904  19.642  0.00  0.00    +0.000 HD
ATOM     30  H   UNL     1       2.757   1.854  18.691  0.00  0.00    +0.000 HD
ENDBRANCH   1  22
TORSDOF 2
ENDMDL
MODEL 6
REMARK VINA RESULT:      -8.9      3.025      3.874
REMARK  Name = 
REMARK  3 active torsions:
REMARK  status: ('A' for Active; 'I' for Inactive)
REMARK    1  A    between atoms: C_1  and  C_2
REMARK    2  A    between atoms: C_2  and  C_3
REMARK    3  A    between atoms: C_7  and  C_8
REMARK                            x       y       z     vdW  Elec       q    Type
REMARK                         _______ _______ _______ _____ _____    ______ ____
ROOT
ATOM      1  C   UNL     1       3.633   6.744  18.077  0.00  0.00    +0.000 A 
ATOM      2  C   UNL     1       3.100   6.134  19.228  0.00  0.00    +0.000 A 
ATOM      3  C   UNL     1       2.160   6.788  20.026  0.00  0.00    +0.000 A 
ATOM      4  C   UNL     1       1.724   8.072  19.692  0.00  0.00    +0.000 A 
ATOM      5  C   UNL     1       2.182   8.680  18.516  0.00  0.00    +0.000 A 
ATOM      6  C   UNL     1       3.147   8.023  17.731  0.00  0.00    +0.000 A 
ENDROOT
BRANCH   5   7
ATOM      7  C   UNL     1       1.804  10.084  18.172  0.00  0.00    +0.000 C 
ATOM      8  O   UNL     1       2.535  10.662  17.365  0.00  0.00    +0.000 OA
ATOM      9  N   UNL     1       0.694  10.713  18.738  0.00  0.00    +0.000 N 
ATOM     10  C   UNL     1       0.523  12.164  18.486  0.00  0.00    +0.000 C 
ATOM     11  C   UNL     1      -0.880  12.685  18.857  0.00  0.00    +0.000 C 
ATOM     12  C   UNL     1      -1.106  12.296  20.301  0.00  0.00    +0.000 A 
ATOM     13  C   UNL     1      -1.420  13.240  21.278  0.00  0.00    +0.000 A 
ATOM     14  C   UNL     1      -1.312  12.878  22.612  0.00  0.00    +0.000 A 
ATOM     15  F   UNL     1      -1.490  13.806  23.561  0.00  0.00    +0.000 F 
ATOM     16  C   UNL     1      -0.967  11.582  22.984  0.00  0.00    +0.000 A 
ATOM     17  C   UNL     1      -0.744  10.608  22.006  0.00  0.00    +0.000 A 
ATOM     18 BR   UNL     1      -0.331   8.859  22.607  0.00  0.00    +0.000 Br
ATOM     19  C   UNL     1      -0.789  10.958  20.653  0.00  0.00    +0.000 A 
ATOM     20  C   UNL     1      -0.378  10.061  19.502  0.00  0.00    +0.000 C 
ENDBRANCH   5   7
BRANCH   1  22
ATOM     21  C   UNL     1       4.893   6.527  15.853  0.00  0.00    +0.000 C 
ATOM     22  C   UNL     1       4.743   6.037  17.296  0.00  0.00    +0.000 C 
ATOM     23  N   UNL     1       6.032   6.081  17.958  0.00  0.00    +0.000 N 
ATOM     24  C   UNL     1       6.517   4.837  18.277  0.00  0.00    +0.000 C 
ATOM     25  O   UNL     1       7.618   4.614  18.742  0.00  0.00    +0.000 OA
ATOM     26  N   UNL     1       5.591   3.909  17.935  0.00  0.00    +0.000 N 
ATOM     27  C   UNL     1       4.545   4.495  17.291  0.00  0.00    +0.000 C 
ATOM     28  O   UNL     1       3.634   3.879  16.756  0.00  0.00    +0.000 OA
ATOM     29  H   UNL     1       6.609   6.903  18.071  0.00  0.00    +0.000 HD
ATOM     30  H   UNL     1       5.728   2.918  18.027  0.00  0.00    +0.000 HD
ENDBRANCH   1  22
TORSDOF 2
ENDMDL
MODEL 7
REMARK VINA RESULT:      -8.8      3.139      4.200
REMARK  Name = 
REMARK  3 active torsions:
REMARK  status: ('A' for Active; 'I' for Inactive)
REMARK    1  A    between atoms: C_1  and  C_2
REMARK    2  A    between atoms: C_2  and  C_3
REMARK    3  A    between atoms: C_7  and  C_8
REMARK                            x       y       z     vdW  Elec       q    Type
REMARK                         _______ _______ _______ _____ _____    ______ ____
ROOT
ATOM      1  C   UNL     1       3.409   6.288  18.406  0.00  0.00    +0.000 A 
ATOM      2  C   UNL     1       2.898   5.840  19.639  0.00  0.00    +0.000 A 
ATOM      3  C   UNL     1       2.055   6.642  20.409  0.00  0.00    +0.000 A 
ATOM      4  C   UNL     1       1.698   7.917  19.966  0.00  0.00    +0.000 A 
ATOM      5  C   UNL     1       2.131   8.367  18.712  0.00  0.00    +0.000 A 
ATOM      6  C   UNL     1       3.000   7.561  17.954  0.00  0.00    +0.000 A 
ENDROOT
BRANCH   5   7
ATOM      7  C   UNL     1       1.839   9.755  18.243  0.00  0.00    +0.000 C 
ATOM      8  O   UNL     1       2.609  10.219  17.401  0.00  0.00    +0.000 OA
ATOM      9  N   UNL     1       0.762  10.493  18.737  0.00  0.00    +0.000 N 
ATOM     10  C   UNL     1       0.678  11.924  18.360  0.00  0.00    +0.000 C 
ATOM     11  C   UNL     1      -0.696  12.555  18.663  0.00  0.00    +0.000 C 
ATOM     12  C   UNL     1      -0.958  12.306  20.132  0.00  0.00    +0.000 A 
ATOM     13  C   UNL     1      -1.226  13.347  21.020  0.00  0.00    +0.000 A 
ATOM     14  C   UNL     1      -1.152  13.096  22.382  0.00  0.00    +0.000 A 
ATOM     15  F   UNL     1      -1.284  14.112  23.245  0.00  0.00    +0.000 F 
ATOM     16  C   UNL     1      -0.886  11.820  22.869  0.00  0.00    +0.000 A 
ATOM     17  C   UNL     1      -0.711  10.754  21.981  0.00  0.00    +0.000 A 
ATOM     18 BR   UNL     1      -0.405   9.043  22.736  0.00  0.00    +0.000 Br
ATOM     19  C   UNL     1      -0.722  10.987  20.602  0.00  0.00    +0.000 A 
ATOM     20  C   UNL     1      -0.353   9.972  19.539  0.00  0.00    +0.000 C 
ENDBRANCH   5   7
BRANCH   1  22
ATOM     21  C   UNL     1       3.795   4.205  16.958  0.00  0.00    +0.000 C 
ATOM     22  C   UNL     1       4.418   5.422  17.650  0.00  0.00    +0.000 C 
ATOM     23  N   UNL     1       5.215   6.166  16.693  0.00  0.00    +0.000 N 
ATOM     24  C   UNL     1       6.558   6.139  16.972  0.00  0.00    +0.000 C 
ATOM     25  O   UNL     1       7.429   6.601  16.262  0.00  0.00    +0.000 OA
ATOM     26  N   UNL     1       6.747   5.466  18.133  0.00  0.00    +0.000 N 
ATOM     27  C   UNL     1       5.570   4.945  18.578  0.00  0.00    +0.000 C 
ATOM     28  O   UNL     1       5.472   4.182  19.528  0.00  0.00    +0.000 OA
ATOM     29  H   UNL     1       4.877   6.562  15.827  0.00  0.00    +0.000 HD
ATOM     30  H   UNL     1       7.649   5.271  18.529  0.00  0.00    +0.000 HD
ENDBRANCH   1  22
TORSDOF 2
ENDMDL
MODEL 8
REMARK VINA RESULT:      -8.7      2.181      2.731
REMARK  Name = 
REMARK  3 active torsions:
REMARK  status: ('A' for Active; 'I' for Inactive)
REMARK    1  A    between atoms: C_1  and  C_2
REMARK    2  A    between atoms: C_2  and  C_3
REMARK    3  A    between atoms: C_7  and  C_8
REMARK                            x       y       z     vdW  Elec       q    Type
REMARK                         _______ _______ _______ _____ _____    ______ ____
ROOT
ATOM      1  C   UNL     1       3.700   5.507  18.328  0.00  0.00    +0.000 A 
ATOM      2  C   UNL     1       3.936   6.581  17.450  0.00  0.00    +0.000 A 
ATOM      3  C   UNL     1       3.304   7.813  17.625  0.00  0.00    +0.000 A 
ATOM      4  C   UNL     1       2.418   8.005  18.687  0.00  0.00    +0.000 A 
ATOM      5  C   UNL     1       2.213   6.980  19.619  0.00  0.00    +0.000 A 
ATOM      6  C   UNL     1       2.836   5.734  19.421  0.00  0.00    +0.000 A 
ENDROOT
BRANCH   5   7
ATOM      7  C   UNL     1       1.211   7.119  20.718  0.00  0.00    +0.000 C 
ATOM      8  O   UNL     1       0.659   6.081  21.088  0.00  0.00    +0.000 OA
ATOM      9  N   UNL     1       0.903   8.356  21.288  0.00  0.00    +0.000 N 
ATOM     10  C   UNL     1      -0.245   8.415  22.224  0.00  0.00    +0.000 C 
ATOM     11  C   UNL     1      -0.293   9.718  23.048  0.00  0.00    +0.000 C 
ATOM     12  C   UNL     1      -0.278  10.851  22.045  0.00  0.00    +0.000 A 
ATOM     13  C   UNL     1      -1.276  11.824  22.018  0.00  0.00    +0.000 A 
ATOM     14  C   UNL     1      -1.377  12.643  20.904  0.00  0.00    +0.000 A 
ATOM     15  F   UNL     1      -2.403  13.498  20.808  0.00  0.00    +0.000 F 
ATOM     16  C   UNL     1      -0.465  12.554  19.856  0.00  0.00    +0.000 A 
ATOM     17  C   UNL     1       0.593  11.643  19.923  0.00  0.00    +0.000 A 
ATOM     18 BR   UNL     1       1.814  11.628  18.474  0.00  0.00    +0.000 Br
ATOM     19  C   UNL     1       0.687  10.765  21.008  0.00  0.00    +0.000 A 
ATOM     20  C   UNL     1       1.657   9.605  21.114  0.00  0.00    +0.000 C 
ENDBRANCH   5   7
BRANCH   1  22
ATOM     21  C   UNL     1       5.171   4.111  16.756  0.00  0.00    +0.000 C 
ATOM     22  C   UNL     1       4.326   4.142  18.033  0.00  0.00    +0.000 C 
ATOM     23  N   UNL     1       5.101   3.611  19.138  0.00  0.00    +0.000 N 
ATOM     24  C   UNL     1       4.609   2.425  19.622  0.00  0.00    +0.000 C 
ATOM     25  O   UNL     1       5.143   1.742  20.473  0.00  0.00    +0.000 OA
ATOM     26  N   UNL     1       3.469   2.123  18.954  0.00  0.00    +0.000 N 
ATOM     27  C   UNL     1       3.248   3.024  17.957  0.00  0.00    +0.000 C 
ATOM     28  O   UNL     1       2.367   2.916  17.116  0.00  0.00    +0.000 OA
ATOM     29  H   UNL     1       5.989   3.971  19.461  0.00  0.00    +0.000 HD
ATOM     30  H   UNL     1       2.942   1.280  19.095  0.00  0.00    +0.000 HD
ENDBRANCH   1  22
TORSDOF 2
ENDMDL
MODEL 9
REMARK VINA RESULT:      -8.7      1.654      2.277
REMARK  Name = 
REMARK  3 active torsions:
REMARK  status: ('A' for Active; 'I' for Inactive)
REMARK    1  A    between atoms: C_1  and  C_2
REMARK    2  A    between atoms: C_2  and  C_3
REMARK    3  A    between atoms: C_7  and  C_8
REMARK                            x       y       z     vdW  Elec       q    Type
REMARK                         _______ _______ _______ _____ _____    ______ ____
ROOT
ATOM      1  C   UNL     1       2.318   7.207  18.705  0.00  0.00    +0.000 A 
ATOM      2  C   UNL     1       2.280   8.109  17.626  0.00  0.00    +0.000 A 
ATOM      3  C   UNL     1       1.759   9.395  17.775  0.00  0.00    +0.000 A 
ATOM      4  C   UNL     1       1.262   9.815  19.010  0.00  0.00    +0.000 A 
ATOM      5  C   UNL     1       1.349   8.967  20.122  0.00  0.00    +0.000 A 
ATOM      6  C   UNL     1       1.854   7.664  19.956  0.00  0.00    +0.000 A 
ENDROOT
BRANCH   5   7
ATOM      7  C   UNL     1       0.752   9.350  21.437  0.00  0.00    +0.000 C 
ATOM      8  O   UNL     1       0.985   8.594  22.382  0.00  0.00    +0.000 OA
ATOM      9  N   UNL     1      -0.036  10.492  21.590  0.00  0.00    +0.000 N 
ATOM     10  C   UNL     1      -0.743  10.672  22.880  0.00  0.00    +0.000 C 
ATOM     11  C   UNL     1      -1.299  12.097  23.076  0.00  0.00    +0.000 C 
ATOM     12  C   UNL     1      -2.168  12.380  21.871  0.00  0.00    +0.000 A 
ATOM     13  C   UNL     1      -3.507  12.749  21.999  0.00  0.00    +0.000 A 
ATOM     14  C   UNL     1      -4.322  12.693  20.878  0.00  0.00    +0.000 A 
ATOM     15  F   UNL     1      -5.635  12.924  21.009  0.00  0.00    +0.000 F 
ATOM     16  C   UNL     1      -3.814  12.346  19.630  0.00  0.00    +0.000 A 
ATOM     17  C   UNL     1      -2.451  12.067  19.482  0.00  0.00    +0.000 A 
ATOM     18 BR   UNL     1      -1.839  11.655  17.736  0.00  0.00    +0.000 Br
ATOM     19  C   UNL     1      -1.616  12.059  20.603  0.00  0.00    +0.000 A 
ATOM     20  C   UNL     1      -0.177  11.587  20.620  0.00  0.00    +0.000 C 
ENDBRANCH   5   7
BRANCH   1  22
ATOM     21  C   UNL     1       1.729   4.860  17.850  0.00  0.00    +0.000 C 
ATOM     22  C   UNL     1       2.793   5.771  18.470  0.00  0.00    +0.000 C 
ATOM     23  N   UNL     1       4.014   5.688  17.691  0.00  0.00    +0.000 N 
ATOM     24  C   UNL     1       5.051   5.105  18.375  0.00  0.00    +0.000 C 
ATOM     25  O   UNL     1       6.137   4.834  17.901  0.00  0.00    +0.000 OA
ATOM     26  N   UNL     1       4.642   4.835  19.638  0.00  0.00    +0.000 N 
ATOM     27  C   UNL     1       3.318   5.121  19.781  0.00  0.00    +0.000 C 
ATOM     28  O   UNL     1       2.659   4.849  20.774  0.00  0.00    +0.000 OA
ATOM     29  H   UNL     1       4.100   5.898  16.706  0.00  0.00    +0.000 HD
ATOM     30  H   UNL     1       5.206   4.366  20.324  0.00  0.00    +0.000 HD
ENDBRANCH   1  22
TORSDOF 2
ENDMDL
