MODEL 1
REMARK VINA RESULT:      -9.5      0.000      0.000
REMARK  Name = 
REMARK  7 active torsions:
REMARK  status: ('A' for Active; 'I' for Inactive)
REMARK    1  A    between atoms: C_1  and  C_2
REMARK    2  A    between atoms: C_2  and  C_3
REMARK    3  A    between atoms: C_2  and  C_10
REMARK    4  A    between atoms: C_3  and  C_4
REMARK    5  A    between atoms: N_8  and  C_9
REMARK    6  A    between atoms: C_15  and  N_16
REMARK    7  A    between atoms: C_19  and  C_20
REMARK                            x       y       z     vdW  Elec       q    Type
REMARK                         _______ _______ _______ _____ _____    ______ ____
ROOT
ATOM      1  C   UNL     1       4.642   5.476  17.569  0.00  0.00    +0.000 A 
ATOM      2  C   UNL     1       4.155   4.209  17.951  0.00  0.00    +0.000 A 
ATOM      3  C   UNL     1       2.991   4.070  18.684  0.00  0.00    +0.000 A 
ATOM      4  C   UNL     1       2.282   5.201  19.054  0.00  0.00    +0.000 A 
ATOM      5  F   UNL     1       1.156   5.047  19.770  0.00  0.00    +0.000 F 
ATOM      6  C   UNL     1       2.755   6.478  18.736  0.00  0.00    +0.000 A 
ATOM      7  C   UNL     1       3.939   6.608  18.003  0.00  0.00    +0.000 A 
ENDROOT
BRANCH   6   8
ATOM      8  N   UNL     1       2.077   7.634  19.145  0.00  0.00    +0.000 N 
ATOM      9  C   UNL     1       1.549   7.813  20.487  0.00  0.00    +0.000 C 
ATOM     10  C   UNL     1       0.987   9.198  20.423  0.00  0.00    +0.000 A 
ATOM     11  C   UNL     1       0.323   9.953  21.374  0.00  0.00    +0.000 A 
ATOM     12  C   UNL     1      -0.103  11.247  21.034  0.00  0.00    +0.000 A 
ATOM     13  C   UNL     1       0.149  11.776  19.750  0.00  0.00    +0.000 A 
ATOM     14  C   UNL     1       0.822  11.017  18.798  0.00  0.00    +0.000 A 
ATOM     15  C   UNL     1       1.213   9.740  19.157  0.00  0.00    +0.000 A 
ATOM     16  C   UNL     1       1.898   8.743  18.336  0.00  0.00    +0.000 C 
ATOM     17  O   UNL     1       2.233   8.930  17.177  0.00  0.00    +0.000 OA
BRANCH  11  18
ATOM     18  C   UNL     1       0.044   9.438  22.725  0.00  0.00    +0.000 C 
ATOM     19  O   UNL     1       0.712   9.714  23.716  0.00  0.00    +0.000 OA
ATOM     20  F   UNL     1      -0.989   8.600  22.883  0.00  0.00    +0.000 F 
ENDBRANCH  11  18
ENDBRANCH   6   8
BRANCH   1  22
ATOM     21  C   UNL     1       7.142   5.761  17.619  0.00  0.00    +0.000 C 
ATOM     22  C   UNL     1       5.904   5.619  16.716  0.00  0.00    +0.000 C 
BRANCH  22  23
ATOM     23  C   UNL     1       6.050   4.440  15.726  0.00  0.00    +0.000 C 
BRANCH  23  24
ATOM     24  C   UNL     1       6.841   4.793  14.512  0.00  0.00    +0.000 A 
ATOM     25  N   UNL     1       7.873   5.613  14.472  0.00  0.00    +0.000 NA
ATOM     26  N   UNL     1       8.329   5.667  13.177  0.00  0.00    +0.000 NA
ATOM     27  C   UNL     1       7.571   4.877  12.456  0.00  0.00    +0.000 A 
ATOM     28  N   UNL     1       6.622   4.310  13.248  0.00  0.00    +0.000 N 
ATOM     29  C   UNL     1       5.603   3.390  12.818  0.00  0.00    +0.000 C 
ENDBRANCH  23  24
ENDBRANCH  22  23
ENDBRANCH   1  22
TORSDOF 5
ENDMDL
MODEL 2
REMARK VINA RESULT:      -9.2      1.830      2.484
REMARK  Name = 
REMARK  7 active torsions:
REMARK  status: ('A' for Active; 'I' for Inactive)
REMARK    1  A    between atoms: C_1  and  C_2
REMARK    2  A    between atoms: C_2  and  C_3
REMARK    3  A    between atoms: C_2  and  C_10
REMARK    4  A    between atoms: C_3  and  C_4
REMARK    5  A    between atoms: N_8  and  C_9
REMARK    6  A    between atoms: C_15  and  N_16
REMARK    7  A    between atoms: C_19  and  C_20
REMARK                            x       y       z     vdW  Elec       q    Type
REMARK                         _______ _______ _______ _____ _____    ______ ____
ROOT
ATOM      1  C   UNL     1       4.828   5.101  16.997  0.00  0.00    +0.000 A 
ATOM      2  C   UNL     1       4.119   3.902  16.782  0.00  0.00    +0.000 A 
ATOM      3  C   UNL     1       2.838   3.716  17.271  0.00  0.00    +0.000 A 
ATOM      4  C   UNL     1       2.234   4.733  17.991  0.00  0.00    +0.000 A 
ATOM      5  F   UNL     1       0.992   4.534  18.462  0.00  0.00    +0.000 F 
ATOM      6  C   UNL     1       2.919   5.921  18.268  0.00  0.00    +0.000 A 
ATOM      7  C   UNL     1       4.217   6.093  17.777  0.00  0.00    +0.000 A 
ENDROOT
BRANCH   6   8
ATOM      8  N   UNL     1       2.341   6.939  19.037  0.00  0.00    +0.000 N 
ATOM      9  C   UNL     1       2.043   8.260  18.511  0.00  0.00    +0.000 C 
ATOM     10  C   UNL     1       1.402   8.929  19.685  0.00  0.00    +0.000 A 
ATOM     11  C   UNL     1       0.910  10.214  19.841  0.00  0.00    +0.000 A 
ATOM     12  C   UNL     1       0.352  10.581  21.077  0.00  0.00    +0.000 A 
ATOM     13  C   UNL     1       0.284   9.654  22.141  0.00  0.00    +0.000 A 
ATOM     14  C   UNL     1       0.774   8.363  21.979  0.00  0.00    +0.000 A 
ATOM     15  C   UNL     1       1.333   8.038  20.756  0.00  0.00    +0.000 A 
ATOM     16  C   UNL     1       1.940   6.771  20.351  0.00  0.00    +0.000 C 
ATOM     17  O   UNL     1       2.023   5.793  21.078  0.00  0.00    +0.000 OA
BRANCH  11  18
ATOM     18  C   UNL     1       0.960  11.207  18.755  0.00  0.00    +0.000 C 
ATOM     19  O   UNL     1       0.001  11.885  18.400  0.00  0.00    +0.000 OA
ATOM     20  F   UNL     1       2.116  11.369  18.098  0.00  0.00    +0.000 F 
ENDBRANCH  11  18
ENDBRANCH   6   8
BRANCH   1  22
ATOM     21  C   UNL     1       7.258   5.464  17.541  0.00  0.00    +0.000 C 
ATOM     22  C   UNL     1       6.224   5.317  16.410  0.00  0.00    +0.000 C 
BRANCH  22  23
ATOM     23  C   UNL     1       6.604   4.182  15.431  0.00  0.00    +0.000 C 
BRANCH  23  24
ATOM     24  C   UNL     1       7.150   4.685  14.139  0.00  0.00    +0.000 A 
ATOM     25  N   UNL     1       8.097   5.593  13.999  0.00  0.00    +0.000 NA
ATOM     26  N   UNL     1       8.322   5.776  12.656  0.00  0.00    +0.000 NA
ATOM     27  C   UNL     1       7.513   4.976  12.005  0.00  0.00    +0.000 A 
ATOM     28  N   UNL     1       6.756   4.275  12.891  0.00  0.00    +0.000 N 
ATOM     29  C   UNL     1       5.749   3.303  12.559  0.00  0.00    +0.000 C 
ENDBRANCH  23  24
ENDBRANCH  22  23
ENDBRANCH   1  22
TORSDOF 5
ENDMDL
MODEL 3
REMARK VINA RESULT:      -8.7      1.870      2.653
REMARK  Name = 
REMARK  7 active torsions:
REMARK  status: ('A' for Active; 'I' for Inactive)
REMARK    1  A    between atoms: C_1  and  C_2
REMARK    2  A    between atoms: C_2  and  C_3
REMARK    3  A    between atoms: C_2  and  C_10
REMARK    4  A    between atoms: C_3  and  C_4
REMARK    5  A    between atoms: N_8  and  C_9
REMARK    6  A    between atoms: C_15  and  N_16
REMARK    7  A    between atoms: C_19  and  C_20
REMARK                            x       y       z     vdW  Elec       q    Type
REMARK                         _______ _______ _______ _____ _____    ______ ____
ROOT
ATOM      1  C   UNL     1       4.227   5.390  17.714  0.00  0.00    +0.000 A 
ATOM      2  C   UNL     1       4.104   4.284  18.579  0.00  0.00    +0.000 A 
ATOM      3  C   UNL     1       3.276   4.316  19.687  0.00  0.00    +0.000 A 
ATOM      4  C   UNL     1       2.548   5.463  19.956  0.00  0.00    +0.000 A 
ATOM      5  F   UNL     1       1.754   5.478  21.039  0.00  0.00    +0.000 F 
ATOM      6  C   UNL     1       2.677   6.599  19.151  0.00  0.00    +0.000 A 
ATOM      7  C   UNL     1       3.524   6.559  18.039  0.00  0.00    +0.000 A 
ENDROOT
BRANCH   6   8
ATOM      8  N   UNL     1       1.986   7.784  19.438  0.00  0.00    +0.000 N 
ATOM      9  C   UNL     1       1.465   8.100  20.757  0.00  0.00    +0.000 C 
ATOM     10  C   UNL     1       0.884   9.462  20.548  0.00  0.00    +0.000 A 
ATOM     11  C   UNL     1       0.215  10.307  21.417  0.00  0.00    +0.000 A 
ATOM     12  C   UNL     1      -0.231  11.552  20.942  0.00  0.00    +0.000 A 
ATOM     13  C   UNL     1       0.007  11.942  19.606  0.00  0.00    +0.000 A 
ATOM     14  C   UNL     1       0.684  11.093  18.737  0.00  0.00    +0.000 A 
ATOM     15  C   UNL     1       1.094   9.867  19.229  0.00  0.00    +0.000 A 
ATOM     16  C   UNL     1       1.787   8.796  18.515  0.00  0.00    +0.000 C 
ATOM     17  O   UNL     1       2.113   8.861  17.340  0.00  0.00    +0.000 OA
BRANCH  11  18
ATOM     18  C   UNL     1      -0.048   9.938  22.817  0.00  0.00    +0.000 C 
ATOM     19  O   UNL     1       0.823   9.604  23.615  0.00  0.00    +0.000 OA
ATOM     20  F   UNL     1      -1.318   9.946  23.247  0.00  0.00    +0.000 F 
ENDBRANCH  11  18
ENDBRANCH   6   8
BRANCH   1  22
ATOM     21  C   UNL     1       4.918   6.602  15.620  0.00  0.00    +0.000 C 
ATOM     22  C   UNL     1       5.106   5.329  16.464  0.00  0.00    +0.000 C 
BRANCH  22  23
ATOM     23  C   UNL     1       6.591   5.100  16.830  0.00  0.00    +0.000 C 
BRANCH  23  24
ATOM     24  C   UNL     1       7.260   6.328  17.347  0.00  0.00    +0.000 A 
ATOM     25  N   UNL     1       7.437   7.452  16.681  0.00  0.00    +0.000 NA
ATOM     26  N   UNL     1       8.084   8.341  17.504  0.00  0.00    +0.000 NA
ATOM     27  C   UNL     1       8.284   7.746  18.654  0.00  0.00    +0.000 A 
ATOM     28  N   UNL     1       7.788   6.480  18.603  0.00  0.00    +0.000 N 
ATOM     29  C   UNL     1       7.825   5.515  19.669  0.00  0.00    +0.000 C 
ENDBRANCH  23  24
ENDBRANCH  22  23
ENDBRANCH   1  22
TORSDOF 5
ENDMDL
MODEL 4
REMARK VINA RESULT:      -8.7      2.466      3.764
REMARK  Name = 
REMARK  7 active torsions:
REMARK  status: ('A' for Active; 'I' for Inactive)
REMARK    1  A    between atoms: C_1  and  C_2
REMARK    2  A    between atoms: C_2  and  C_3
REMARK    3  A    between atoms: C_2  and  C_10
REMARK    4  A    between atoms: C_3  and  C_4
REMARK    5  A    between atoms: N_8  and  C_9
REMARK    6  A    between atoms: C_15  and  N_16
REMARK    7  A    between atoms: C_19  and  C_20
REMARK                            x       y       z     vdW  Elec       q    Type
REMARK                         _______ _______ _______ _____ _____    ______ ____
ROOT
ATOM      1  C   UNL     1       4.487   4.280  16.669  0.00  0.00    +0.000 A 
ATOM      2  C   UNL     1       3.705   3.107  16.637  0.00  0.00    +0.000 A 
ATOM      3  C   UNL     1       2.490   3.025  17.293  0.00  0.00    +0.000 A 
ATOM      4  C   UNL     1       2.026   4.122  18.000  0.00  0.00    +0.000 A 
ATOM      5  F   UNL     1       0.846   4.023  18.635  0.00  0.00    +0.000 F 
ATOM      6  C   UNL     1       2.791   5.289  18.096  0.00  0.00    +0.000 A 
ATOM      7  C   UNL     1       4.023   5.357  17.437  0.00  0.00    +0.000 A 
ENDROOT
BRANCH   6   8
ATOM      8  N   UNL     1       2.360   6.389  18.848  0.00  0.00    +0.000 N 
ATOM      9  C   UNL     1       2.042   7.679  18.259  0.00  0.00    +0.000 C 
ATOM     10  C   UNL     1       1.590   8.465  19.449  0.00  0.00    +0.000 A 
ATOM     11  C   UNL     1       1.171   9.780  19.561  0.00  0.00    +0.000 A 
ATOM     12  C   UNL     1       0.798  10.266  20.825  0.00  0.00    +0.000 A 
ATOM     13  C   UNL     1       0.839   9.428  21.961  0.00  0.00    +0.000 A 
ATOM     14  C   UNL     1       1.255   8.106  21.843  0.00  0.00    +0.000 A 
ATOM     15  C   UNL     1       1.632   7.663  20.589  0.00  0.00    +0.000 A 
ATOM     16  C   UNL     1       2.133   6.341  20.213  0.00  0.00    +0.000 C 
ATOM     17  O   UNL     1       2.277   5.419  21.000  0.00  0.00    +0.000 OA
BRANCH  11  18
ATOM     18  C   UNL     1       1.111  10.683  18.400  0.00  0.00    +0.000 C 
ATOM     19  O   UNL     1       1.795  11.696  18.282  0.00  0.00    +0.000 OA
ATOM     20  F   UNL     1       0.245  10.397  17.419  0.00  0.00    +0.000 F 
ENDBRANCH  11  18
ENDBRANCH   6   8
BRANCH   1  22
ATOM     21  C   UNL     1       5.556   4.186  14.394  0.00  0.00    +0.000 C 
ATOM     22  C   UNL     1       5.805   4.379  15.900  0.00  0.00    +0.000 C 
BRANCH  22  23
ATOM     23  C   UNL     1       6.528   5.714  16.193  0.00  0.00    +0.000 C 
BRANCH  23  24
ATOM     24  C   UNL     1       7.220   5.725  17.514  0.00  0.00    +0.000 A 
ATOM     25  N   UNL     1       7.455   4.673  18.274  0.00  0.00    +0.000 NA
ATOM     26  N   UNL     1       8.116   5.096  19.401  0.00  0.00    +0.000 NA
ATOM     27  C   UNL     1       8.275   6.394  19.305  0.00  0.00    +0.000 A 
ATOM     28  N   UNL     1       7.726   6.835  18.141  0.00  0.00    +0.000 N 
ATOM     29  C   UNL     1       7.695   8.198  17.685  0.00  0.00    +0.000 C 
ENDBRANCH  23  24
ENDBRANCH  22  23
ENDBRANCH   1  22
TORSDOF 5
ENDMDL
MODEL 5
REMARK VINA RESULT:      -8.6      1.128      1.345
REMARK  Name = 
REMARK  7 active torsions:
REMARK  status: ('A' for Active; 'I' for Inactive)
REMARK    1  A    between atoms: C_1  and  C_2
REMARK    2  A    between atoms: C_2  and  C_3
REMARK    3  A    between atoms: C_2  and  C_10
REMARK    4  A    between atoms: C_3  and  C_4
REMARK    5  A    between atoms: N_8  and  C_9
REMARK    6  A    between atoms: C_15  and  N_16
REMARK    7  A    between atoms: C_19  and  C_20
REMARK                            x       y       z     vdW  Elec       q    Type
REMARK                         _______ _______ _______ _____ _____    ______ ____
ROOT
ATOM      1  C   UNL     1       5.454   5.349  18.684  0.00  0.00    +0.000 A 
ATOM      2  C   UNL     1       4.946   4.047  18.870  0.00  0.00    +0.000 A 
ATOM      3  C   UNL     1       3.614   3.823  19.167  0.00  0.00    +0.000 A 
ATOM      4  C   UNL     1       2.754   4.903  19.285  0.00  0.00    +0.000 A 
ATOM      5  F   UNL     1       1.466   4.667  19.580  0.00  0.00    +0.000 F 
ATOM      6  C   UNL     1       3.227   6.213  19.155  0.00  0.00    +0.000 A 
ATOM      7  C   UNL     1       4.578   6.428  18.864  0.00  0.00    +0.000 A 
ENDROOT
BRANCH   6   8
ATOM      8  N   UNL     1       2.382   7.317  19.321  0.00  0.00    +0.000 N 
ATOM      9  C   UNL     1       1.695   7.612  20.568  0.00  0.00    +0.000 C 
ATOM     10  C   UNL     1       0.989   8.890  20.244  0.00  0.00    +0.000 A 
ATOM     11  C   UNL     1       0.144   9.679  21.006  0.00  0.00    +0.000 A 
ATOM     12  C   UNL     1      -0.388  10.848  20.437  0.00  0.00    +0.000 A 
ATOM     13  C   UNL     1      -0.059  11.221  19.115  0.00  0.00    +0.000 A 
ATOM     14  C   UNL     1       0.794  10.429  18.354  0.00  0.00    +0.000 A 
ATOM     15  C   UNL     1       1.287   9.276  18.937  0.00  0.00    +0.000 A 
ATOM     16  C   UNL     1       2.166   8.270  18.341  0.00  0.00    +0.000 C 
ATOM     17  O   UNL     1       2.602   8.336  17.202  0.00  0.00    +0.000 OA
BRANCH  11  18
ATOM     18  C   UNL     1      -0.219   9.325  22.388  0.00  0.00    +0.000 C 
ATOM     19  O   UNL     1      -0.993   8.420  22.685  0.00  0.00    +0.000 OA
ATOM     20  F   UNL     1       0.310  10.046  23.386  0.00  0.00    +0.000 F 
ENDBRANCH  11  18
ENDBRANCH   6   8
BRANCH   1  22
ATOM     21  C   UNL     1       7.768   5.785  19.573  0.00  0.00    +0.000 C 
ATOM     22  C   UNL     1       6.918   5.586  18.305  0.00  0.00    +0.000 C 
BRANCH  22  23
ATOM     23  C   UNL     1       7.464   4.437  17.425  0.00  0.00    +0.000 C 
BRANCH  23  24
ATOM     24  C   UNL     1       7.236   4.660  15.969  0.00  0.00    +0.000 A 
ATOM     25  N   UNL     1       7.901   5.501  15.200  0.00  0.00    +0.000 NA
ATOM     26  N   UNL     1       7.399   5.408  13.926  0.00  0.00    +0.000 NA
ATOM     27  C   UNL     1       6.443   4.511  13.939  0.00  0.00    +0.000 A 
ATOM     28  N   UNL     1       6.301   4.017  15.199  0.00  0.00    +0.000 N 
ATOM     29  C   UNL     1       5.351   3.020  15.613  0.00  0.00    +0.000 C 
ENDBRANCH  23  24
ENDBRANCH  22  23
ENDBRANCH   1  22
TORSDOF 5
ENDMDL
MODEL 6
REMARK VINA RESULT:      -8.6      2.824      4.274
REMARK  Name = 
REMARK  7 active torsions:
REMARK  status: ('A' for Active; 'I' for Inactive)
REMARK    1  A    between atoms: C_1  and  C_2
REMARK    2  A    between atoms: C_2  and  C_3
REMARK    3  A    between atoms: C_2  and  C_10
REMARK    4  A    between atoms: C_3  and  C_4
REMARK    5  A    between atoms: N_8  and  C_9
REMARK    6  A    between atoms: C_15  and  N_16
REMARK    7  A    between atoms: C_19  and  C_20
REMARK                            x       y       z     vdW  Elec       q    Type
REMARK                         _______ _______ _______ _____ _____    ______ ____
ROOT
ATOM      1  C   UNL     1       2.911   6.388  19.302  0.00  0.00    +0.000 A 
ATOM      2  C   UNL     1       3.367   6.744  18.016  0.00  0.00    +0.000 A 
ATOM      3  C   UNL     1       3.023   7.949  17.431  0.00  0.00    +0.000 A 
ATOM      4  C   UNL     1       2.211   8.832  18.124  0.00  0.00    +0.000 A 
ATOM      5  F   UNL     1       1.884   9.996  17.538  0.00  0.00    +0.000 F 
ATOM      6  C   UNL     1       1.699   8.498  19.382  0.00  0.00    +0.000 A 
ATOM      7  C   UNL     1       2.045   7.272  19.959  0.00  0.00    +0.000 A 
ENDROOT
BRANCH   6   8
ATOM      8  N   UNL     1       0.836   9.358  20.074  0.00  0.00    +0.000 N 
ATOM      9  C   UNL     1      -0.171  10.172  19.415  0.00  0.00    +0.000 C 
ATOM     10  C   UNL     1      -0.842  10.842  20.573  0.00  0.00    +0.000 A 
ATOM     11  C   UNL     1      -1.874  11.764  20.615  0.00  0.00    +0.000 A 
ATOM     12  C   UNL     1      -2.311  12.233  21.864  0.00  0.00    +0.000 A 
ATOM     13  C   UNL     1      -1.719  11.768  23.058  0.00  0.00    +0.000 A 
ATOM     14  C   UNL     1      -0.685  10.838  23.012  0.00  0.00    +0.000 A 
ATOM     15  C   UNL     1      -0.265  10.408  21.766  0.00  0.00    +0.000 A 
ATOM     16  C   UNL     1       0.812   9.470  21.453  0.00  0.00    +0.000 C 
ATOM     17  O   UNL     1       1.500   8.917  22.297  0.00  0.00    +0.000 OA
BRANCH  11  18
ATOM     18  C   UNL     1      -2.520  12.270  19.392  0.00  0.00    +0.000 C 
ATOM     19  O   UNL     1      -3.732  12.265  19.204  0.00  0.00    +0.000 OA
ATOM     20  F   UNL     1      -1.738  12.747  18.415  0.00  0.00    +0.000 F 
ENDBRANCH  11  18
ENDBRANCH   6   8
BRANCH   1  22
ATOM     21  C   UNL     1       2.122   4.392  20.615  0.00  0.00    +0.000 C 
ATOM     22  C   UNL     1       3.336   5.075  19.962  0.00  0.00    +0.000 C 
BRANCH  22  23
ATOM     23  C   UNL     1       4.044   4.142  18.952  0.00  0.00    +0.000 C 
BRANCH  23  24
ATOM     24  C   UNL     1       5.479   4.490  18.743  0.00  0.00    +0.000 A 
ATOM     25  N   UNL     1       6.314   4.922  19.668  0.00  0.00    +0.000 NA
ATOM     26  N   UNL     1       7.539   5.122  19.081  0.00  0.00    +0.000 NA
ATOM     27  C   UNL     1       7.429   4.805  17.814  0.00  0.00    +0.000 A 
ATOM     28  N   UNL     1       6.155   4.407  17.553  0.00  0.00    +0.000 N 
ATOM     29  C   UNL     1       5.645   3.988  16.275  0.00  0.00    +0.000 C 
ENDBRANCH  23  24
ENDBRANCH  22  23
ENDBRANCH   1  22
TORSDOF 5
ENDMDL
MODEL 7
REMARK VINA RESULT:      -8.6      3.657      8.915
REMARK  Name = 
REMARK  7 active torsions:
REMARK  status: ('A' for Active; 'I' for Inactive)
REMARK    1  A    between atoms: C_1  and  C_2
REMARK    2  A    between atoms: C_2  and  C_3
REMARK    3  A    between atoms: C_2  and  C_10
REMARK    4  A    between atoms: C_3  and  C_4
REMARK    5  A    between atoms: N_8  and  C_9
REMARK    6  A    between atoms: C_15  and  N_16
REMARK    7  A    between atoms: C_19  and  C_20
REMARK                            x       y       z     vdW  Elec       q    Type
REMARK                         _______ _______ _______ _____ _____    ______ ____
ROOT
ATOM      1  C   UNL     1       3.658   5.167  18.607  0.00  0.00    +0.000 A 
ATOM      2  C   UNL     1       4.506   4.843  19.686  0.00  0.00    +0.000 A 
ATOM      3  C   UNL     1       5.833   4.506  19.491  0.00  0.00    +0.000 A 
ATOM      4  C   UNL     1       6.346   4.485  18.204  0.00  0.00    +0.000 A 
ATOM      5  F   UNL     1       7.635   4.151  18.033  0.00  0.00    +0.000 F 
ATOM      6  C   UNL     1       5.527   4.754  17.102  0.00  0.00    +0.000 A 
ATOM      7  C   UNL     1       4.184   5.084  17.311  0.00  0.00    +0.000 A 
ENDROOT
BRANCH   6   8
ATOM      8  N   UNL     1       6.016   4.689  15.791  0.00  0.00    +0.000 N 
ATOM      9  C   UNL     1       5.427   3.846  14.765  0.00  0.00    +0.000 C 
ATOM     10  C   UNL     1       6.261   4.178  13.568  0.00  0.00    +0.000 A 
ATOM     11  C   UNL     1       6.222   3.693  12.271  0.00  0.00    +0.000 A 
ATOM     12  C   UNL     1       7.143   4.190  11.335  0.00  0.00    +0.000 A 
ATOM     13  C   UNL     1       8.085   5.176  11.702  0.00  0.00    +0.000 A 
ATOM     14  C   UNL     1       8.118   5.664  13.004  0.00  0.00    +0.000 A 
ATOM     15  C   UNL     1       7.210   5.142  13.907  0.00  0.00    +0.000 A 
ATOM     16  C   UNL     1       7.065   5.463  15.326  0.00  0.00    +0.000 C 
ATOM     17  O   UNL     1       7.757   6.280  15.914  0.00  0.00    +0.000 OA
BRANCH  11  18
ATOM     18  C   UNL     1       5.252   2.669  11.849  0.00  0.00    +0.000 C 
ATOM     19  O   UNL     1       5.559   1.527  11.520  0.00  0.00    +0.000 OA
ATOM     20  F   UNL     1       3.957   3.006  11.801  0.00  0.00    +0.000 F 
ENDBRANCH  11  18
ENDBRANCH   6   8
BRANCH   1  22
ATOM     21  C   UNL     1       1.385   4.397  19.363  0.00  0.00    +0.000 C 
ATOM     22  C   UNL     1       2.205   5.587  18.836  0.00  0.00    +0.000 C 
BRANCH  22  23
ATOM     23  C   UNL     1       2.115   6.807  19.782  0.00  0.00    +0.000 C 
BRANCH  23  24
ATOM     24  C   UNL     1       1.938   8.097  19.055  0.00  0.00    +0.000 A 
ATOM     25  N   UNL     1       2.455   8.401  17.880  0.00  0.00    +0.000 NA
ATOM     26  N   UNL     1       2.056   9.673  17.551  0.00  0.00    +0.000 NA
ATOM     27  C   UNL     1       1.302  10.118  18.527  0.00  0.00    +0.000 A 
ATOM     28  N   UNL     1       1.202   9.167  19.494  0.00  0.00    +0.000 N 
ATOM     29  C   UNL     1       0.466   9.287  20.724  0.00  0.00    +0.000 C 
ENDBRANCH  23  24
ENDBRANCH  22  23
ENDBRANCH   1  22
TORSDOF 5
ENDMDL
MODEL 8
REMARK VINA RESULT:      -8.5      3.313      8.519
REMARK  Name = 
REMARK  7 active torsions:
REMARK  status: ('A' for Active; 'I' for Inactive)
REMARK    1  A    between atoms: C_1  and  C_2
REMARK    2  A    between atoms: C_2  and  C_3
REMARK    3  A    between atoms: C_2  and  C_10
REMARK    4  A    between atoms: C_3  and  C_4
REMARK    5  A    between atoms: N_8  and  C_9
REMARK    6  A    between atoms: C_15  and  N_16
REMARK    7  A    between atoms: C_19  and  C_20
REMARK                            x       y       z     vdW  Elec       q    Type
REMARK                         _______ _______ _______ _____ _____    ______ ____
ROOT
ATOM      1  C   UNL     1       0.689   9.401  19.545  0.00  0.00    +0.000 A 
ATOM      2  C   UNL     1       0.288   8.930  20.812  0.00  0.00    +0.000 A 
ATOM      3  C   UNL     1       0.819   7.776  21.359  0.00  0.00    +0.000 A 
ATOM      4  C   UNL     1       1.769   7.063  20.647  0.00  0.00    +0.000 A 
ATOM      5  F   UNL     1       2.271   5.942  21.191  0.00  0.00    +0.000 F 
ATOM      6  C   UNL     1       2.160   7.469  19.367  0.00  0.00    +0.000 A 
ATOM      7  C   UNL     1       1.609   8.633  18.819  0.00  0.00    +0.000 A 
ENDROOT
BRANCH   6   8
ATOM      8  N   UNL     1       3.082   6.733  18.612  0.00  0.00    +0.000 N 
ATOM      9  C   UNL     1       4.489   7.081  18.516  0.00  0.00    +0.000 C 
ATOM     10  C   UNL     1       5.030   5.977  17.664  0.00  0.00    +0.000 A 
ATOM     11  C   UNL     1       6.308   5.742  17.186  0.00  0.00    +0.000 A 
ATOM     12  C   UNL     1       6.535   4.606  16.391  0.00  0.00    +0.000 A 
ATOM     13  C   UNL     1       5.484   3.713  16.092  0.00  0.00    +0.000 A 
ATOM     14  C   UNL     1       4.202   3.950  16.578  0.00  0.00    +0.000 A 
ATOM     15  C   UNL     1       4.007   5.085  17.343  0.00  0.00    +0.000 A 
ATOM     16  C   UNL     1       2.761   5.568  17.936  0.00  0.00    +0.000 C 
ATOM     17  O   UNL     1       1.689   4.993  17.831  0.00  0.00    +0.000 OA
BRANCH  11  18
ATOM     18  C   UNL     1       7.431   6.648  17.479  0.00  0.00    +0.000 C 
ATOM     19  O   UNL     1       7.751   7.596  16.770  0.00  0.00    +0.000 OA
ATOM     20  F   UNL     1       8.162   6.414  18.577  0.00  0.00    +0.000 F 
ENDBRANCH  11  18
ENDBRANCH   6   8
BRANCH   1  22
ATOM     21  C   UNL     1       1.277  11.704  18.718  0.00  0.00    +0.000 C 
ATOM     22  C   UNL     1       0.133  10.705  18.969  0.00  0.00    +0.000 C 
BRANCH  22  23
ATOM     23  C   UNL     1      -0.692  10.448  17.687  0.00  0.00    +0.000 C 
BRANCH  23  24
ATOM     24  C   UNL     1      -2.094  10.946  17.787  0.00  0.00    +0.000 A 
ATOM     25  N   UNL     1      -2.676  11.408  18.876  0.00  0.00    +0.000 NA
ATOM     26  N   UNL     1      -3.961  11.772  18.555  0.00  0.00    +0.000 NA
ATOM     27  C   UNL     1      -4.136  11.529  17.279  0.00  0.00    +0.000 A 
ATOM     28  N   UNL     1      -2.995  11.007  16.755  0.00  0.00    +0.000 N 
ATOM     29  C   UNL     1      -2.800  10.606  15.387  0.00  0.00    +0.000 C 
ENDBRANCH  23  24
ENDBRANCH  22  23
ENDBRANCH   1  22
TORSDOF 5
ENDMDL
MODEL 9
REMARK VINA RESULT:      -8.5      3.995      8.624
REMARK  Name = 
REMARK  7 active torsions:
REMARK  status: ('A' for Active; 'I' for Inactive)
REMARK    1  A    between atoms: C_1  and  C_2
REMARK    2  A    between atoms: C_2  and  C_3
REMARK    3  A    between atoms: C_2  and  C_10
REMARK    4  A    between atoms: C_3  and  C_4
REMARK    5  A    between atoms: N_8  and  C_9
REMARK    6  A    between atoms: C_15  and  N_16
REMARK    7  A    between atoms: C_19  and  C_20
REMARK                            x       y       z     vdW  Elec       q    Type
REMARK                         _______ _______ _______ _____ _____    ______ ____
ROOT
ATOM      1  C   UNL     1      -0.503  10.881  20.131  0.00  0.00    +0.000 A 
ATOM      2  C   UNL     1      -0.361  11.277  21.477  0.00  0.00    +0.000 A 
ATOM      3  C   UNL     1       0.413  10.555  22.368  0.00  0.00    +0.000 A 
ATOM      4  C   UNL     1       1.066   9.415  21.931  0.00  0.00    +0.000 A 
ATOM      5  F   UNL     1       1.809   8.724  22.811  0.00  0.00    +0.000 F 
ATOM      6  C   UNL     1       0.914   8.962  20.616  0.00  0.00    +0.000 A 
ATOM      7  C   UNL     1       0.121   9.694  19.726  0.00  0.00    +0.000 A 
ENDROOT
BRANCH   6   8
ATOM      8  N   UNL     1       1.526   7.783  20.171  0.00  0.00    +0.000 N 
ATOM      9  C   UNL     1       1.359   6.501  20.834  0.00  0.00    +0.000 C 
ATOM     10  C   UNL     1       2.150   5.585  19.955  0.00  0.00    +0.000 A 
ATOM     11  C   UNL     1       2.406   4.228  20.053  0.00  0.00    +0.000 A 
ATOM     12  C   UNL     1       3.197   3.615  19.068  0.00  0.00    +0.000 A 
ATOM     13  C   UNL     1       3.714   4.364  17.988  0.00  0.00    +0.000 A 
ATOM     14  C   UNL     1       3.450   5.726  17.889  0.00  0.00    +0.000 A 
ATOM     15  C   UNL     1       2.683   6.304  18.885  0.00  0.00    +0.000 A 
ATOM     16  C   UNL     1       2.297   7.708  19.024  0.00  0.00    +0.000 C 
ATOM     17  O   UNL     1       2.614   8.582  18.233  0.00  0.00    +0.000 OA
BRANCH  11  18
ATOM     18  C   UNL     1       1.882   3.413  21.161  0.00  0.00    +0.000 C 
ATOM     19  O   UNL     1       2.454   3.268  22.237  0.00  0.00    +0.000 OA
ATOM     20  F   UNL     1       0.718   2.773  20.981  0.00  0.00    +0.000 F 
ENDBRANCH  11  18
ENDBRANCH   6   8
BRANCH   1  22
ATOM     21  C   UNL     1      -0.415  12.742  18.439  0.00  0.00    +0.000 C 
ATOM     22  C   UNL     1      -1.320  11.713  19.140  0.00  0.00    +0.000 C 
BRANCH  22  23
ATOM     23  C   UNL     1      -2.056  10.811  18.122  0.00  0.00    +0.000 C 
BRANCH  23  24
ATOM     24  C   UNL     1      -3.423  11.304  17.789  0.00  0.00    +0.000 A 
ATOM     25  N   UNL     1      -4.292  11.812  18.641  0.00  0.00    +0.000 NA
ATOM     26  N   UNL     1      -5.427  12.152  17.947  0.00  0.00    +0.000 NA
ATOM     27  C   UNL     1      -5.227  11.850  16.687  0.00  0.00    +0.000 A 
ATOM     28  N   UNL     1      -3.987  11.311  16.539  0.00  0.00    +0.000 N 
ATOM     29  C   UNL     1      -3.408  10.850  15.307  0.00  0.00    +0.000 C 
ENDBRANCH  23  24
ENDBRANCH  22  23
ENDBRANCH   1  22
TORSDOF 5
ENDMDL
