MODEL 1
REMARK VINA RESULT:      -8.6      0.000      0.000
REMARK  Name = 
REMARK  3 active torsions:
REMARK  status: ('A' for Active; 'I' for Inactive)
REMARK    1  A    between atoms: C_2  and  C_3
REMARK    2  A    between atoms: N_12  and  C_13
REMARK    3  A    between atoms: C_13  and  C_14
REMARK                            x       y       z     vdW  Elec       q    Type
REMARK                         _______ _______ _______ _____ _____    ______ ____
ROOT
ATOM      1  C   UNL     1       2.837   7.458  18.339  0.00  0.00    +0.000 A 
ATOM      2  C   UNL     1       2.284   8.462  17.516  0.00  0.00    +0.000 A 
ATOM      3  C   UNL     1       1.475   9.476  18.039  0.00  0.00    +0.000 A 
ATOM      4  C   UNL     1       1.112   9.360  19.360  0.00  0.00    +0.000 A 
ATOM      5  C   UNL     1       1.488   8.247  20.114  0.00  0.00    +0.000 A 
ATOM      6  C   UNL     1       2.355   7.286  19.646  0.00  0.00    +0.000 A 
ATOM      7  N   UNL     1       0.853   8.331  21.347  0.00  0.00    +0.000 N 
ATOM      8  C   UNL     1       0.113   9.522  21.397  0.00  0.00    +0.000 A 
ATOM      9  O   UNL     1      -0.579   9.886  22.336  0.00  0.00    +0.000 OA
ATOM     10  N   UNL     1       0.317  10.178  20.168  0.00  0.00    +0.000 N 
ATOM     11  H   UNL     1       0.863   7.649  22.088  0.00  0.00    +0.000 HD
ENDROOT
BRANCH   1  13
ATOM     12  O   UNL     1       5.004   7.074  17.604  0.00  0.00    +0.000 OA
ATOM     13  C   UNL     1       3.922   6.550  17.863  0.00  0.00    +0.000 C 
ATOM     14  N   UNL     1       3.674   5.181  17.724  0.00  0.00    +0.000 N 
ATOM     15  C   UNL     1       2.359   4.539  17.648  0.00  0.00    +0.000 C 
ATOM     16  C   UNL     1       2.712   3.108  17.848  0.00  0.00    +0.000 C 
ATOM     17  C   UNL     1       4.026   2.925  17.690  0.00  0.00    +0.000 C 
ATOM     18  C   UNL     1       4.718   4.217  17.315  0.00  0.00    +0.000 C 
ATOM     19  C   UNL     1       4.980   4.224  15.796  0.00  0.00    +0.000 C 
ATOM     20  C   UNL     1       6.290   4.967  15.626  0.00  0.00    +0.000 C 
ATOM     21  C   UNL     1       7.095   4.564  16.848  0.00  0.00    +0.000 C 
ATOM     22  C   UNL     1       6.090   4.375  17.988  0.00  0.00    +0.000 C 
ENDBRANCH   1  13
BRANCH  10  23
ATOM     23  C   UNL     1      -0.279  11.436  19.800  0.00  0.00    +0.000 C 
BRANCH  23  24
ATOM     24  C   UNL     1      -1.659  11.353  19.202  0.00  0.00    +0.000 C 
ATOM     25  C   UNL     1      -2.030  10.266  18.221  0.00  0.00    +0.000 C 
ATOM     26  C   UNL     1      -2.020  11.700  17.773  0.00  0.00    +0.000 C 
ENDBRANCH  23  24
ENDBRANCH  10  23
TORSDOF 3
ENDMDL
MODEL 2
REMARK VINA RESULT:      -8.2      0.805      1.229
REMARK  Name = 
REMARK  3 active torsions:
REMARK  status: ('A' for Active; 'I' for Inactive)
REMARK    1  A    between atoms: C_2  and  C_3
REMARK    2  A    between atoms: N_12  and  C_13
REMARK    3  A    between atoms: C_13  and  C_14
REMARK                            x       y       z     vdW  Elec       q    Type
REMARK                         _______ _______ _______ _____ _____    ______ ____
ROOT
ATOM      1  C   UNL     1       2.723   7.481  18.396  0.00  0.00    +0.000 A 
ATOM      2  C   UNL     1       2.089   8.429  17.566  0.00  0.00    +0.000 A 
ATOM      3  C   UNL     1       1.283   9.444  18.093  0.00  0.00    +0.000 A 
ATOM      4  C   UNL     1       1.006   9.378  19.438  0.00  0.00    +0.000 A 
ATOM      5  C   UNL     1       1.462   8.313  20.216  0.00  0.00    +0.000 A 
ATOM      6  C   UNL     1       2.328   7.356  19.737  0.00  0.00    +0.000 A 
ATOM      7  N   UNL     1       0.904   8.436  21.482  0.00  0.00    +0.000 N 
ATOM      8  C   UNL     1       0.131   9.607  21.525  0.00  0.00    +0.000 A 
ATOM      9  O   UNL     1      -0.512   9.994  22.489  0.00  0.00    +0.000 OA
ATOM     10  N   UNL     1       0.238  10.210  20.258  0.00  0.00    +0.000 N 
ATOM     11  H   UNL     1       0.981   7.789  22.249  0.00  0.00    +0.000 HD
ENDROOT
BRANCH   1  13
ATOM     12  O   UNL     1       4.879   7.115  17.619  0.00  0.00    +0.000 OA
ATOM     13  C   UNL     1       3.803   6.583  17.892  0.00  0.00    +0.000 C 
ATOM     14  N   UNL     1       3.561   5.214  17.746  0.00  0.00    +0.000 N 
ATOM     15  C   UNL     1       2.248   4.565  17.688  0.00  0.00    +0.000 C 
ATOM     16  C   UNL     1       2.612   3.135  17.870  0.00  0.00    +0.000 C 
ATOM     17  C   UNL     1       3.924   2.960  17.686  0.00  0.00    +0.000 C 
ATOM     18  C   UNL     1       4.602   4.259  17.310  0.00  0.00    +0.000 C 
ATOM     19  C   UNL     1       4.837   4.280  15.787  0.00  0.00    +0.000 C 
ATOM     20  C   UNL     1       6.139   5.032  15.600  0.00  0.00    +0.000 C 
ATOM     21  C   UNL     1       6.969   4.622  16.804  0.00  0.00    +0.000 C 
ATOM     22  C   UNL     1       5.985   4.418  17.961  0.00  0.00    +0.000 C 
ENDBRANCH   1  13
BRANCH  10  23
ATOM     23  C   UNL     1      -0.419  11.432  19.873  0.00  0.00    +0.000 C 
BRANCH  23  24
ATOM     24  C   UNL     1       0.467  12.647  19.777  0.00  0.00    +0.000 C 
ATOM     25  C   UNL     1      -0.033  13.943  19.184  0.00  0.00    +0.000 C 
ATOM     26  C   UNL     1       1.077  13.192  18.504  0.00  0.00    +0.000 C 
ENDBRANCH  23  24
ENDBRANCH  10  23
TORSDOF 3
ENDMDL
MODEL 3
REMARK VINA RESULT:      -8.2      1.839      7.695
REMARK  Name = 
REMARK  3 active torsions:
REMARK  status: ('A' for Active; 'I' for Inactive)
REMARK    1  A    between atoms: C_2  and  C_3
REMARK    2  A    between atoms: N_12  and  C_13
REMARK    3  A    between atoms: C_13  and  C_14
REMARK                            x       y       z     vdW  Elec       q    Type
REMARK                         _______ _______ _______ _____ _____    ______ ____
ROOT
ATOM      1  C   UNL     1       2.628   7.628  18.116  0.00  0.00    +0.000 A 
ATOM      2  C   UNL     1       3.897   7.733  17.508  0.00  0.00    +0.000 A 
ATOM      3  C   UNL     1       4.568   6.610  17.012  0.00  0.00    +0.000 A 
ATOM      4  C   UNL     1       4.011   5.384  17.288  0.00  0.00    +0.000 A 
ATOM      5  C   UNL     1       2.864   5.275  18.077  0.00  0.00    +0.000 A 
ATOM      6  C   UNL     1       2.142   6.368  18.498  0.00  0.00    +0.000 A 
ATOM      7  N   UNL     1       2.629   3.926  18.309  0.00  0.00    +0.000 N 
ATOM      8  C   UNL     1       3.597   3.172  17.626  0.00  0.00    +0.000 A 
ATOM      9  O   UNL     1       3.685   1.954  17.642  0.00  0.00    +0.000 OA
ATOM     10  N   UNL     1       4.427   4.091  16.956  0.00  0.00    +0.000 N 
ATOM     11  H   UNL     1       1.922   3.521  18.900  0.00  0.00    +0.000 HD
ENDROOT
BRANCH   1  13
ATOM     12  O   UNL     1       1.650   9.629  17.463  0.00  0.00    +0.000 OA
ATOM     13  C   UNL     1       1.777   8.824  18.385  0.00  0.00    +0.000 C 
ATOM     14  N   UNL     1       1.179   8.987  19.639  0.00  0.00    +0.000 N 
ATOM     15  C   UNL     1       1.559   8.304  20.878  0.00  0.00    +0.000 C 
ATOM     16  C   UNL     1       0.398   8.606  21.756  0.00  0.00    +0.000 C 
ATOM     17  C   UNL     1      -0.335   9.595  21.236  0.00  0.00    +0.000 C 
ATOM     18  C   UNL     1       0.277  10.115  19.954  0.00  0.00    +0.000 C 
ATOM     19  C   UNL     1       1.034  11.424  20.254  0.00  0.00    +0.000 C 
ATOM     20  C   UNL     1       0.862  12.272  19.010  0.00  0.00    +0.000 C 
ATOM     21  C   UNL     1      -0.539  11.933  18.532  0.00  0.00    +0.000 C 
ATOM     22  C   UNL     1      -0.775  10.461  18.889  0.00  0.00    +0.000 C 
ENDBRANCH   1  13
BRANCH  10  23
ATOM     23  C   UNL     1       5.562   3.732  16.146  0.00  0.00    +0.000 C 
BRANCH  23  24
ATOM     24  C   UNL     1       5.677   4.454  14.828  0.00  0.00    +0.000 C 
ATOM     25  C   UNL     1       6.148   3.746  13.580  0.00  0.00    +0.000 C 
ATOM     26  C   UNL     1       6.972   4.861  14.160  0.00  0.00    +0.000 C 
ENDBRANCH  23  24
ENDBRANCH  10  23
TORSDOF 3
ENDMDL
MODEL 4
REMARK VINA RESULT:      -8.0      2.044      3.330
REMARK  Name = 
REMARK  3 active torsions:
REMARK  status: ('A' for Active; 'I' for Inactive)
REMARK    1  A    between atoms: C_2  and  C_3
REMARK    2  A    between atoms: N_12  and  C_13
REMARK    3  A    between atoms: C_13  and  C_14
REMARK                            x       y       z     vdW  Elec       q    Type
REMARK                         _______ _______ _______ _____ _____    ______ ____
ROOT
ATOM      1  C   UNL     1       2.132   7.200  19.293  0.00  0.00    +0.000 A 
ATOM      2  C   UNL     1       1.974   7.570  20.646  0.00  0.00    +0.000 A 
ATOM      3  C   UNL     1       1.425   8.804  21.010  0.00  0.00    +0.000 A 
ATOM      4  C   UNL     1       1.198   9.704  19.995  0.00  0.00    +0.000 A 
ATOM      5  C   UNL     1       1.558   9.411  18.679  0.00  0.00    +0.000 A 
ATOM      6  C   UNL     1       2.014   8.172  18.288  0.00  0.00    +0.000 A 
ATOM      7  N   UNL     1       1.353  10.552  17.914  0.00  0.00    +0.000 N 
ATOM      8  C   UNL     1       0.815  11.557  18.732  0.00  0.00    +0.000 A 
ATOM      9  O   UNL     1       0.541  12.691  18.371  0.00  0.00    +0.000 OA
ATOM     10  N   UNL     1       0.681  11.003  20.019  0.00  0.00    +0.000 N 
ATOM     11  H   UNL     1       1.583  10.686  16.943  0.00  0.00    +0.000 HD
ENDROOT
BRANCH   1  13
ATOM     12  O   UNL     1       1.718   4.918  19.357  0.00  0.00    +0.000 OA
ATOM     13  C   UNL     1       2.438   5.797  18.886  0.00  0.00    +0.000 C 
ATOM     14  N   UNL     1       3.503   5.540  18.018  0.00  0.00    +0.000 N 
ATOM     15  C   UNL     1       4.613   6.446  17.712  0.00  0.00    +0.000 C 
ATOM     16  C   UNL     1       5.213   5.793  16.518  0.00  0.00    +0.000 C 
ATOM     17  C   UNL     1       4.760   4.542  16.393  0.00  0.00    +0.000 C 
ATOM     18  C   UNL     1       3.825   4.183  17.527  0.00  0.00    +0.000 C 
ATOM     19  C   UNL     1       4.590   3.335  18.561  0.00  0.00    +0.000 C 
ATOM     20  C   UNL     1       3.566   2.363  19.110  0.00  0.00    +0.000 C 
ATOM     21  C   UNL     1       2.687   2.050  17.912  0.00  0.00    +0.000 C 
ATOM     22  C   UNL     1       2.634   3.327  17.067  0.00  0.00    +0.000 C 
ENDBRANCH   1  13
BRANCH  10  23
ATOM     23  C   UNL     1       0.178  11.709  21.169  0.00  0.00    +0.000 C 
BRANCH  23  24
ATOM     24  C   UNL     1      -1.027  11.096  21.835  0.00  0.00    +0.000 C 
ATOM     25  C   UNL     1      -1.700  11.761  23.012  0.00  0.00    +0.000 C 
ATOM     26  C   UNL     1      -1.034  10.426  23.192  0.00  0.00    +0.000 C 
ENDBRANCH  23  24
ENDBRANCH  10  23
TORSDOF 3
ENDMDL
MODEL 5
REMARK VINA RESULT:      -7.9      1.362      2.426
REMARK  Name = 
REMARK  3 active torsions:
REMARK  status: ('A' for Active; 'I' for Inactive)
REMARK    1  A    between atoms: C_2  and  C_3
REMARK    2  A    between atoms: N_12  and  C_13
REMARK    3  A    between atoms: C_13  and  C_14
REMARK                            x       y       z     vdW  Elec       q    Type
REMARK                         _______ _______ _______ _____ _____    ______ ____
ROOT
ATOM      1  C   UNL     1       3.169   7.469  18.363  0.00  0.00    +0.000 A 
ATOM      2  C   UNL     1       2.657   7.234  19.657  0.00  0.00    +0.000 A 
ATOM      3  C   UNL     1       1.566   7.952  20.157  0.00  0.00    +0.000 A 
ATOM      4  C   UNL     1       1.117   9.005  19.395  0.00  0.00    +0.000 A 
ATOM      5  C   UNL     1       1.766   9.367  18.214  0.00  0.00    +0.000 A 
ATOM      6  C   UNL     1       2.783   8.621  17.662  0.00  0.00    +0.000 A 
ATOM      7  N   UNL     1       1.191  10.545  17.752  0.00  0.00    +0.000 N 
ATOM      8  C   UNL     1       0.142  10.905  18.612  0.00  0.00    +0.000 A 
ATOM      9  O   UNL     1      -0.553  11.903  18.499  0.00  0.00    +0.000 OA
ATOM     10  N   UNL     1       0.076   9.913  19.609  0.00  0.00    +0.000 N 
ATOM     11  H   UNL     1       1.481  11.098  16.963  0.00  0.00    +0.000 HD
ENDROOT
BRANCH   1  13
ATOM     12  O   UNL     1       5.189   7.018  17.313  0.00  0.00    +0.000 OA
ATOM     13  C   UNL     1       4.129   6.533  17.708  0.00  0.00    +0.000 C 
ATOM     14  N   UNL     1       3.798   5.183  17.565  0.00  0.00    +0.000 N 
ATOM     15  C   UNL     1       2.456   4.602  17.659  0.00  0.00    +0.000 C 
ATOM     16  C   UNL     1       2.763   3.151  17.762  0.00  0.00    +0.000 C 
ATOM     17  C   UNL     1       4.031   2.916  17.411  0.00  0.00    +0.000 C 
ATOM     18  C   UNL     1       4.725   4.190  16.980  0.00  0.00    +0.000 C 
ATOM     19  C   UNL     1       4.769   4.242  15.440  0.00  0.00    +0.000 C 
ATOM     20  C   UNL     1       6.075   4.933  15.107  0.00  0.00    +0.000 C 
ATOM     21  C   UNL     1       7.026   4.449  16.187  0.00  0.00    +0.000 C 
ATOM     22  C   UNL     1       6.185   4.262  17.454  0.00  0.00    +0.000 C 
ENDBRANCH   1  13
BRANCH  10  23
ATOM     23  C   UNL     1      -0.859   9.911  20.704  0.00  0.00    +0.000 C 
BRANCH  23  24
ATOM     24  C   UNL     1      -0.347  10.482  22.001  0.00  0.00    +0.000 C 
ATOM     25  C   UNL     1      -0.138   9.611  23.217  0.00  0.00    +0.000 C 
ATOM     26  C   UNL     1      -1.172  10.702  23.250  0.00  0.00    +0.000 C 
ENDBRANCH  23  24
ENDBRANCH  10  23
TORSDOF 3
ENDMDL
MODEL 6
REMARK VINA RESULT:      -7.9      1.805      7.775
REMARK  Name = 
REMARK  3 active torsions:
REMARK  status: ('A' for Active; 'I' for Inactive)
REMARK    1  A    between atoms: C_2  and  C_3
REMARK    2  A    between atoms: N_12  and  C_13
REMARK    3  A    between atoms: C_13  and  C_14
REMARK                            x       y       z     vdW  Elec       q    Type
REMARK                         _______ _______ _______ _____ _____    ______ ____
ROOT
ATOM      1  C   UNL     1       1.497   9.299  19.001  0.00  0.00    +0.000 A 
ATOM      2  C   UNL     1       2.199   8.999  17.814  0.00  0.00    +0.000 A 
ATOM      3  C   UNL     1       2.684   7.713  17.554  0.00  0.00    +0.000 A 
ATOM      4  C   UNL     1       2.589   6.797  18.575  0.00  0.00    +0.000 A 
ATOM      5  C   UNL     1       2.087   7.162  19.825  0.00  0.00    +0.000 A 
ATOM      6  C   UNL     1       1.523   8.393  20.072  0.00  0.00    +0.000 A 
ATOM      7  N   UNL     1       2.256   6.085  20.686  0.00  0.00    +0.000 N 
ATOM      8  C   UNL     1       2.820   5.017  19.972  0.00  0.00    +0.000 A 
ATOM      9  O   UNL     1       3.117   3.930  20.443  0.00  0.00    +0.000 OA
ATOM     10  N   UNL     1       2.983   5.457  18.645  0.00  0.00    +0.000 N 
ATOM     11  H   UNL     1       2.061   6.055  21.673  0.00  0.00    +0.000 HD
ENDROOT
BRANCH   1  13
ATOM     12  O   UNL     1       1.212  11.409  19.925  0.00  0.00    +0.000 OA
ATOM     13  C   UNL     1       0.728  10.567  19.168  0.00  0.00    +0.000 C 
ATOM     14  N   UNL     1      -0.480  10.745  18.488  0.00  0.00    +0.000 N 
ATOM     15  C   UNL     1      -1.299   9.692  17.882  0.00  0.00    +0.000 C 
ATOM     16  C   UNL     1      -2.235  10.486  17.042  0.00  0.00    +0.000 C 
ATOM     17  C   UNL     1      -2.202  11.774  17.396  0.00  0.00    +0.000 C 
ATOM     18  C   UNL     1      -1.262  11.998  18.561  0.00  0.00    +0.000 C 
ATOM     19  C   UNL     1      -2.088  12.116  19.856  0.00  0.00    +0.000 C 
ATOM     20  C   UNL     1      -1.334  13.112  20.714  0.00  0.00    +0.000 C 
ATOM     21  C   UNL     1      -0.774  14.103  19.709  0.00  0.00    +0.000 C 
ATOM     22  C   UNL     1      -0.464  13.305  18.438  0.00  0.00    +0.000 C 
ENDBRANCH   1  13
BRANCH  10  23
ATOM     23  C   UNL     1       3.547   4.668  17.581  0.00  0.00    +0.000 C 
BRANCH  23  24
ATOM     24  C   UNL     1       4.975   4.986  17.219  0.00  0.00    +0.000 C 
ATOM     25  C   UNL     1       5.324   5.689  15.928  0.00  0.00    +0.000 C 
ATOM     26  C   UNL     1       5.791   4.279  16.159  0.00  0.00    +0.000 C 
ENDBRANCH  23  24
ENDBRANCH  10  23
TORSDOF 3
ENDMDL
MODEL 7
REMARK VINA RESULT:      -7.8      1.949      2.971
REMARK  Name = 
REMARK  3 active torsions:
REMARK  status: ('A' for Active; 'I' for Inactive)
REMARK    1  A    between atoms: C_2  and  C_3
REMARK    2  A    between atoms: N_12  and  C_13
REMARK    3  A    between atoms: C_13  and  C_14
REMARK                            x       y       z     vdW  Elec       q    Type
REMARK                         _______ _______ _______ _____ _____    ______ ____
ROOT
ATOM      1  C   UNL     1       2.031   7.451  18.853  0.00  0.00    +0.000 A 
ATOM      2  C   UNL     1       1.864   8.346  17.775  0.00  0.00    +0.000 A 
ATOM      3  C   UNL     1       1.577   9.700  17.984  0.00  0.00    +0.000 A 
ATOM      4  C   UNL     1       1.307  10.083  19.276  0.00  0.00    +0.000 A 
ATOM      5  C   UNL     1       1.264   9.148  20.311  0.00  0.00    +0.000 A 
ATOM      6  C   UNL     1       1.630   7.831  20.143  0.00  0.00    +0.000 A 
ATOM      7  N   UNL     1       0.821   9.795  21.457  0.00  0.00    +0.000 N 
ATOM      8  C   UNL     1       0.629  11.154  21.166  0.00  0.00    +0.000 A 
ATOM      9  O   UNL     1       0.222  11.995  21.952  0.00  0.00    +0.000 OA
ATOM     10  N   UNL     1       0.978  11.332  19.813  0.00  0.00    +0.000 N 
ATOM     11  H   UNL     1       0.616   9.382  22.352  0.00  0.00    +0.000 HD
ENDROOT
BRANCH   1  13
ATOM     12  O   UNL     1       2.119   5.182  19.334  0.00  0.00    +0.000 OA
ATOM     13  C   UNL     1       2.616   6.090  18.669  0.00  0.00    +0.000 C 
ATOM     14  N   UNL     1       3.680   5.903  17.781  0.00  0.00    +0.000 N 
ATOM     15  C   UNL     1       4.558   6.945  17.244  0.00  0.00    +0.000 C 
ATOM     16  C   UNL     1       5.240   6.223  16.138  0.00  0.00    +0.000 C 
ATOM     17  C   UNL     1       5.062   4.905  16.261  0.00  0.00    +0.000 C 
ATOM     18  C   UNL     1       4.267   4.574  17.505  0.00  0.00    +0.000 C 
ATOM     19  C   UNL     1       5.233   4.103  18.609  0.00  0.00    +0.000 C 
ATOM     20  C   UNL     1       4.462   3.059  19.390  0.00  0.00    +0.000 C 
ATOM     21  C   UNL     1       3.627   2.360  18.331  0.00  0.00    +0.000 C 
ATOM     22  C   UNL     1       3.271   3.423  17.287  0.00  0.00    +0.000 C 
ENDBRANCH   1  13
BRANCH  10  23
ATOM     23  C   UNL     1       0.910  12.583  19.105  0.00  0.00    +0.000 C 
BRANCH  23  24
ATOM     24  C   UNL     1       2.086  13.505  19.295  0.00  0.00    +0.000 C 
ATOM     25  C   UNL     1       2.131  14.870  18.648  0.00  0.00    +0.000 C 
ATOM     26  C   UNL     1       3.132  13.822  18.248  0.00  0.00    +0.000 C 
ENDBRANCH  23  24
ENDBRANCH  10  23
TORSDOF 3
ENDMDL
MODEL 8
REMARK VINA RESULT:      -7.8      0.931      1.075
REMARK  Name = 
REMARK  3 active torsions:
REMARK  status: ('A' for Active; 'I' for Inactive)
REMARK    1  A    between atoms: C_2  and  C_3
REMARK    2  A    between atoms: N_12  and  C_13
REMARK    3  A    between atoms: C_13  and  C_14
REMARK                            x       y       z     vdW  Elec       q    Type
REMARK                         _______ _______ _______ _____ _____    ______ ____
ROOT
ATOM      1  C   UNL     1       2.487   7.531  18.752  0.00  0.00    +0.000 A 
ATOM      2  C   UNL     1       1.823   8.474  17.939  0.00  0.00    +0.000 A 
ATOM      3  C   UNL     1       1.133   9.560  18.488  0.00  0.00    +0.000 A 
ATOM      4  C   UNL     1       0.994   9.578  19.856  0.00  0.00    +0.000 A 
ATOM      5  C   UNL     1       1.470   8.527  20.641  0.00  0.00    +0.000 A 
ATOM      6  C   UNL     1       2.228   7.497  20.131  0.00  0.00    +0.000 A 
ATOM      7  N   UNL     1       1.054   8.745  21.949  0.00  0.00    +0.000 N 
ATOM      8  C   UNL     1       0.355   9.961  22.005  0.00  0.00    +0.000 A 
ATOM      9  O   UNL     1      -0.162  10.433  23.006  0.00  0.00    +0.000 OA
ATOM     10  N   UNL     1       0.362  10.494  20.702  0.00  0.00    +0.000 N 
ATOM     11  H   UNL     1       1.175   8.134  22.739  0.00  0.00    +0.000 HD
ENDROOT
BRANCH   1  13
ATOM     12  O   UNL     1       4.340   6.996  17.461  0.00  0.00    +0.000 OA
ATOM     13  C   UNL     1       3.459   6.546  18.193  0.00  0.00    +0.000 C 
ATOM     14  N   UNL     1       3.332   5.189  18.503  0.00  0.00    +0.000 N 
ATOM     15  C   UNL     1       2.140   4.527  19.039  0.00  0.00    +0.000 C 
ATOM     16  C   UNL     1       2.693   3.217  19.472  0.00  0.00    +0.000 C 
ATOM     17  C   UNL     1       3.902   3.020  18.937  0.00  0.00    +0.000 C 
ATOM     18  C   UNL     1       4.293   4.168  18.032  0.00  0.00    +0.000 C 
ATOM     19  C   UNL     1       4.060   3.754  16.566  0.00  0.00    +0.000 C 
ATOM     20  C   UNL     1       5.158   4.444  15.783  0.00  0.00    +0.000 C 
ATOM     21  C   UNL     1       6.348   4.414  16.726  0.00  0.00    +0.000 C 
ATOM     22  C   UNL     1       5.782   4.534  18.144  0.00  0.00    +0.000 C 
ENDBRANCH   1  13
BRANCH  10  23
ATOM     23  C   UNL     1      -0.263  11.732  20.318  0.00  0.00    +0.000 C 
BRANCH  23  24
ATOM     24  C   UNL     1      -1.767  11.705  20.232  0.00  0.00    +0.000 C 
ATOM     25  C   UNL     1      -2.486  11.920  18.921  0.00  0.00    +0.000 C 
ATOM     26  C   UNL     1      -2.658  12.912  20.037  0.00  0.00    +0.000 C 
ENDBRANCH  23  24
ENDBRANCH  10  23
TORSDOF 3
ENDMDL
MODEL 9
REMARK VINA RESULT:      -7.8      2.098      7.671
REMARK  Name = 
REMARK  3 active torsions:
REMARK  status: ('A' for Active; 'I' for Inactive)
REMARK    1  A    between atoms: C_2  and  C_3
REMARK    2  A    between atoms: N_12  and  C_13
REMARK    3  A    between atoms: C_13  and  C_14
REMARK                            x       y       z     vdW  Elec       q    Type
REMARK                         _______ _______ _______ _____ _____    ______ ____
ROOT
ATOM      1  C   UNL     1       1.460   9.336  19.118  0.00  0.00    +0.000 A 
ATOM      2  C   UNL     1       2.207   8.968  17.978  0.00  0.00    +0.000 A 
ATOM      3  C   UNL     1       2.686   7.666  17.804  0.00  0.00    +0.000 A 
ATOM      4  C   UNL     1       2.537   6.804  18.865  0.00  0.00    +0.000 A 
ATOM      5  C   UNL     1       1.988   7.237  20.073  0.00  0.00    +0.000 A 
ATOM      6  C   UNL     1       1.430   8.486  20.234  0.00  0.00    +0.000 A 
ATOM      7  N   UNL     1       2.107   6.204  20.994  0.00  0.00    +0.000 N 
ATOM      8  C   UNL     1       2.687   5.095  20.359  0.00  0.00    +0.000 A 
ATOM      9  O   UNL     1       2.949   4.030  20.896  0.00  0.00    +0.000 OA
ATOM     10  N   UNL     1       2.910   5.466  19.019  0.00  0.00    +0.000 N 
ATOM     11  H   UNL     1       1.870   6.227  21.972  0.00  0.00    +0.000 HD
ENDROOT
BRANCH   1  13
ATOM     12  O   UNL     1       1.181  11.505  19.896  0.00  0.00    +0.000 OA
ATOM     13  C   UNL     1       0.702  10.619  19.189  0.00  0.00    +0.000 C 
ATOM     14  N   UNL     1      -0.493  10.763  18.477  0.00  0.00    +0.000 N 
ATOM     15  C   UNL     1      -1.312   9.680  17.927  0.00  0.00    +0.000 C 
ATOM     16  C   UNL     1      -2.226  10.425  17.021  0.00  0.00    +0.000 C 
ATOM     17  C   UNL     1      -2.186  11.733  17.290  0.00  0.00    +0.000 C 
ATOM     18  C   UNL     1      -1.264  12.024  18.454  0.00  0.00    +0.000 C 
ATOM     19  C   UNL     1      -2.110  12.235  19.724  0.00  0.00    +0.000 C 
ATOM     20  C   UNL     1      -1.360  13.279  20.528  0.00  0.00    +0.000 C 
ATOM     21  C   UNL     1      -0.773  14.196  19.470  0.00  0.00    +0.000 C 
ATOM     22  C   UNL     1      -0.450  13.314  18.260  0.00  0.00    +0.000 C 
ENDBRANCH   1  13
BRANCH  10  23
ATOM     23  C   UNL     1       3.508   4.617  18.021  0.00  0.00    +0.000 C 
BRANCH  23  24
ATOM     24  C   UNL     1       2.580   3.630  17.362  0.00  0.00    +0.000 C 
ATOM     25  C   UNL     1       1.345   3.118  18.066  0.00  0.00    +0.000 C 
ATOM     26  C   UNL     1       2.455   2.166  17.721  0.00  0.00    +0.000 C 
ENDBRANCH  23  24
ENDBRANCH  10  23
TORSDOF 3
ENDMDL
