MODEL 1
REMARK VINA RESULT:      -8.4      0.000      0.000
REMARK  Name = 
REMARK  7 active torsions:
REMARK  status: ('A' for Active; 'I' for Inactive)
REMARK    1  A    between atoms: C_1  and  C_2
REMARK    2  A    between atoms: C_2  and  C_3
REMARK    3  A    between atoms: C_2  and  C_25
REMARK    4  A    between atoms: C_7  and  N_8
REMARK    5  A    between atoms: C_13  and  C_14
REMARK    6  A    between atoms: C_17  and  C_18
REMARK    7  A    between atoms: N_29  and  C_30
REMARK                            x       y       z     vdW  Elec       q    Type
REMARK                         _______ _______ _______ _____ _____    ______ ____
ROOT
ATOM      1  N   UNL     1       2.465   7.895  19.331  0.00  0.00    +0.000 N 
ATOM      2  C   UNL     1       2.123   8.560  20.617  0.00  0.00    +0.000 C 
ATOM      3  C   UNL     1       0.944   9.408  20.244  0.00  0.00    +0.000 A 
ATOM      4  C   UNL     1       1.031   9.665  18.872  0.00  0.00    +0.000 A 
ATOM      5  C   UNL     1       0.052  10.315  18.152  0.00  0.00    +0.000 A 
ATOM      6  C   UNL     1      -1.096  10.679  18.854  0.00  0.00    +0.000 A 
ATOM      7  C   UNL     1      -1.228  10.395  20.231  0.00  0.00    +0.000 A 
ATOM      8  C   UNL     1      -0.201   9.751  20.958  0.00  0.00    +0.000 A 
ATOM      9  C   UNL     1       2.046   8.768  18.301  0.00  0.00    +0.000 C 
ATOM     10  O   UNL     1       2.313   8.721  17.118  0.00  0.00    +0.000 OA
ENDROOT
BRANCH   1  15
ATOM     11  C   UNL     1       2.882   4.421  18.739  0.00  0.00    +0.000 A 
ATOM     12  C   UNL     1       2.631   3.989  20.053  0.00  0.00    +0.000 A 
ATOM     13  C   UNL     1       1.867   4.762  20.926  0.00  0.00    +0.000 A 
ATOM     14  C   UNL     1       1.445   6.027  20.535  0.00  0.00    +0.000 A 
ATOM     15  C   UNL     1       1.901   6.558  19.316  0.00  0.00    +0.000 A 
ATOM     16  C   UNL     1       2.451   5.703  18.361  0.00  0.00    +0.000 A 
BRANCH  11  18
ATOM     17  C   UNL     1       3.656   2.086  18.182  0.00  0.00    +0.000 C 
ATOM     18  C   UNL     1       3.735   3.578  17.802  0.00  0.00    +0.000 C 
BRANCH  18  19
ATOM     19  C   UNL     1       5.166   4.031  17.734  0.00  0.00    +0.000 A 
ATOM     20  N   UNL     1       5.980   4.182  18.761  0.00  0.00    +0.000 NA
ATOM     21  N   UNL     1       7.231   4.487  18.286  0.00  0.00    +0.000 NA
ATOM     22  C   UNL     1       7.154   4.530  16.978  0.00  0.00    +0.000 A 
ATOM     23  N   UNL     1       5.875   4.279  16.585  0.00  0.00    +0.000 N 
ATOM     24  C   UNL     1       5.422   4.259  15.224  0.00  0.00    +0.000 C 
ENDBRANCH  18  19
ENDBRANCH  11  18
ENDBRANCH   1  15
BRANCH   8  25
ATOM     25  C   UNL     1      -0.452   9.349  22.390  0.00  0.00    +0.000 C 
ATOM     26  F   UNL     1       0.662   9.359  23.172  0.00  0.00    +0.000 F 
ATOM     27  F   UNL     1      -1.344  10.169  23.008  0.00  0.00    +0.000 F 
ATOM     28  F   UNL     1      -0.961   8.090  22.490  0.00  0.00    +0.000 F 
ENDBRANCH   8  25
BRANCH   6  29
ATOM     29  C   UNL     1      -2.217  11.265  18.105  0.00  0.00    +0.000 C 
ATOM     30  O   UNL     1      -2.472  10.934  16.956  0.00  0.00    +0.000 OA
ENDBRANCH   6  29
TORSDOF 5
ENDMDL
MODEL 2
REMARK VINA RESULT:      -7.9      0.707      1.180
REMARK  Name = 
REMARK  7 active torsions:
REMARK  status: ('A' for Active; 'I' for Inactive)
REMARK    1  A    between atoms: C_1  and  C_2
REMARK    2  A    between atoms: C_2  and  C_3
REMARK    3  A    between atoms: C_2  and  C_25
REMARK    4  A    between atoms: C_7  and  N_8
REMARK    5  A    between atoms: C_13  and  C_14
REMARK    6  A    between atoms: C_17  and  C_18
REMARK    7  A    between atoms: N_29  and  C_30
REMARK                            x       y       z     vdW  Elec       q    Type
REMARK                         _______ _______ _______ _____ _____    ______ ____
ROOT
ATOM      1  N   UNL     1       2.497   7.531  19.332  0.00  0.00    +0.000 N 
ATOM      2  C   UNL     1       2.168   8.227  20.605  0.00  0.00    +0.000 C 
ATOM      3  C   UNL     1       1.101   9.193  20.184  0.00  0.00    +0.000 A 
ATOM      4  C   UNL     1       1.276   9.440  18.818  0.00  0.00    +0.000 A 
ATOM      5  C   UNL     1       0.403  10.188  18.058  0.00  0.00    +0.000 A 
ATOM      6  C   UNL     1      -0.731  10.668  18.709  0.00  0.00    +0.000 A 
ATOM      7  C   UNL     1      -0.955  10.399  20.077  0.00  0.00    +0.000 A 
ATOM      8  C   UNL     1      -0.035   9.651  20.847  0.00  0.00    +0.000 A 
ATOM      9  C   UNL     1       2.219   8.444  18.289  0.00  0.00    +0.000 C 
ATOM     10  O   UNL     1       2.533   8.370  17.120  0.00  0.00    +0.000 OA
ENDROOT
BRANCH   1  15
ATOM     11  C   UNL     1       2.521   4.073  18.535  0.00  0.00    +0.000 A 
ATOM     12  C   UNL     1       2.305   3.592  19.838  0.00  0.00    +0.000 A 
ATOM     13  C   UNL     1       1.678   4.385  20.798  0.00  0.00    +0.000 A 
ATOM     14  C   UNL     1       1.365   5.706  20.501  0.00  0.00    +0.000 A 
ATOM     15  C   UNL     1       1.800   6.259  19.284  0.00  0.00    +0.000 A 
ATOM     16  C   UNL     1       2.202   5.411  18.253  0.00  0.00    +0.000 A 
BRANCH  11  18
ATOM     17  C   UNL     1       3.496   1.796  18.064  0.00  0.00    +0.000 C 
ATOM     18  C   UNL     1       3.228   3.205  17.503  0.00  0.00    +0.000 C 
BRANCH  18  19
ATOM     19  C   UNL     1       4.496   3.818  16.981  0.00  0.00    +0.000 A 
ATOM     20  N   UNL     1       4.797   4.011  15.711  0.00  0.00    +0.000 NA
ATOM     21  N   UNL     1       5.979   4.705  15.643  0.00  0.00    +0.000 NA
ATOM     22  C   UNL     1       6.385   4.910  16.873  0.00  0.00    +0.000 A 
ATOM     23  N   UNL     1       5.504   4.349  17.746  0.00  0.00    +0.000 N 
ATOM     24  C   UNL     1       5.638   4.368  19.174  0.00  0.00    +0.000 C 
ENDBRANCH  18  19
ENDBRANCH  11  18
ENDBRANCH   1  15
BRANCH   8  25
ATOM     25  C   UNL     1      -0.390   9.277  22.264  0.00  0.00    +0.000 C 
ATOM     26  F   UNL     1       0.675   9.230  23.109  0.00  0.00    +0.000 F 
ATOM     27  F   UNL     1      -1.269  10.150  22.824  0.00  0.00    +0.000 F 
ATOM     28  F   UNL     1      -0.975   8.049  22.340  0.00  0.00    +0.000 F 
ENDBRANCH   8  25
BRANCH   6  29
ATOM     29  C   UNL     1      -1.751  11.367  17.914  0.00  0.00    +0.000 C 
ATOM     30  O   UNL     1      -2.574  10.764  17.241  0.00  0.00    +0.000 OA
ENDBRANCH   6  29
TORSDOF 5
ENDMDL
MODEL 3
REMARK VINA RESULT:      -7.8      3.323      7.841
REMARK  Name = 
REMARK  7 active torsions:
REMARK  status: ('A' for Active; 'I' for Inactive)
REMARK    1  A    between atoms: C_1  and  C_2
REMARK    2  A    between atoms: C_2  and  C_3
REMARK    3  A    between atoms: C_2  and  C_25
REMARK    4  A    between atoms: C_7  and  N_8
REMARK    5  A    between atoms: C_13  and  C_14
REMARK    6  A    between atoms: C_17  and  C_18
REMARK    7  A    between atoms: N_29  and  C_30
REMARK                            x       y       z     vdW  Elec       q    Type
REMARK                         _______ _______ _______ _____ _____    ______ ____
ROOT
ATOM      1  N   UNL     1       2.089   7.018  18.230  0.00  0.00    +0.000 N 
ATOM      2  C   UNL     1       1.908   5.561  18.470  0.00  0.00    +0.000 C 
ATOM      3  C   UNL     1       3.311   5.039  18.390  0.00  0.00    +0.000 A 
ATOM      4  C   UNL     1       4.046   5.932  17.604  0.00  0.00    +0.000 A 
ATOM      5  C   UNL     1       5.408   5.840  17.412  0.00  0.00    +0.000 A 
ATOM      6  C   UNL     1       6.063   4.816  18.093  0.00  0.00    +0.000 A 
ATOM      7  C   UNL     1       5.351   3.925  18.926  0.00  0.00    +0.000 A 
ATOM      8  C   UNL     1       3.951   4.019  19.091  0.00  0.00    +0.000 A 
ATOM      9  C   UNL     1       3.248   7.155  17.432  0.00  0.00    +0.000 C 
ATOM     10  O   UNL     1       3.641   8.136  16.836  0.00  0.00    +0.000 OA
ENDROOT
BRANCH   1  15
ATOM     11  C   UNL     1       0.716   9.533  20.323  0.00  0.00    +0.000 A 
ATOM     12  C   UNL     1       0.260   8.680  21.344  0.00  0.00    +0.000 A 
ATOM     13  C   UNL     1       0.845   7.431  21.546  0.00  0.00    +0.000 A 
ATOM     14  C   UNL     1       1.811   6.972  20.659  0.00  0.00    +0.000 A 
ATOM     15  C   UNL     1       2.092   7.719  19.501  0.00  0.00    +0.000 A 
ATOM     16  C   UNL     1       1.690   9.053  19.434  0.00  0.00    +0.000 A 
BRANCH  11  18
ATOM     17  C   UNL     1      -0.661  11.364  21.377  0.00  0.00    +0.000 C 
ATOM     18  C   UNL     1       0.053  10.885  20.099  0.00  0.00    +0.000 C 
BRANCH  18  19
ATOM     19  C   UNL     1      -0.889  10.897  18.929  0.00  0.00    +0.000 A 
ATOM     20  N   UNL     1      -1.641   9.890  18.531  0.00  0.00    +0.000 NA
ATOM     21  N   UNL     1      -2.452  10.325  17.513  0.00  0.00    +0.000 NA
ATOM     22  C   UNL     1      -2.169  11.588  17.299  0.00  0.00    +0.000 A 
ATOM     23  N   UNL     1      -1.176  11.984  18.142  0.00  0.00    +0.000 N 
ATOM     24  C   UNL     1      -0.606  13.300  18.178  0.00  0.00    +0.000 C 
ENDBRANCH  18  19
ENDBRANCH  11  18
ENDBRANCH   1  15
BRANCH   8  25
ATOM     25  C   UNL     1       3.264   3.131  20.098  0.00  0.00    +0.000 C 
ATOM     26  F   UNL     1       2.689   3.804  21.130  0.00  0.00    +0.000 F 
ATOM     27  F   UNL     1       2.270   2.390  19.539  0.00  0.00    +0.000 F 
ATOM     28  F   UNL     1       4.123   2.242  20.669  0.00  0.00    +0.000 F 
ENDBRANCH   8  25
BRANCH   6  29
ATOM     29  C   UNL     1       7.529   4.751  18.017  0.00  0.00    +0.000 C 
ATOM     30  O   UNL     1       8.107   4.258  17.058  0.00  0.00    +0.000 OA
ENDBRANCH   6  29
TORSDOF 5
ENDMDL
MODEL 4
REMARK VINA RESULT:      -7.7      3.563      4.974
REMARK  Name = 
REMARK  7 active torsions:
REMARK  status: ('A' for Active; 'I' for Inactive)
REMARK    1  A    between atoms: C_1  and  C_2
REMARK    2  A    between atoms: C_2  and  C_3
REMARK    3  A    between atoms: C_2  and  C_25
REMARK    4  A    between atoms: C_7  and  N_8
REMARK    5  A    between atoms: C_13  and  C_14
REMARK    6  A    between atoms: C_17  and  C_18
REMARK    7  A    between atoms: N_29  and  C_30
REMARK                            x       y       z     vdW  Elec       q    Type
REMARK                         _______ _______ _______ _____ _____    ______ ____
ROOT
ATOM      1  N   UNL     1      -0.247   9.185  20.254  0.00  0.00    +0.000 N 
ATOM      2  C   UNL     1      -0.859  10.164  19.315  0.00  0.00    +0.000 C 
ATOM      3  C   UNL     1      -0.885  11.424  20.127  0.00  0.00    +0.000 A 
ATOM      4  C   UNL     1      -0.893  11.054  21.476  0.00  0.00    +0.000 A 
ATOM      5  C   UNL     1      -0.794  11.951  22.517  0.00  0.00    +0.000 A 
ATOM      6  C   UNL     1      -0.629  13.290  22.168  0.00  0.00    +0.000 A 
ATOM      7  C   UNL     1      -0.575  13.688  20.814  0.00  0.00    +0.000 A 
ATOM      8  C   UNL     1      -0.705  12.755  19.760  0.00  0.00    +0.000 A 
ATOM      9  C   UNL     1      -0.570   9.622  21.559  0.00  0.00    +0.000 C 
ATOM     10  O   UNL     1      -0.453   9.019  22.606  0.00  0.00    +0.000 OA
ENDROOT
BRANCH   1  15
ATOM     11  C   UNL     1       2.508   7.080  19.502  0.00  0.00    +0.000 A 
ATOM     12  C   UNL     1       2.779   7.597  18.223  0.00  0.00    +0.000 A 
ATOM     13  C   UNL     1       2.399   8.894  17.882  0.00  0.00    +0.000 A 
ATOM     14  C   UNL     1       1.642   9.646  18.772  0.00  0.00    +0.000 A 
ATOM     15  C   UNL     1       1.165   9.043  19.949  0.00  0.00    +0.000 A 
ATOM     16  C   UNL     1       1.740   7.851  20.389  0.00  0.00    +0.000 A 
BRANCH  11  18
ATOM     17  C   UNL     1       4.387   5.397  19.500  0.00  0.00    +0.000 C 
ATOM     18  C   UNL     1       2.909   5.654  19.856  0.00  0.00    +0.000 C 
BRANCH  18  19
ATOM     19  C   UNL     1       2.024   4.616  19.227  0.00  0.00    +0.000 A 
ATOM     20  N   UNL     1       1.742   4.515  17.942  0.00  0.00    +0.000 NA
ATOM     21  N   UNL     1       1.008   3.373  17.744  0.00  0.00    +0.000 NA
ATOM     22  C   UNL     1       0.843   2.805  18.915  0.00  0.00    +0.000 A 
ATOM     23  N   UNL     1       1.437   3.561  19.879  0.00  0.00    +0.000 N 
ATOM     24  C   UNL     1       1.445   3.249  21.279  0.00  0.00    +0.000 C 
ENDBRANCH  18  19
ENDBRANCH  11  18
ENDBRANCH   1  15
BRANCH   8  25
ATOM     25  C   UNL     1      -0.501  13.216  18.338  0.00  0.00    +0.000 C 
ATOM     26  F   UNL     1      -1.400  12.702  17.455  0.00  0.00    +0.000 F 
ATOM     27  F   UNL     1      -0.591  14.567  18.214  0.00  0.00    +0.000 F 
ATOM     28  F   UNL     1       0.725  12.872  17.856  0.00  0.00    +0.000 F 
ENDBRANCH   8  25
BRANCH   6  29
ATOM     29  C   UNL     1      -0.397  14.269  23.239  0.00  0.00    +0.000 C 
ATOM     30  O   UNL     1       0.313  15.251  23.077  0.00  0.00    +0.000 OA
ENDBRANCH   6  29
TORSDOF 5
ENDMDL
MODEL 5
REMARK VINA RESULT:      -7.7      3.275      7.751
REMARK  Name = 
REMARK  7 active torsions:
REMARK  status: ('A' for Active; 'I' for Inactive)
REMARK    1  A    between atoms: C_1  and  C_2
REMARK    2  A    between atoms: C_2  and  C_3
REMARK    3  A    between atoms: C_2  and  C_25
REMARK    4  A    between atoms: C_7  and  N_8
REMARK    5  A    between atoms: C_13  and  C_14
REMARK    6  A    between atoms: C_17  and  C_18
REMARK    7  A    between atoms: N_29  and  C_30
REMARK                            x       y       z     vdW  Elec       q    Type
REMARK                         _______ _______ _______ _____ _____    ______ ____
ROOT
ATOM      1  N   UNL     1       2.987   5.899  17.585  0.00  0.00    +0.000 N 
ATOM      2  C   UNL     1       1.843   4.999  17.896  0.00  0.00    +0.000 C 
ATOM      3  C   UNL     1       2.505   3.870  18.629  0.00  0.00    +0.000 A 
ATOM      4  C   UNL     1       3.843   3.835  18.222  0.00  0.00    +0.000 A 
ATOM      5  C   UNL     1       4.790   3.001  18.778  0.00  0.00    +0.000 A 
ATOM      6  C   UNL     1       4.365   2.198  19.835  0.00  0.00    +0.000 A 
ATOM      7  C   UNL     1       3.030   2.244  20.293  0.00  0.00    +0.000 A 
ATOM      8  C   UNL     1       2.067   3.086  19.693  0.00  0.00    +0.000 A 
ATOM      9  C   UNL     1       4.133   5.078  17.493  0.00  0.00    +0.000 C 
ATOM     10  O   UNL     1       5.230   5.361  17.057  0.00  0.00    +0.000 OA
ENDROOT
BRANCH   1  15
ATOM     11  C   UNL     1       1.794   9.045  18.713  0.00  0.00    +0.000 A 
ATOM     12  C   UNL     1       1.270   8.604  19.940  0.00  0.00    +0.000 A 
ATOM     13  C   UNL     1       1.757   7.450  20.552  0.00  0.00    +0.000 A 
ATOM     14  C   UNL     1       2.691   6.662  19.890  0.00  0.00    +0.000 A 
ATOM     15  C   UNL     1       3.034   6.972  18.562  0.00  0.00    +0.000 A 
ATOM     16  C   UNL     1       2.735   8.236  18.055  0.00  0.00    +0.000 A 
BRANCH  11  18
ATOM     17  C   UNL     1       2.319  11.386  17.936  0.00  0.00    +0.000 C 
ATOM     18  C   UNL     1       1.237  10.295  18.044  0.00  0.00    +0.000 C 
BRANCH  18  19
ATOM     19  C   UNL     1       0.009  10.832  18.721  0.00  0.00    +0.000 A 
ATOM     20  N   UNL     1      -0.012  11.593  19.798  0.00  0.00    +0.000 NA
ATOM     21  N   UNL     1      -1.307  11.979  20.036  0.00  0.00    +0.000 NA
ATOM     22  C   UNL     1      -2.056  11.434  19.108  0.00  0.00    +0.000 A 
ATOM     23  N   UNL     1      -1.281  10.683  18.277  0.00  0.00    +0.000 N 
ATOM     24  C   UNL     1      -1.768   9.932  17.155  0.00  0.00    +0.000 C 
ENDBRANCH  18  19
ENDBRANCH  11  18
ENDBRANCH   1  15
BRANCH   8  25
ATOM     25  C   UNL     1       0.695   3.196  20.311  0.00  0.00    +0.000 C 
ATOM     26  F   UNL     1      -0.294   2.630  19.569  0.00  0.00    +0.000 F 
ATOM     27  F   UNL     1       0.630   2.602  21.532  0.00  0.00    +0.000 F 
ATOM     28  F   UNL     1       0.319   4.492  20.499  0.00  0.00    +0.000 F 
ENDBRANCH   8  25
BRANCH   6  29
ATOM     29  C   UNL     1       5.365   1.383  20.539  0.00  0.00    +0.000 C 
ATOM     30  O   UNL     1       5.515   1.445  21.751  0.00  0.00    +0.000 OA
ENDBRANCH   6  29
TORSDOF 5
ENDMDL
MODEL 6
REMARK VINA RESULT:      -7.6      3.429      4.822
REMARK  Name = 
REMARK  7 active torsions:
REMARK  status: ('A' for Active; 'I' for Inactive)
REMARK    1  A    between atoms: C_1  and  C_2
REMARK    2  A    between atoms: C_2  and  C_3
REMARK    3  A    between atoms: C_2  and  C_25
REMARK    4  A    between atoms: C_7  and  N_8
REMARK    5  A    between atoms: C_13  and  C_14
REMARK    6  A    between atoms: C_17  and  C_18
REMARK    7  A    between atoms: N_29  and  C_30
REMARK                            x       y       z     vdW  Elec       q    Type
REMARK                         _______ _______ _______ _____ _____    ______ ____
ROOT
ATOM      1  N   UNL     1       0.030   8.928  21.018  0.00  0.00    +0.000 N 
ATOM      2  C   UNL     1      -1.011   9.434  20.083  0.00  0.00    +0.000 C 
ATOM      3  C   UNL     1      -1.094  10.887  20.442  0.00  0.00    +0.000 A 
ATOM      4  C   UNL     1      -0.658  11.018  21.764  0.00  0.00    +0.000 A 
ATOM      5  C   UNL     1      -0.482  12.231  22.396  0.00  0.00    +0.000 A 
ATOM      6  C   UNL     1      -0.715  13.370  21.627  0.00  0.00    +0.000 A 
ATOM      7  C   UNL     1      -1.116  13.268  20.277  0.00  0.00    +0.000 A 
ATOM      8  C   UNL     1      -1.316  12.015  19.654  0.00  0.00    +0.000 A 
ATOM      9  C   UNL     1      -0.017   9.756  22.162  0.00  0.00    +0.000 C 
ATOM     10  O   UNL     1       0.506   9.579  23.242  0.00  0.00    +0.000 OA
ENDROOT
BRANCH   1  15
ATOM     11  C   UNL     1       2.550   6.955  19.486  0.00  0.00    +0.000 A 
ATOM     12  C   UNL     1       2.427   7.488  18.191  0.00  0.00    +0.000 A 
ATOM     13  C   UNL     1       1.910   8.767  17.991  0.00  0.00    +0.000 A 
ATOM     14  C   UNL     1       1.403   9.481  19.070  0.00  0.00    +0.000 A 
ATOM     15  C   UNL     1       1.303   8.852  20.324  0.00  0.00    +0.000 A 
ATOM     16  C   UNL     1       2.031   7.687  20.565  0.00  0.00    +0.000 A 
BRANCH  11  18
ATOM     17  C   UNL     1       4.421   5.359  18.924  0.00  0.00    +0.000 C 
ATOM     18  C   UNL     1       3.096   5.548  19.688  0.00  0.00    +0.000 C 
BRANCH  18  19
ATOM     19  C   UNL     1       2.114   4.472  19.320  0.00  0.00    +0.000 A 
ATOM     20  N   UNL     1       1.614   4.259  18.118  0.00  0.00    +0.000 NA
ATOM     21  N   UNL     1       0.855   3.116  18.157  0.00  0.00    +0.000 NA
ATOM     22  C   UNL     1       0.895   2.661  19.386  0.00  0.00    +0.000 A 
ATOM     23  N   UNL     1       1.648   3.491  20.159  0.00  0.00    +0.000 N 
ATOM     24  C   UNL     1       1.897   3.308  21.560  0.00  0.00    +0.000 C 
ENDBRANCH  18  19
ENDBRANCH  11  18
ENDBRANCH   1  15
BRANCH   8  25
ATOM     25  C   UNL     1      -1.609  11.964  18.175  0.00  0.00    +0.000 C 
ATOM     26  F   UNL     1      -1.015  12.955  17.458  0.00  0.00    +0.000 F 
ATOM     27  F   UNL     1      -1.198  10.799  17.607  0.00  0.00    +0.000 F 
ATOM     28  F   UNL     1      -2.941  12.065  17.912  0.00  0.00    +0.000 F 
ENDBRANCH   8  25
BRANCH   6  29
ATOM     29  C   UNL     1      -0.424  14.683  22.218  0.00  0.00    +0.000 C 
ATOM     30  O   UNL     1      -0.320  14.842  23.426  0.00  0.00    +0.000 OA
ENDBRANCH   6  29
TORSDOF 5
ENDMDL
MODEL 7
REMARK VINA RESULT:      -7.6      3.444      7.917
REMARK  Name = 
REMARK  7 active torsions:
REMARK  status: ('A' for Active; 'I' for Inactive)
REMARK    1  A    between atoms: C_1  and  C_2
REMARK    2  A    between atoms: C_2  and  C_3
REMARK    3  A    between atoms: C_2  and  C_25
REMARK    4  A    between atoms: C_7  and  N_8
REMARK    5  A    between atoms: C_13  and  C_14
REMARK    6  A    between atoms: C_17  and  C_18
REMARK    7  A    between atoms: N_29  and  C_30
REMARK                            x       y       z     vdW  Elec       q    Type
REMARK                         _______ _______ _______ _____ _____    ______ ____
ROOT
ATOM      1  N   UNL     1       2.110   7.068  18.101  0.00  0.00    +0.000 N 
ATOM      2  C   UNL     1       1.905   5.625  18.400  0.00  0.00    +0.000 C 
ATOM      3  C   UNL     1       3.303   5.085  18.379  0.00  0.00    +0.000 A 
ATOM      4  C   UNL     1       4.068   5.934  17.573  0.00  0.00    +0.000 A 
ATOM      5  C   UNL     1       5.433   5.819  17.418  0.00  0.00    +0.000 A 
ATOM      6  C   UNL     1       6.059   4.819  18.160  0.00  0.00    +0.000 A 
ATOM      7  C   UNL     1       5.317   3.973  19.014  0.00  0.00    +0.000 A 
ATOM      8  C   UNL     1       3.914   4.091  19.139  0.00  0.00    +0.000 A 
ATOM      9  C   UNL     1       3.289   7.156  17.327  0.00  0.00    +0.000 C 
ATOM     10  O   UNL     1       3.708   8.105  16.698  0.00  0.00    +0.000 OA
ENDROOT
BRANCH   1  15
ATOM     11  C   UNL     1       0.551   9.506  20.155  0.00  0.00    +0.000 A 
ATOM     12  C   UNL     1       0.247   8.657  21.233  0.00  0.00    +0.000 A 
ATOM     13  C   UNL     1       0.983   7.494  21.457  0.00  0.00    +0.000 A 
ATOM     14  C   UNL     1       1.953   7.107  20.541  0.00  0.00    +0.000 A 
ATOM     15  C   UNL     1       2.090   7.825  19.340  0.00  0.00    +0.000 A 
ATOM     16  C   UNL     1       1.532   9.099  19.237  0.00  0.00    +0.000 A 
BRANCH  11  18
ATOM     17  C   UNL     1      -0.671  10.873  18.423  0.00  0.00    +0.000 C 
ATOM     18  C   UNL     1      -0.275  10.761  19.908  0.00  0.00    +0.000 C 
BRANCH  18  19
ATOM     19  C   UNL     1       0.405  12.018  20.371  0.00  0.00    +0.000 A 
ATOM     20  N   UNL     1       1.363  12.661  19.732  0.00  0.00    +0.000 NA
ATOM     21  N   UNL     1       1.635  13.824  20.406  0.00  0.00    +0.000 NA
ATOM     22  C   UNL     1       0.848  13.863  21.454  0.00  0.00    +0.000 A 
ATOM     23  N   UNL     1       0.078  12.741  21.491  0.00  0.00    +0.000 N 
ATOM     24  C   UNL     1      -0.890  12.442  22.507  0.00  0.00    +0.000 C 
ENDBRANCH  18  19
ENDBRANCH  11  18
ENDBRANCH   1  15
BRANCH   8  25
ATOM     25  C   UNL     1       3.192   3.255  20.167  0.00  0.00    +0.000 C 
ATOM     26  F   UNL     1       2.652   3.975  21.187  0.00  0.00    +0.000 F 
ATOM     27  F   UNL     1       2.163   2.548  19.628  0.00  0.00    +0.000 F 
ATOM     28  F   UNL     1       4.013   2.341  20.755  0.00  0.00    +0.000 F 
ENDBRANCH   8  25
BRANCH   6  29
ATOM     29  C   UNL     1       7.525   4.735  18.123  0.00  0.00    +0.000 C 
ATOM     30  O   UNL     1       8.123   4.253  17.171  0.00  0.00    +0.000 OA
ENDBRANCH   6  29
TORSDOF 5
ENDMDL
MODEL 8
REMARK VINA RESULT:      -7.6      3.144      4.208
REMARK  Name = 
REMARK  7 active torsions:
REMARK  status: ('A' for Active; 'I' for Inactive)
REMARK    1  A    between atoms: C_1  and  C_2
REMARK    2  A    between atoms: C_2  and  C_3
REMARK    3  A    between atoms: C_2  and  C_25
REMARK    4  A    between atoms: C_7  and  N_8
REMARK    5  A    between atoms: C_13  and  C_14
REMARK    6  A    between atoms: C_17  and  C_18
REMARK    7  A    between atoms: N_29  and  C_30
REMARK                            x       y       z     vdW  Elec       q    Type
REMARK                         _______ _______ _______ _____ _____    ______ ____
ROOT
ATOM      1  N   UNL     1      -0.018   9.066  21.164  0.00  0.00    +0.000 N 
ATOM      2  C   UNL     1      -1.027   9.571  20.193  0.00  0.00    +0.000 C 
ATOM      3  C   UNL     1      -1.031  11.046  20.464  0.00  0.00    +0.000 A 
ATOM      4  C   UNL     1      -0.593  11.232  21.779  0.00  0.00    +0.000 A 
ATOM      5  C   UNL     1      -0.353  12.468  22.339  0.00  0.00    +0.000 A 
ATOM      6  C   UNL     1      -0.520  13.570  21.503  0.00  0.00    +0.000 A 
ATOM      7  C   UNL     1      -0.921  13.410  20.158  0.00  0.00    +0.000 A 
ATOM      8  C   UNL     1      -1.187  12.134  19.610  0.00  0.00    +0.000 A 
ATOM      9  C   UNL     1      -0.025   9.962  22.256  0.00  0.00    +0.000 C 
ATOM     10  O   UNL     1       0.484   9.822  23.349  0.00  0.00    +0.000 OA
ENDROOT
BRANCH   1  15
ATOM     11  C   UNL     1       2.228   6.925  19.443  0.00  0.00    +0.000 A 
ATOM     12  C   UNL     1       2.228   7.619  18.220  0.00  0.00    +0.000 A 
ATOM     13  C   UNL     1       1.914   8.976  18.168  0.00  0.00    +0.000 A 
ATOM     14  C   UNL     1       1.484   9.627  19.318  0.00  0.00    +0.000 A 
ATOM     15  C   UNL     1       1.251   8.879  20.485  0.00  0.00    +0.000 A 
ATOM     16  C   UNL     1       1.788   7.597  20.595  0.00  0.00    +0.000 A 
BRANCH  11  18
ATOM     17  C   UNL     1       2.241   4.847  20.872  0.00  0.00    +0.000 C 
ATOM     18  C   UNL     1       2.551   5.438  19.483  0.00  0.00    +0.000 C 
BRANCH  18  19
ATOM     19  C   UNL     1       3.964   5.127  19.079  0.00  0.00    +0.000 A 
ATOM     20  N   UNL     1       5.054   5.514  19.714  0.00  0.00    +0.000 NA
ATOM     21  N   UNL     1       6.141   4.930  19.113  0.00  0.00    +0.000 NA
ATOM     22  C   UNL     1       5.696   4.209  18.112  0.00  0.00    +0.000 A 
ATOM     23  N   UNL     1       4.341   4.323  18.033  0.00  0.00    +0.000 N 
ATOM     24  C   UNL     1       3.519   3.679  17.048  0.00  0.00    +0.000 C 
ENDBRANCH  18  19
ENDBRANCH  11  18
ENDBRANCH   1  15
BRANCH   8  25
ATOM     25  C   UNL     1      -1.477  12.011  18.134  0.00  0.00    +0.000 C 
ATOM     26  F   UNL     1      -2.802  12.007  17.828  0.00  0.00    +0.000 F 
ATOM     27  F   UNL     1      -0.933  13.029  17.414  0.00  0.00    +0.000 F 
ATOM     28  F   UNL     1      -0.973  10.862  17.606  0.00  0.00    +0.000 F 
ENDBRANCH   8  25
BRANCH   6  29
ATOM     29  C   UNL     1      -0.160  14.899  22.017  0.00  0.00    +0.000 C 
ATOM     30  O   UNL     1       0.843  15.083  22.691  0.00  0.00    +0.000 OA
ENDBRANCH   6  29
TORSDOF 5
ENDMDL
MODEL 9
REMARK VINA RESULT:      -7.6      3.157      4.259
REMARK  Name = 
REMARK  7 active torsions:
REMARK  status: ('A' for Active; 'I' for Inactive)
REMARK    1  A    between atoms: C_1  and  C_2
REMARK    2  A    between atoms: C_2  and  C_3
REMARK    3  A    between atoms: C_2  and  C_25
REMARK    4  A    between atoms: C_7  and  N_8
REMARK    5  A    between atoms: C_13  and  C_14
REMARK    6  A    between atoms: C_17  and  C_18
REMARK    7  A    between atoms: N_29  and  C_30
REMARK                            x       y       z     vdW  Elec       q    Type
REMARK                         _______ _______ _______ _____ _____    ______ ____
ROOT
ATOM      1  N   UNL     1       0.762   8.337  21.132  0.00  0.00    +0.000 N 
ATOM      2  C   UNL     1      -0.485   8.521  20.341  0.00  0.00    +0.000 C 
ATOM      3  C   UNL     1      -0.604  10.014  20.262  0.00  0.00    +0.000 A 
ATOM      4  C   UNL     1       0.083  10.548  21.357  0.00  0.00    +0.000 A 
ATOM      5  C   UNL     1       0.290  11.897  21.547  0.00  0.00    +0.000 A 
ATOM      6  C   UNL     1      -0.182  12.744  20.547  0.00  0.00    +0.000 A 
ATOM      7  C   UNL     1      -0.843  12.229  19.409  0.00  0.00    +0.000 A 
ATOM      8  C   UNL     1      -1.069  10.844  19.245  0.00  0.00    +0.000 A 
ATOM      9  C   UNL     1       0.886   9.474  21.961  0.00  0.00    +0.000 C 
ATOM     10  O   UNL     1       1.632   9.642  22.903  0.00  0.00    +0.000 OA
ENDROOT
BRANCH   1  15
ATOM     11  C   UNL     1       2.367   6.138  18.856  0.00  0.00    +0.000 A 
ATOM     12  C   UNL     1       2.279   6.965  17.722  0.00  0.00    +0.000 A 
ATOM     13  C   UNL     1       2.166   8.348  17.854  0.00  0.00    +0.000 A 
ATOM     14  C   UNL     1       2.024   8.910  19.117  0.00  0.00    +0.000 A 
ATOM     15  C   UNL     1       1.867   8.066  20.231  0.00  0.00    +0.000 A 
ATOM     16  C   UNL     1       2.218   6.721  20.124  0.00  0.00    +0.000 A 
BRANCH  11  18
ATOM     17  C   UNL     1       1.451   4.116  17.659  0.00  0.00    +0.000 C 
ATOM     18  C   UNL     1       2.467   4.627  18.699  0.00  0.00    +0.000 C 
BRANCH  18  19
ATOM     19  C   UNL     1       2.316   3.884  19.996  0.00  0.00    +0.000 A 
ATOM     20  N   UNL     1       1.291   3.970  20.822  0.00  0.00    +0.000 NA
ATOM     21  N   UNL     1       1.463   3.052  21.828  0.00  0.00    +0.000 NA
ATOM     22  C   UNL     1       2.598   2.433  21.605  0.00  0.00    +0.000 A 
ATOM     23  N   UNL     1       3.183   2.939  20.484  0.00  0.00    +0.000 N 
ATOM     24  C   UNL     1       4.442   2.507  19.949  0.00  0.00    +0.000 C 
ENDBRANCH  18  19
ENDBRANCH  11  18
ENDBRANCH   1  15
BRANCH   8  25
ATOM     25  C   UNL     1      -1.655  10.340  17.949  0.00  0.00    +0.000 C 
ATOM     26  F   UNL     1      -0.804   9.570  17.219  0.00  0.00    +0.000 F 
ATOM     27  F   UNL     1      -2.766   9.581  18.145  0.00  0.00    +0.000 F 
ATOM     28  F   UNL     1      -2.031  11.357  17.125  0.00  0.00    +0.000 F 
ENDBRANCH   8  25
BRANCH   6  29
ATOM     29  C   UNL     1       0.121  14.178  20.644  0.00  0.00    +0.000 C 
ATOM     30  O   UNL     1       1.124  14.664  20.139  0.00  0.00    +0.000 OA
ENDBRANCH   6  29
TORSDOF 5
ENDMDL
