MODEL 1
REMARK VINA RESULT:      -8.3      0.000      0.000
REMARK  Name = 
REMARK  6 active torsions:
REMARK  status: ('A' for Active; 'I' for Inactive)
REMARK    1  A    between atoms: C_2  and  C_21
REMARK    2  A    between atoms: N_3  and  C_4
REMARK    3  A    between atoms: C_8  and  S_9
REMARK    4  A    between atoms: S_9  and  N_12
REMARK    5  A    between atoms: N_12  and  C_13
REMARK    6  A    between atoms: C_23  and  C_24
REMARK                            x       y       z     vdW  Elec       q    Type
REMARK                         _______ _______ _______ _____ _____    ______ ____
ROOT
ATOM      1  C   UNL     1       6.641   6.108  16.575  0.00  0.00    +0.000 A 
ATOM      2  C   UNL     1       7.018   5.437  15.405  0.00  0.00    +0.000 A 
ATOM      3  C   UNL     1       6.480   4.191  15.077  0.00  0.00    +0.000 A 
ATOM      4  C   UNL     1       5.551   3.592  15.922  0.00  0.00    +0.000 A 
ATOM      5  C   UNL     1       5.187   4.242  17.106  0.00  0.00    +0.000 A 
ATOM      6  C   UNL     1       5.754   5.478  17.452  0.00  0.00    +0.000 A 
ENDROOT
BRANCH   1   9
ATOM      7  O   UNL     1       8.293   6.930  18.846  0.00  0.00    +0.000 OA
ATOM      8  C   UNL     1       7.887   7.722  17.999  0.00  0.00    +0.000 C 
ATOM      9  N   UNL     1       7.116   7.399  16.893  0.00  0.00    +0.000 N 
ATOM     10  H   UNL     1       6.992   8.156  16.226  0.00  0.00    +0.000 HD
BRANCH   8  11
ATOM     11  C   UNL     1       8.265   9.140  18.080  0.00  0.00    +0.000 A 
ATOM     12  C   UNL     1       9.266   9.674  18.938  0.00  0.00    +0.000 A 
ATOM     13  C   UNL     1       9.297  11.016  18.668  0.00  0.00    +0.000 A 
ATOM     14  N   UNL     1       8.313  11.232  17.746  0.00  0.00    +0.000 N 
ATOM     15  N   UNL     1       7.701  10.104  17.327  0.00  0.00    +0.000 NA
ATOM     16  H   UNL     1       8.014  12.119  17.357  0.00  0.00    +0.000 HD
BRANCH  13  17
ATOM     17  C   UNL     1      10.224  12.073  19.232  0.00  0.00    +0.000 C 
ATOM     18  C   UNL     1      11.667  12.069  18.767  0.00  0.00    +0.000 C 
ATOM     19  C   UNL     1      11.348  11.689  20.170  0.00  0.00    +0.000 C 
ENDBRANCH  13  17
ENDBRANCH   8  11
ENDBRANCH   1   9
BRANCH   5  20
ATOM     20  S   UNL     1       4.075   3.445  18.243  0.00  0.00    +0.000 S 
ATOM     21  O   UNL     1       3.861   2.097  17.762  0.00  0.00    +0.000 OA
ATOM     22  O   UNL     1       4.554   3.695  19.587  0.00  0.00    +0.000 OA
BRANCH  20  23
ATOM     23  N   UNL     1       2.607   4.254  17.998  0.00  0.00    +0.000 N 
ATOM     24  H   UNL     1       1.859   3.556  18.037  0.00  0.00    +0.000 HD
BRANCH  23  25
ATOM     25  C   UNL     1       2.348   5.434  18.775  0.00  0.00    +0.000 A 
ATOM     26  C   UNL     1       2.653   6.683  18.232  0.00  0.00    +0.000 A 
ATOM     27  C   UNL     1       2.371   7.848  18.951  0.00  0.00    +0.000 A 
ATOM     28  C   UNL     1       1.788   7.770  20.217  0.00  0.00    +0.000 A 
ATOM     29  C   UNL     1       1.503   6.524  20.776  0.00  0.00    +0.000 A 
ATOM     30  C   UNL     1       1.792   5.358  20.063  0.00  0.00    +0.000 A 
ATOM     31 CL   UNL     1       1.396   3.836  20.780  0.00  0.00    +0.000 Cl
ENDBRANCH  23  25
ENDBRANCH  20  23
ENDBRANCH   5  20
TORSDOF 6
ENDMDL
MODEL 2
REMARK VINA RESULT:      -8.1      4.571      7.262
REMARK  Name = 
REMARK  6 active torsions:
REMARK  status: ('A' for Active; 'I' for Inactive)
REMARK    1  A    between atoms: C_2  and  C_21
REMARK    2  A    between atoms: N_3  and  C_4
REMARK    3  A    between atoms: C_8  and  S_9
REMARK    4  A    between atoms: S_9  and  N_12
REMARK    5  A    between atoms: N_12  and  C_13
REMARK    6  A    between atoms: C_23  and  C_24
REMARK                            x       y       z     vdW  Elec       q    Type
REMARK                         _______ _______ _______ _____ _____    ______ ____
ROOT
ATOM      1  C   UNL     1       3.214   6.585  18.405  0.00  0.00    +0.000 A 
ATOM      2  C   UNL     1       2.881   5.883  19.571  0.00  0.00    +0.000 A 
ATOM      3  C   UNL     1       1.989   6.410  20.506  0.00  0.00    +0.000 A 
ATOM      4  C   UNL     1       1.414   7.659  20.290  0.00  0.00    +0.000 A 
ATOM      5  C   UNL     1       1.760   8.380  19.142  0.00  0.00    +0.000 A 
ATOM      6  C   UNL     1       2.683   7.864  18.219  0.00  0.00    +0.000 A 
ENDROOT
BRANCH   1   9
ATOM      7  O   UNL     1       5.893   7.459  17.617  0.00  0.00    +0.000 OA
ATOM      8  C   UNL     1       5.316   6.518  17.077  0.00  0.00    +0.000 C 
ATOM      9  N   UNL     1       4.056   6.043  17.410  0.00  0.00    +0.000 N 
ATOM     10  H   UNL     1       3.798   5.171  16.956  0.00  0.00    +0.000 HD
BRANCH   8  11
ATOM     11  C   UNL     1       5.990   5.754  16.018  0.00  0.00    +0.000 A 
ATOM     12  C   UNL     1       5.378   4.755  15.211  0.00  0.00    +0.000 A 
ATOM     13  C   UNL     1       6.357   4.330  14.354  0.00  0.00    +0.000 A 
ATOM     14  N   UNL     1       7.483   5.017  14.708  0.00  0.00    +0.000 N 
ATOM     15  N   UNL     1       7.282   5.930  15.682  0.00  0.00    +0.000 NA
ATOM     16  H   UNL     1       8.416   4.917  14.323  0.00  0.00    +0.000 HD
BRANCH  13  17
ATOM     17  C   UNL     1       6.255   3.329  13.221  0.00  0.00    +0.000 C 
ATOM     18  C   UNL     1       6.685   3.779  11.839  0.00  0.00    +0.000 C 
ATOM     19  C   UNL     1       5.244   3.525  12.112  0.00  0.00    +0.000 C 
ENDBRANCH  13  17
ENDBRANCH   8  11
ENDBRANCH   1   9
BRANCH   5  20
ATOM     20  S   UNL     1       1.109  10.016  18.900  0.00  0.00    +0.000 S 
ATOM     21  O   UNL     1       1.934  10.664  17.902  0.00  0.00    +0.000 OA
ATOM     22  O   UNL     1      -0.326   9.909  18.731  0.00  0.00    +0.000 OA
BRANCH  20  23
ATOM     23  N   UNL     1       1.456  10.804  20.359  0.00  0.00    +0.000 N 
ATOM     24  H   UNL     1       2.061  11.602  20.144  0.00  0.00    +0.000 HD
BRANCH  23  25
ATOM     25  C   UNL     1       0.362  11.119  21.234  0.00  0.00    +0.000 A 
ATOM     26  C   UNL     1      -0.004  10.199  22.218  0.00  0.00    +0.000 A 
ATOM     27  C   UNL     1      -1.038  10.501  23.110  0.00  0.00    +0.000 A 
ATOM     28  C   UNL     1      -1.714  11.719  23.018  0.00  0.00    +0.000 A 
ATOM     29  C   UNL     1      -1.369  12.632  22.021  0.00  0.00    +0.000 A 
ATOM     30  C   UNL     1      -0.342  12.330  21.124  0.00  0.00    +0.000 A 
ATOM     31 CL   UNL     1       0.072  13.501  19.923  0.00  0.00    +0.000 Cl
ENDBRANCH  23  25
ENDBRANCH  20  23
ENDBRANCH   5  20
TORSDOF 6
ENDMDL
MODEL 3
REMARK VINA RESULT:      -8.0      4.328      7.139
REMARK  Name = 
REMARK  6 active torsions:
REMARK  status: ('A' for Active; 'I' for Inactive)
REMARK    1  A    between atoms: C_2  and  C_21
REMARK    2  A    between atoms: N_3  and  C_4
REMARK    3  A    between atoms: C_8  and  S_9
REMARK    4  A    between atoms: S_9  and  N_12
REMARK    5  A    between atoms: N_12  and  C_13
REMARK    6  A    between atoms: C_23  and  C_24
REMARK                            x       y       z     vdW  Elec       q    Type
REMARK                         _______ _______ _______ _____ _____    ______ ____
ROOT
ATOM      1  C   UNL     1       3.178   6.553  18.556  0.00  0.00    +0.000 A 
ATOM      2  C   UNL     1       2.851   5.826  19.707  0.00  0.00    +0.000 A 
ATOM      3  C   UNL     1       1.954   6.328  20.652  0.00  0.00    +0.000 A 
ATOM      4  C   UNL     1       1.368   7.575  20.459  0.00  0.00    +0.000 A 
ATOM      5  C   UNL     1       1.708   8.321  19.325  0.00  0.00    +0.000 A 
ATOM      6  C   UNL     1       2.637   7.830  18.393  0.00  0.00    +0.000 A 
ENDROOT
BRANCH   1   9
ATOM      7  O   UNL     1       5.802   7.534  17.710  0.00  0.00    +0.000 OA
ATOM      8  C   UNL     1       5.257   6.563  17.191  0.00  0.00    +0.000 C 
ATOM      9  N   UNL     1       4.026   6.037  17.551  0.00  0.00    +0.000 N 
ATOM     10  H   UNL     1       3.798   5.150  17.111  0.00  0.00    +0.000 HD
BRANCH   8  11
ATOM     11  C   UNL     1       5.945   5.818  16.127  0.00  0.00    +0.000 A 
ATOM     12  C   UNL     1       5.347   4.824  15.303  0.00  0.00    +0.000 A 
ATOM     13  C   UNL     1       6.336   4.418  14.449  0.00  0.00    +0.000 A 
ATOM     14  N   UNL     1       7.455   5.108  14.820  0.00  0.00    +0.000 N 
ATOM     15  N   UNL     1       7.239   6.007  15.804  0.00  0.00    +0.000 NA
ATOM     16  H   UNL     1       8.391   5.020  14.441  0.00  0.00    +0.000 HD
BRANCH  13  17
ATOM     17  C   UNL     1       6.250   3.430  13.302  0.00  0.00    +0.000 C 
ATOM     18  C   UNL     1       6.682   3.903  11.928  0.00  0.00    +0.000 C 
ATOM     19  C   UNL     1       5.243   3.629  12.191  0.00  0.00    +0.000 C 
ENDBRANCH  13  17
ENDBRANCH   8  11
ENDBRANCH   1   9
BRANCH   5  20
ATOM     20  S   UNL     1       1.043   9.956  19.113  0.00  0.00    +0.000 S 
ATOM     21  O   UNL     1       1.950  10.681  18.249  0.00  0.00    +0.000 OA
ATOM     22  O   UNL     1      -0.363   9.830  18.787  0.00  0.00    +0.000 OA
BRANCH  20  23
ATOM     23  N   UNL     1       1.214  10.658  20.646  0.00  0.00    +0.000 N 
ATOM     24  H   UNL     1       2.071  11.219  20.635  0.00  0.00    +0.000 HD
BRANCH  23  25
ATOM     25  C   UNL     1       0.080  11.333  21.210  0.00  0.00    +0.000 A 
ATOM     26  C   UNL     1      -0.411  12.478  20.580  0.00  0.00    +0.000 A 
ATOM     27  C   UNL     1      -1.540  13.128  21.085  0.00  0.00    +0.000 A 
ATOM     28  C   UNL     1      -2.180  12.642  22.227  0.00  0.00    +0.000 A 
ATOM     29  C   UNL     1      -1.680  11.513  22.877  0.00  0.00    +0.000 A 
ATOM     30  C   UNL     1      -0.547  10.866  22.378  0.00  0.00    +0.000 A 
ATOM     31 CL   UNL     1       0.021   9.455  23.196  0.00  0.00    +0.000 Cl
ENDBRANCH  23  25
ENDBRANCH  20  23
ENDBRANCH   5  20
TORSDOF 6
ENDMDL
MODEL 4
REMARK VINA RESULT:      -8.0      1.080      1.130
REMARK  Name = 
REMARK  6 active torsions:
REMARK  status: ('A' for Active; 'I' for Inactive)
REMARK    1  A    between atoms: C_2  and  C_21
REMARK    2  A    between atoms: N_3  and  C_4
REMARK    3  A    between atoms: C_8  and  S_9
REMARK    4  A    between atoms: S_9  and  N_12
REMARK    5  A    between atoms: N_12  and  C_13
REMARK    6  A    between atoms: C_23  and  C_24
REMARK                            x       y       z     vdW  Elec       q    Type
REMARK                         _______ _______ _______ _____ _____    ______ ____
ROOT
ATOM      1  C   UNL     1       6.572   6.269  16.669  0.00  0.00    +0.000 A 
ATOM      2  C   UNL     1       6.800   5.747  15.390  0.00  0.00    +0.000 A 
ATOM      3  C   UNL     1       6.163   4.583  14.956  0.00  0.00    +0.000 A 
ATOM      4  C   UNL     1       5.283   3.916  15.803  0.00  0.00    +0.000 A 
ATOM      5  C   UNL     1       5.068   4.414  17.092  0.00  0.00    +0.000 A 
ATOM      6  C   UNL     1       5.735   5.565  17.540  0.00  0.00    +0.000 A 
ENDROOT
BRANCH   1   9
ATOM      7  O   UNL     1       8.382   6.716  18.924  0.00  0.00    +0.000 OA
ATOM      8  C   UNL     1       7.991   7.625  18.197  0.00  0.00    +0.000 C 
ATOM      9  N   UNL     1       7.147   7.482  17.105  0.00  0.00    +0.000 N 
ATOM     10  H   UNL     1       7.044   8.318  16.537  0.00  0.00    +0.000 HD
BRANCH   8  11
ATOM     11  C   UNL     1       8.467   8.997  18.418  0.00  0.00    +0.000 A 
ATOM     12  C   UNL     1       8.298  10.080  17.510  0.00  0.00    +0.000 A 
ATOM     13  C   UNL     1       8.869  11.162  18.126  0.00  0.00    +0.000 A 
ATOM     14  N   UNL     1       9.390  10.690  19.296  0.00  0.00    +0.000 N 
ATOM     15  N   UNL     1       9.117   9.389  19.530  0.00  0.00    +0.000 NA
ATOM     16  H   UNL     1       9.934  11.202  19.982  0.00  0.00    +0.000 HD
BRANCH  13  17
ATOM     17  C   UNL     1       8.918  12.601  17.655  0.00  0.00    +0.000 C 
ATOM     18  C   UNL     1      10.272  13.183  17.299  0.00  0.00    +0.000 C 
ATOM     19  C   UNL     1       9.562  13.669  18.513  0.00  0.00    +0.000 C 
ENDBRANCH  13  17
ENDBRANCH   8  11
ENDBRANCH   1   9
BRANCH   5  20
ATOM     20  S   UNL     1       4.023   3.520  18.219  0.00  0.00    +0.000 S 
ATOM     21  O   UNL     1       3.844   2.190  17.677  0.00  0.00    +0.000 OA
ATOM     22  O   UNL     1       4.533   3.722  19.560  0.00  0.00    +0.000 OA
BRANCH  20  23
ATOM     23  N   UNL     1       2.518   4.283  18.059  0.00  0.00    +0.000 N 
ATOM     24  H   UNL     1       1.795   3.565  18.159  0.00  0.00    +0.000 HD
BRANCH  23  25
ATOM     25  C   UNL     1       2.276   5.469  18.831  0.00  0.00    +0.000 A 
ATOM     26  C   UNL     1       2.518   6.716  18.251  0.00  0.00    +0.000 A 
ATOM     27  C   UNL     1       2.249   7.887  18.966  0.00  0.00    +0.000 A 
ATOM     28  C   UNL     1       1.745   7.817  20.266  0.00  0.00    +0.000 A 
ATOM     29  C   UNL     1       1.526   6.574  20.862  0.00  0.00    +0.000 A 
ATOM     30  C   UNL     1       1.800   5.402  20.151  0.00  0.00    +0.000 A 
ATOM     31 CL   UNL     1       1.487   3.885  20.914  0.00  0.00    +0.000 Cl
ENDBRANCH  23  25
ENDBRANCH  20  23
ENDBRANCH   5  20
TORSDOF 6
ENDMDL
MODEL 5
REMARK VINA RESULT:      -8.0      2.340      3.342
REMARK  Name = 
REMARK  6 active torsions:
REMARK  status: ('A' for Active; 'I' for Inactive)
REMARK    1  A    between atoms: C_2  and  C_21
REMARK    2  A    between atoms: N_3  and  C_4
REMARK    3  A    between atoms: C_8  and  S_9
REMARK    4  A    between atoms: S_9  and  N_12
REMARK    5  A    between atoms: N_12  and  C_13
REMARK    6  A    between atoms: C_23  and  C_24
REMARK                            x       y       z     vdW  Elec       q    Type
REMARK                         _______ _______ _______ _____ _____    ______ ____
ROOT
ATOM      1  C   UNL     1       7.886   7.937  17.972  0.00  0.00    +0.000 A 
ATOM      2  C   UNL     1       8.418   7.180  19.023  0.00  0.00    +0.000 A 
ATOM      3  C   UNL     1       8.029   5.856  19.236  0.00  0.00    +0.000 A 
ATOM      4  C   UNL     1       7.091   5.266  18.395  0.00  0.00    +0.000 A 
ATOM      5  C   UNL     1       6.533   6.020  17.357  0.00  0.00    +0.000 A 
ATOM      6  C   UNL     1       6.900   7.362  17.166  0.00  0.00    +0.000 A 
ENDROOT
BRANCH   1   9
ATOM      7  O   UNL     1       9.194   9.842  19.767  0.00  0.00    +0.000 OA
ATOM      8  C   UNL     1       8.920  10.110  18.600  0.00  0.00    +0.000 C 
ATOM      9  N   UNL     1       8.316   9.252  17.693  0.00  0.00    +0.000 N 
ATOM     10  H   UNL     1       8.295   9.593  16.736  0.00  0.00    +0.000 HD
BRANCH   8  11
ATOM     11  C   UNL     1       9.290  11.418  18.042  0.00  0.00    +0.000 A 
ATOM     12  C   UNL     1      10.620  11.899  17.890  0.00  0.00    +0.000 A 
ATOM     13  C   UNL     1      10.496  13.135  17.317  0.00  0.00    +0.000 A 
ATOM     14  N   UNL     1       9.154  13.362  17.212  0.00  0.00    +0.000 N 
ATOM     15  N   UNL     1       8.391  12.316  17.595  0.00  0.00    +0.000 NA
ATOM     16  H   UNL     1       8.692  14.203  16.881  0.00  0.00    +0.000 HD
BRANCH  13  17
ATOM     17  C   UNL     1      11.588  14.080  16.858  0.00  0.00    +0.000 C 
ATOM     18  C   UNL     1      12.281  14.924  17.911  0.00  0.00    +0.000 C 
ATOM     19  C   UNL     1      11.385  15.578  16.919  0.00  0.00    +0.000 C 
ENDBRANCH  13  17
ENDBRANCH   8  11
ENDBRANCH   1   9
BRANCH   5  20
ATOM     20  S   UNL     1       5.263   5.311  16.335  0.00  0.00    +0.000 S 
ATOM     21  O   UNL     1       5.243   6.057  15.094  0.00  0.00    +0.000 OA
ATOM     22  O   UNL     1       5.433   3.872  16.342  0.00  0.00    +0.000 OA
BRANCH  20  23
ATOM     23  N   UNL     1       3.829   5.721  17.138  0.00  0.00    +0.000 N 
ATOM     24  H   UNL     1       3.270   6.295  16.499  0.00  0.00    +0.000 HD
BRANCH  23  25
ATOM     25  C   UNL     1       3.090   4.672  17.780  0.00  0.00    +0.000 A 
ATOM     26  C   UNL     1       2.976   3.435  17.143  0.00  0.00    +0.000 A 
ATOM     27  C   UNL     1       2.298   2.384  17.767  0.00  0.00    +0.000 A 
ATOM     28  C   UNL     1       1.725   2.566  19.027  0.00  0.00    +0.000 A 
ATOM     29  C   UNL     1       1.814   3.807  19.659  0.00  0.00    +0.000 A 
ATOM     30  C   UNL     1       2.485   4.861  19.034  0.00  0.00    +0.000 A 
ATOM     31 CL   UNL     1       2.596   6.372  19.864  0.00  0.00    +0.000 Cl
ENDBRANCH  23  25
ENDBRANCH  20  23
ENDBRANCH   5  20
TORSDOF 6
ENDMDL
MODEL 6
REMARK VINA RESULT:      -7.9      2.281      3.172
REMARK  Name = 
REMARK  6 active torsions:
REMARK  status: ('A' for Active; 'I' for Inactive)
REMARK    1  A    between atoms: C_2  and  C_21
REMARK    2  A    between atoms: N_3  and  C_4
REMARK    3  A    between atoms: C_8  and  S_9
REMARK    4  A    between atoms: S_9  and  N_12
REMARK    5  A    between atoms: N_12  and  C_13
REMARK    6  A    between atoms: C_23  and  C_24
REMARK                            x       y       z     vdW  Elec       q    Type
REMARK                         _______ _______ _______ _____ _____    ______ ____
ROOT
ATOM      1  C   UNL     1       7.805   8.023  17.997  0.00  0.00    +0.000 A 
ATOM      2  C   UNL     1       8.477   7.210  18.919  0.00  0.00    +0.000 A 
ATOM      3  C   UNL     1       8.086   5.889  19.142  0.00  0.00    +0.000 A 
ATOM      4  C   UNL     1       7.007   5.357  18.443  0.00  0.00    +0.000 A 
ATOM      5  C   UNL     1       6.312   6.168  17.539  0.00  0.00    +0.000 A 
ATOM      6  C   UNL     1       6.684   7.507  17.341  0.00  0.00    +0.000 A 
ENDROOT
BRANCH   1   9
ATOM      7  O   UNL     1       9.234   9.907  19.720  0.00  0.00    +0.000 OA
ATOM      8  C   UNL     1       8.890  10.185  18.575  0.00  0.00    +0.000 C 
ATOM      9  N   UNL     1       8.225   9.338  17.701  0.00  0.00    +0.000 N 
ATOM     10  H   UNL     1       8.146   9.686  16.750  0.00  0.00    +0.000 HD
BRANCH   8  11
ATOM     11  C   UNL     1       9.232  11.496  18.004  0.00  0.00    +0.000 A 
ATOM     12  C   UNL     1      10.552  12.004  17.849  0.00  0.00    +0.000 A 
ATOM     13  C   UNL     1      10.401  13.232  17.263  0.00  0.00    +0.000 A 
ATOM     14  N   UNL     1       9.055  13.428  17.154  0.00  0.00    +0.000 N 
ATOM     15  N   UNL     1       8.315  12.370  17.546  0.00  0.00    +0.000 NA
ATOM     16  H   UNL     1       8.575  14.255  16.814  0.00  0.00    +0.000 HD
BRANCH  13  17
ATOM     17  C   UNL     1      11.474  14.195  16.797  0.00  0.00    +0.000 C 
ATOM     18  C   UNL     1      12.078  15.132  17.825  0.00  0.00    +0.000 C 
ATOM     19  C   UNL     1      11.204  15.684  16.755  0.00  0.00    +0.000 C 
ENDBRANCH  13  17
ENDBRANCH   8  11
ENDBRANCH   1   9
BRANCH   5  20
ATOM     20  S   UNL     1       4.872   5.533  16.711  0.00  0.00    +0.000 S 
ATOM     21  O   UNL     1       3.799   6.480  16.927  0.00  0.00    +0.000 OA
ATOM     22  O   UNL     1       5.263   5.134  15.374  0.00  0.00    +0.000 OA
BRANCH  20  23
ATOM     23  N   UNL     1       4.461   4.164  17.619  0.00  0.00    +0.000 N 
ATOM     24  H   UNL     1       5.331   3.749  17.965  0.00  0.00    +0.000 HD
BRANCH  23  25
ATOM     25  C   UNL     1       3.439   4.297  18.619  0.00  0.00    +0.000 A 
ATOM     26  C   UNL     1       3.506   5.363  19.519  0.00  0.00    +0.000 A 
ATOM     27  C   UNL     1       2.500   5.539  20.473  0.00  0.00    +0.000 A 
ATOM     28  C   UNL     1       1.427   4.649  20.538  0.00  0.00    +0.000 A 
ATOM     29  C   UNL     1       1.367   3.567  19.658  0.00  0.00    +0.000 A 
ATOM     30  C   UNL     1       2.374   3.384  18.708  0.00  0.00    +0.000 A 
ATOM     31 CL   UNL     1       2.246   2.049  17.619  0.00  0.00    +0.000 Cl
ENDBRANCH  23  25
ENDBRANCH  20  23
ENDBRANCH   5  20
TORSDOF 6
ENDMDL
MODEL 7
REMARK VINA RESULT:      -7.8      2.579      3.517
REMARK  Name = 
REMARK  6 active torsions:
REMARK  status: ('A' for Active; 'I' for Inactive)
REMARK    1  A    between atoms: C_2  and  C_21
REMARK    2  A    between atoms: N_3  and  C_4
REMARK    3  A    between atoms: C_8  and  S_9
REMARK    4  A    between atoms: S_9  and  N_12
REMARK    5  A    between atoms: N_12  and  C_13
REMARK    6  A    between atoms: C_23  and  C_24
REMARK                            x       y       z     vdW  Elec       q    Type
REMARK                         _______ _______ _______ _____ _____    ______ ____
ROOT
ATOM      1  C   UNL     1       7.817   7.878  17.837  0.00  0.00    +0.000 A 
ATOM      2  C   UNL     1       8.215   7.188  18.989  0.00  0.00    +0.000 A 
ATOM      3  C   UNL     1       8.062   5.805  19.097  0.00  0.00    +0.000 A 
ATOM      4  C   UNL     1       7.502   5.085  18.046  0.00  0.00    +0.000 A 
ATOM      5  C   UNL     1       7.077   5.767  16.901  0.00  0.00    +0.000 A 
ATOM      6  C   UNL     1       7.199   7.163  16.808  0.00  0.00    +0.000 A 
ENDROOT
BRANCH   1   9
ATOM      7  O   UNL     1       9.435   9.677  19.483  0.00  0.00    +0.000 OA
ATOM      8  C   UNL     1       8.799  10.063  18.505  0.00  0.00    +0.000 C 
ATOM      9  N   UNL     1       8.027   9.265  17.675  0.00  0.00    +0.000 N 
ATOM     10  H   UNL     1       7.688   9.727  16.836  0.00  0.00    +0.000 HD
BRANCH   8  11
ATOM     11  C   UNL     1       8.868  11.473  18.096  0.00  0.00    +0.000 A 
ATOM     12  C   UNL     1       9.911  12.377  18.440  0.00  0.00    +0.000 A 
ATOM     13  C   UNL     1       9.581  13.559  17.834  0.00  0.00    +0.000 A 
ATOM     14  N   UNL     1       8.374  13.344  17.232  0.00  0.00    +0.000 N 
ATOM     15  N   UNL     1       7.937  12.070  17.326  0.00  0.00    +0.000 NA
ATOM     16  H   UNL     1       7.802  14.017  16.735  0.00  0.00    +0.000 HD
BRANCH  13  17
ATOM     17  C   UNL     1      10.367  14.854  17.795  0.00  0.00    +0.000 C 
ATOM     18  C   UNL     1      10.135  15.856  18.910  0.00  0.00    +0.000 C 
ATOM     19  C   UNL     1       9.667  16.171  17.533  0.00  0.00    +0.000 C 
ENDBRANCH  13  17
ENDBRANCH   8  11
ENDBRANCH   1   9
BRANCH   5  20
ATOM     20  S   UNL     1       6.271   4.875  15.592  0.00  0.00    +0.000 S 
ATOM     21  O   UNL     1       6.513   5.601  14.363  0.00  0.00    +0.000 OA
ATOM     22  O   UNL     1       6.624   3.475  15.718  0.00  0.00    +0.000 OA
BRANCH  20  23
ATOM     23  N   UNL     1       4.622   5.080  15.924  0.00  0.00    +0.000 N 
ATOM     24  H   UNL     1       4.096   4.589  15.197  0.00  0.00    +0.000 HD
BRANCH  23  25
ATOM     25  C   UNL     1       4.164   4.814  17.259  0.00  0.00    +0.000 A 
ATOM     26  C   UNL     1       4.166   3.498  17.726  0.00  0.00    +0.000 A 
ATOM     27  C   UNL     1       3.765   3.219  19.036  0.00  0.00    +0.000 A 
ATOM     28  C   UNL     1       3.354   4.251  19.882  0.00  0.00    +0.000 A 
ATOM     29  C   UNL     1       3.324   5.565  19.413  0.00  0.00    +0.000 A 
ATOM     30  C   UNL     1       3.718   5.846  18.102  0.00  0.00    +0.000 A 
ATOM     31 CL   UNL     1       3.694   7.489  17.571  0.00  0.00    +0.000 Cl
ENDBRANCH  23  25
ENDBRANCH  20  23
ENDBRANCH   5  20
TORSDOF 6
ENDMDL
MODEL 8
REMARK VINA RESULT:      -7.8      4.654      7.093
REMARK  Name = 
REMARK  6 active torsions:
REMARK  status: ('A' for Active; 'I' for Inactive)
REMARK    1  A    between atoms: C_2  and  C_21
REMARK    2  A    between atoms: N_3  and  C_4
REMARK    3  A    between atoms: C_8  and  S_9
REMARK    4  A    between atoms: S_9  and  N_12
REMARK    5  A    between atoms: N_12  and  C_13
REMARK    6  A    between atoms: C_23  and  C_24
REMARK                            x       y       z     vdW  Elec       q    Type
REMARK                         _______ _______ _______ _____ _____    ______ ____
ROOT
ATOM      1  C   UNL     1       2.819   7.419  18.922  0.00  0.00    +0.000 A 
ATOM      2  C   UNL     1       2.892   7.973  17.639  0.00  0.00    +0.000 A 
ATOM      3  C   UNL     1       3.710   7.417  16.653  0.00  0.00    +0.000 A 
ATOM      4  C   UNL     1       4.475   6.291  16.939  0.00  0.00    +0.000 A 
ATOM      5  C   UNL     1       4.429   5.744  18.226  0.00  0.00    +0.000 A 
ATOM      6  C   UNL     1       3.633   6.325  19.227  0.00  0.00    +0.000 A 
ENDROOT
BRANCH   1   9
ATOM      7  O   UNL     1       1.285   9.911  18.906  0.00  0.00    +0.000 OA
ATOM      8  C   UNL     1       1.259   9.121  19.847  0.00  0.00    +0.000 C 
ATOM      9  N   UNL     1       1.947   7.919  19.914  0.00  0.00    +0.000 N 
ATOM     10  H   UNL     1       1.696   7.330  20.703  0.00  0.00    +0.000 HD
BRANCH   8  11
ATOM     11  C   UNL     1       0.399   9.391  21.007  0.00  0.00    +0.000 A 
ATOM     12  C   UNL     1       0.037  10.684  21.477  0.00  0.00    +0.000 A 
ATOM     13  C   UNL     1      -0.782  10.465  22.551  0.00  0.00    +0.000 A 
ATOM     14  N   UNL     1      -0.824   9.110  22.715  0.00  0.00    +0.000 N 
ATOM     15  N   UNL     1      -0.160   8.424  21.760  0.00  0.00    +0.000 NA
ATOM     16  H   UNL     1      -1.292   8.589  23.448  0.00  0.00    +0.000 HD
BRANCH  13  17
ATOM     17  C   UNL     1      -1.524  11.478  23.399  0.00  0.00    +0.000 C 
ATOM     18  C   UNL     1      -2.706  12.193  22.772  0.00  0.00    +0.000 C 
ATOM     19  C   UNL     1      -1.460  12.953  23.065  0.00  0.00    +0.000 C 
ENDBRANCH  13  17
ENDBRANCH   8  11
ENDBRANCH   1   9
BRANCH   5  20
ATOM     20  S   UNL     1       5.473   4.365  18.636  0.00  0.00    +0.000 S 
ATOM     21  O   UNL     1       6.426   4.211  17.557  0.00  0.00    +0.000 OA
ATOM     22  O   UNL     1       5.914   4.527  20.007  0.00  0.00    +0.000 OA
BRANCH  20  23
ATOM     23  N   UNL     1       4.436   3.031  18.522  0.00  0.00    +0.000 N 
ATOM     24  H   UNL     1       5.016   2.187  18.509  0.00  0.00    +0.000 HD
BRANCH  23  25
ATOM     25  C   UNL     1       3.323   2.961  19.427  0.00  0.00    +0.000 A 
ATOM     26  C   UNL     1       3.545   2.552  20.743  0.00  0.00    +0.000 A 
ATOM     27  C   UNL     1       2.485   2.517  21.655  0.00  0.00    +0.000 A 
ATOM     28  C   UNL     1       1.199   2.883  21.253  0.00  0.00    +0.000 A 
ATOM     29  C   UNL     1       0.965   3.267  19.932  0.00  0.00    +0.000 A 
ATOM     30  C   UNL     1       2.021   3.297  19.018  0.00  0.00    +0.000 A 
ATOM     31 CL   UNL     1       1.694   3.807  17.400  0.00  0.00    +0.000 Cl
ENDBRANCH  23  25
ENDBRANCH  20  23
ENDBRANCH   5  20
TORSDOF 6
ENDMDL
MODEL 9
REMARK VINA RESULT:      -7.7      4.740      7.492
REMARK  Name = 
REMARK  6 active torsions:
REMARK  status: ('A' for Active; 'I' for Inactive)
REMARK    1  A    between atoms: C_2  and  C_21
REMARK    2  A    between atoms: N_3  and  C_4
REMARK    3  A    between atoms: C_8  and  S_9
REMARK    4  A    between atoms: S_9  and  N_12
REMARK    5  A    between atoms: N_12  and  C_13
REMARK    6  A    between atoms: C_23  and  C_24
REMARK                            x       y       z     vdW  Elec       q    Type
REMARK                         _______ _______ _______ _____ _____    ______ ____
ROOT
ATOM      1  C   UNL     1       3.475   5.836  18.497  0.00  0.00    +0.000 A 
ATOM      2  C   UNL     1       3.011   4.516  18.546  0.00  0.00    +0.000 A 
ATOM      3  C   UNL     1       3.793   3.454  18.087  0.00  0.00    +0.000 A 
ATOM      4  C   UNL     1       5.059   3.698  17.566  0.00  0.00    +0.000 A 
ATOM      5  C   UNL     1       5.522   5.016  17.488  0.00  0.00    +0.000 A 
ATOM      6  C   UNL     1       4.722   6.087  17.918  0.00  0.00    +0.000 A 
ENDROOT
BRANCH   1   9
ATOM      7  O   UNL     1       2.588   8.264  17.126  0.00  0.00    +0.000 OA
ATOM      8  C   UNL     1       2.358   8.050  18.314  0.00  0.00    +0.000 C 
ATOM      9  N   UNL     1       2.735   6.918  19.020  0.00  0.00    +0.000 N 
ATOM     10  H   UNL     1       2.337   6.848  19.954  0.00  0.00    +0.000 HD
BRANCH   8  11
ATOM     11  C   UNL     1       1.571   9.016  19.094  0.00  0.00    +0.000 A 
ATOM     12  C   UNL     1       1.172  10.304  18.641  0.00  0.00    +0.000 A 
ATOM     13  C   UNL     1       0.448  10.842  19.671  0.00  0.00    +0.000 A 
ATOM     14  N   UNL     1       0.494   9.921  20.678  0.00  0.00    +0.000 N 
ATOM     15  N   UNL     1       1.124   8.776  20.342  0.00  0.00    +0.000 NA
ATOM     16  H   UNL     1       0.110  10.007  21.613  0.00  0.00    +0.000 HD
BRANCH  13  17
ATOM     17  C   UNL     1      -0.287  12.167  19.720  0.00  0.00    +0.000 C 
ATOM     18  C   UNL     1      -1.778  12.159  19.448  0.00  0.00    +0.000 C 
ATOM     19  C   UNL     1      -0.856  12.778  18.458  0.00  0.00    +0.000 C 
ENDBRANCH  13  17
ENDBRANCH   8  11
ENDBRANCH   1   9
BRANCH   5  20
ATOM     20  S   UNL     1       7.097   5.354  16.736  0.00  0.00    +0.000 S 
ATOM     21  O   UNL     1       7.686   6.467  17.451  0.00  0.00    +0.000 OA
ATOM     22  O   UNL     1       7.805   4.098  16.591  0.00  0.00    +0.000 OA
BRANCH  20  23
ATOM     23  N   UNL     1       6.688   5.961  15.208  0.00  0.00    +0.000 N 
ATOM     24  H   UNL     1       7.320   6.740  15.005  0.00  0.00    +0.000 HD
BRANCH  23  25
ATOM     25  C   UNL     1       6.544   5.027  14.127  0.00  0.00    +0.000 A 
ATOM     26  C   UNL     1       5.426   4.192  14.096  0.00  0.00    +0.000 A 
ATOM     27  C   UNL     1       5.242   3.305  13.032  0.00  0.00    +0.000 A 
ATOM     28  C   UNL     1       6.177   3.243  11.997  0.00  0.00    +0.000 A 
ATOM     29  C   UNL     1       7.310   4.056  12.034  0.00  0.00    +0.000 A 
ATOM     30  C   UNL     1       7.500   4.939  13.100  0.00  0.00    +0.000 A 
ATOM     31 CL   UNL     1       8.902   5.948  13.092  0.00  0.00    +0.000 Cl
ENDBRANCH  23  25
ENDBRANCH  20  23
ENDBRANCH   5  20
TORSDOF 6
ENDMDL
