MODEL 1
REMARK VINA RESULT:      -6.2      0.000      0.000
REMARK  Name = 
REMARK  6 active torsions:
REMARK  status: ('A' for Active; 'I' for Inactive)
REMARK    1  A    between atoms: C_1  and  C_2
REMARK    2  A    between atoms: C_7  and  N_8
REMARK    3  A    between atoms: C_11  and  C_12
REMARK    4  A    between atoms: C_23  and  C_24
REMARK    5  A    between atoms: C_24  and  O_26
REMARK    6  A    between atoms: C_27  and  C_28
REMARK                            x       y       z     vdW  Elec       q    Type
REMARK                         _______ _______ _______ _____ _____    ______ ____
ROOT
ATOM      1  C   UNL     1       8.161  14.569  19.596  0.00  0.00    +0.000 C 
ATOM      2  O   UNL     1       7.678  14.027  18.608  0.00  0.00    +0.000 OA
ATOM      3  N   UNL     1       9.337  15.366  19.432  0.00  0.00    +0.000 N 
ATOM      4  C   UNL     1       9.950  15.299  18.087  0.00  0.00    +0.000 C 
ATOM      5  C   UNL     1      10.882  14.108  18.118  0.00  0.00    +0.000 A 
ATOM      6  C   UNL     1      10.710  13.010  17.277  0.00  0.00    +0.000 A 
ATOM      7  C   UNL     1      11.277  11.790  17.636  0.00  0.00    +0.000 A 
ATOM      8  C   UNL     1      12.006  11.671  18.824  0.00  0.00    +0.000 A 
ATOM      9  C   UNL     1      12.254  12.790  19.620  0.00  0.00    +0.000 A 
ATOM     10  C   UNL     1      11.727  14.021  19.245  0.00  0.00    +0.000 A 
ATOM     11  C   UNL     1      11.777  15.245  20.128  0.00  0.00    +0.000 C 
ATOM     12  C   UNL     1      10.326  15.520  20.544  0.00  0.00    +0.000 C 
ENDROOT
BRANCH   1  16
ATOM     13  N   UNL     1       7.012  13.672  22.960  0.00  0.00    +0.000 N 
ATOM     14  N   UNL     1       6.173  14.697  22.746  0.00  0.00    +0.000 NA
ATOM     15  C   UNL     1       6.464  15.139  21.537  0.00  0.00    +0.000 A 
ATOM     16  C   UNL     1       7.514  14.443  20.907  0.00  0.00    +0.000 A 
ATOM     17  C   UNL     1       7.848  13.471  21.863  0.00  0.00    +0.000 A 
ATOM     18  C   UNL     1       8.787  12.315  21.761  0.00  0.00    +0.000 C 
BRANCH  13  25
ATOM     19  C   UNL     1       8.715  14.494  25.274  0.00  0.00    +0.000 C 
ATOM     20  C   UNL     1       7.732  13.348  25.297  0.00  0.00    +0.000 A 
ATOM     21  C   UNL     1       7.591  12.634  26.496  0.00  0.00    +0.000 A 
ATOM     22  C   UNL     1       6.691  11.576  26.599  0.00  0.00    +0.000 A 
ATOM     23  C   UNL     1       5.933  11.187  25.499  0.00  0.00    +0.000 A 
ATOM     24  C   UNL     1       6.056  11.877  24.296  0.00  0.00    +0.000 A 
ATOM     25  C   UNL     1       6.926  12.973  24.191  0.00  0.00    +0.000 A 
ENDBRANCH  13  25
ENDBRANCH   1  16
BRANCH  12  26
ATOM     26  C   UNL     1      10.202  16.880  21.226  0.00  0.00    +0.000 C 
ATOM     27  O   UNL     1       9.324  17.691  20.970  0.00  0.00    +0.000 OA
BRANCH  26  28
ATOM     28  O   UNL     1      11.172  17.121  22.139  0.00  0.00    +0.000 OA
ATOM     29  H   UNL     1      11.764  16.344  22.233  0.00  0.00    +0.000 HD
ENDBRANCH  26  28
ENDBRANCH  12  26
TORSDOF 4
ENDMDL
MODEL 2
REMARK VINA RESULT:      -6.2      3.414      5.524
REMARK  Name = 
REMARK  6 active torsions:
REMARK  status: ('A' for Active; 'I' for Inactive)
REMARK    1  A    between atoms: C_1  and  C_2
REMARK    2  A    between atoms: C_7  and  N_8
REMARK    3  A    between atoms: C_11  and  C_12
REMARK    4  A    between atoms: C_23  and  C_24
REMARK    5  A    between atoms: C_24  and  O_26
REMARK    6  A    between atoms: C_27  and  C_28
REMARK                            x       y       z     vdW  Elec       q    Type
REMARK                         _______ _______ _______ _____ _____    ______ ____
ROOT
ATOM      1  C   UNL     1       8.444  15.525  18.818  0.00  0.00    +0.000 C 
ATOM      2  O   UNL     1       9.196  16.126  18.058  0.00  0.00    +0.000 OA
ATOM      3  N   UNL     1       8.965  15.057  20.065  0.00  0.00    +0.000 N 
ATOM      4  C   UNL     1      10.429  15.200  20.219  0.00  0.00    +0.000 C 
ATOM      5  C   UNL     1      11.032  13.952  19.612  0.00  0.00    +0.000 A 
ATOM      6  C   UNL     1      11.893  14.001  18.518  0.00  0.00    +0.000 A 
ATOM      7  C   UNL     1      12.051  12.863  17.732  0.00  0.00    +0.000 A 
ATOM      8  C   UNL     1      11.352  11.690  18.038  0.00  0.00    +0.000 A 
ATOM      9  C   UNL     1      10.561  11.613  19.184  0.00  0.00    +0.000 A 
ATOM     10  C   UNL     1      10.433  12.733  19.998  0.00  0.00    +0.000 A 
ATOM     11  C   UNL     1       9.457  12.812  21.149  0.00  0.00    +0.000 C 
ATOM     12  C   UNL     1       8.399  13.841  20.729  0.00  0.00    +0.000 C 
ENDROOT
BRANCH   1  16
ATOM     13  N   UNL     1       4.815  15.706  18.334  0.00  0.00    +0.000 N 
ATOM     14  N   UNL     1       5.026  14.538  17.708  0.00  0.00    +0.000 NA
ATOM     15  C   UNL     1       6.325  14.322  17.802  0.00  0.00    +0.000 A 
ATOM     16  C   UNL     1       7.029  15.339  18.475  0.00  0.00    +0.000 A 
ATOM     17  C   UNL     1       6.006  16.233  18.827  0.00  0.00    +0.000 A 
ATOM     18  C   UNL     1       6.058  17.452  19.688  0.00  0.00    +0.000 C 
BRANCH  13  25
ATOM     19  C   UNL     1       3.083  15.000  20.665  0.00  0.00    +0.000 C 
ATOM     20  C   UNL     1       2.652  15.871  19.509  0.00  0.00    +0.000 A 
ATOM     21  C   UNL     1       1.356  16.406  19.544  0.00  0.00    +0.000 A 
ATOM     22  C   UNL     1       0.894  17.233  18.523  0.00  0.00    +0.000 A 
ATOM     23  C   UNL     1       1.704  17.520  17.429  0.00  0.00    +0.000 A 
ATOM     24  C   UNL     1       2.994  16.999  17.368  0.00  0.00    +0.000 A 
ATOM     25  C   UNL     1       3.487  16.202  18.411  0.00  0.00    +0.000 A 
ENDBRANCH  13  25
ENDBRANCH   1  16
BRANCH  12  26
ATOM     26  C   UNL     1       7.499  14.208  21.906  0.00  0.00    +0.000 C 
ATOM     27  O   UNL     1       6.289  14.353  21.816  0.00  0.00    +0.000 OA
BRANCH  26  28
ATOM     28  O   UNL     1       8.168  14.377  23.070  0.00  0.00    +0.000 OA
ATOM     29  H   UNL     1       8.375  13.511  23.482  0.00  0.00    +0.000 HD
ENDBRANCH  26  28
ENDBRANCH  12  26
TORSDOF 4
ENDMDL
MODEL 3
REMARK VINA RESULT:      -6.1      8.229     11.186
REMARK  Name = 
REMARK  6 active torsions:
REMARK  status: ('A' for Active; 'I' for Inactive)
REMARK    1  A    between atoms: C_1  and  C_2
REMARK    2  A    between atoms: C_7  and  N_8
REMARK    3  A    between atoms: C_11  and  C_12
REMARK    4  A    between atoms: C_23  and  C_24
REMARK    5  A    between atoms: C_24  and  O_26
REMARK    6  A    between atoms: C_27  and  C_28
REMARK                            x       y       z     vdW  Elec       q    Type
REMARK                         _______ _______ _______ _____ _____    ______ ____
ROOT
ATOM      1  C   UNL     1       0.093  12.724  21.258  0.00  0.00    +0.000 C 
ATOM      2  O   UNL     1       1.031  12.248  21.889  0.00  0.00    +0.000 OA
ATOM      3  N   UNL     1      -1.049  11.901  21.007  0.00  0.00    +0.000 N 
ATOM      4  C   UNL     1      -0.888  10.482  21.394  0.00  0.00    +0.000 C 
ATOM      5  C   UNL     1      -0.257   9.798  20.201  0.00  0.00    +0.000 A 
ATOM      6  C   UNL     1       0.992   9.184  20.274  0.00  0.00    +0.000 A 
ATOM      7  C   UNL     1       1.715   8.983  19.101  0.00  0.00    +0.000 A 
ATOM      8  C   UNL     1       1.192   9.394  17.869  0.00  0.00    +0.000 A 
ATOM      9  C   UNL     1      -0.095   9.926  17.786  0.00  0.00    +0.000 A 
ATOM     10  C   UNL     1      -0.840  10.089  18.949  0.00  0.00    +0.000 A 
ATOM     11  C   UNL     1      -2.159  10.825  18.990  0.00  0.00    +0.000 C 
ATOM     12  C   UNL     1      -1.897  12.107  19.792  0.00  0.00    +0.000 C 
ENDROOT
BRANCH   1  16
ATOM     13  N   UNL     1       0.311  15.924  19.483  0.00  0.00    +0.000 N 
ATOM     14  N   UNL     1       0.089  16.411  20.713  0.00  0.00    +0.000 NA
ATOM     15  C   UNL     1      -0.011  15.351  21.494  0.00  0.00    +0.000 A 
ATOM     16  C   UNL     1       0.123  14.124  20.818  0.00  0.00    +0.000 A 
ATOM     17  C   UNL     1       0.349  14.531  19.494  0.00  0.00    +0.000 A 
ATOM     18  C   UNL     1       0.718  13.721  18.295  0.00  0.00    +0.000 C 
BRANCH  13  25
ATOM     19  C   UNL     1       3.039  16.474  18.395  0.00  0.00    +0.000 C 
ATOM     20  C   UNL     1       1.770  17.115  17.889  0.00  0.00    +0.000 A 
ATOM     21  C   UNL     1       1.875  18.014  16.818  0.00  0.00    +0.000 A 
ATOM     22  C   UNL     1       0.745  18.630  16.285  0.00  0.00    +0.000 A 
ATOM     23  C   UNL     1      -0.512  18.388  16.830  0.00  0.00    +0.000 A 
ATOM     24  C   UNL     1      -0.644  17.502  17.896  0.00  0.00    +0.000 A 
ATOM     25  C   UNL     1       0.480  16.840  18.412  0.00  0.00    +0.000 A 
ENDBRANCH  13  25
ENDBRANCH   1  16
BRANCH  12  26
ATOM     26  C   UNL     1      -3.206  12.815  20.130  0.00  0.00    +0.000 C 
ATOM     27  O   UNL     1      -3.371  13.497  21.131  0.00  0.00    +0.000 OA
BRANCH  26  28
ATOM     28  O   UNL     1      -4.188  12.607  19.221  0.00  0.00    +0.000 OA
ATOM     29  H   UNL     1      -4.235  11.661  18.970  0.00  0.00    +0.000 HD
ENDBRANCH  26  28
ENDBRANCH  12  26
TORSDOF 4
ENDMDL
MODEL 4
REMARK VINA RESULT:      -6.1      3.163      4.892
REMARK  Name = 
REMARK  6 active torsions:
REMARK  status: ('A' for Active; 'I' for Inactive)
REMARK    1  A    between atoms: C_1  and  C_2
REMARK    2  A    between atoms: C_7  and  N_8
REMARK    3  A    between atoms: C_11  and  C_12
REMARK    4  A    between atoms: C_23  and  C_24
REMARK    5  A    between atoms: C_24  and  O_26
REMARK    6  A    between atoms: C_27  and  C_28
REMARK                            x       y       z     vdW  Elec       q    Type
REMARK                         _______ _______ _______ _____ _____    ______ ____
ROOT
ATOM      1  C   UNL     1       9.227  15.888  18.604  0.00  0.00    +0.000 C 
ATOM      2  O   UNL     1       9.675  15.819  17.464  0.00  0.00    +0.000 OA
ATOM      3  N   UNL     1      10.064  15.487  19.692  0.00  0.00    +0.000 N 
ATOM      4  C   UNL     1      11.340  14.854  19.293  0.00  0.00    +0.000 C 
ATOM      5  C   UNL     1      11.034  13.383  19.116  0.00  0.00    +0.000 A 
ATOM      6  C   UNL     1      11.192  12.735  17.893  0.00  0.00    +0.000 A 
ATOM      7  C   UNL     1      10.492  11.553  17.660  0.00  0.00    +0.000 A 
ATOM      8  C   UNL     1       9.644  11.029  18.641  0.00  0.00    +0.000 A 
ATOM      9  C   UNL     1       9.555  11.629  19.898  0.00  0.00    +0.000 A 
ATOM     10  C   UNL     1      10.285  12.785  20.152  0.00  0.00    +0.000 A 
ATOM     11  C   UNL     1      10.115  13.611  21.405  0.00  0.00    +0.000 C 
ATOM     12  C   UNL     1       9.477  14.931  20.952  0.00  0.00    +0.000 C 
ENDROOT
BRANCH   1  16
ATOM     13  N   UNL     1       5.637  16.553  18.935  0.00  0.00    +0.000 N 
ATOM     14  N   UNL     1       6.085  17.735  19.385  0.00  0.00    +0.000 NA
ATOM     15  C   UNL     1       7.401  17.655  19.322  0.00  0.00    +0.000 A 
ATOM     16  C   UNL     1       7.880  16.419  18.846  0.00  0.00    +0.000 A 
ATOM     17  C   UNL     1       6.694  15.716  18.585  0.00  0.00    +0.000 A 
ATOM     18  C   UNL     1       6.495  14.393  17.922  0.00  0.00    +0.000 C 
BRANCH  13  25
ATOM     19  C   UNL     1       4.247  15.033  21.100  0.00  0.00    +0.000 C 
ATOM     20  C   UNL     1       3.563  15.617  19.887  0.00  0.00    +0.000 A 
ATOM     21  C   UNL     1       2.174  15.455  19.781  0.00  0.00    +0.000 A 
ATOM     22  C   UNL     1       1.470  15.982  18.701  0.00  0.00    +0.000 A 
ATOM     23  C   UNL     1       2.142  16.656  17.685  0.00  0.00    +0.000 A 
ATOM     24  C   UNL     1       3.521  16.828  17.764  0.00  0.00    +0.000 A 
ATOM     25  C   UNL     1       4.235  16.341  18.869  0.00  0.00    +0.000 A 
ENDBRANCH  13  25
ENDBRANCH   1  16
BRANCH  12  26
ATOM     26  C   UNL     1       9.490  15.959  22.080  0.00  0.00    +0.000 C 
ATOM     27  O   UNL     1       8.488  16.514  22.505  0.00  0.00    +0.000 OA
BRANCH  26  28
ATOM     28  O   UNL     1      10.727  16.217  22.567  0.00  0.00    +0.000 OA
ATOM     29  H   UNL     1      11.354  15.504  22.321  0.00  0.00    +0.000 HD
ENDBRANCH  26  28
ENDBRANCH  12  26
TORSDOF 4
ENDMDL
MODEL 5
REMARK VINA RESULT:      -6.0     11.787     14.533
REMARK  Name = 
REMARK  6 active torsions:
REMARK  status: ('A' for Active; 'I' for Inactive)
REMARK    1  A    between atoms: C_1  and  C_2
REMARK    2  A    between atoms: C_7  and  N_8
REMARK    3  A    between atoms: C_11  and  C_12
REMARK    4  A    between atoms: C_23  and  C_24
REMARK    5  A    between atoms: C_24  and  O_26
REMARK    6  A    between atoms: C_27  and  C_28
REMARK                            x       y       z     vdW  Elec       q    Type
REMARK                         _______ _______ _______ _____ _____    ______ ____
ROOT
ATOM      1  C   UNL     1      -5.033  12.069  18.054  0.00  0.00    +0.000 C 
ATOM      2  O   UNL     1      -5.216  11.967  16.846  0.00  0.00    +0.000 OA
ATOM      3  N   UNL     1      -6.163  12.303  18.899  0.00  0.00    +0.000 N 
ATOM      4  C   UNL     1      -7.427  12.578  18.182  0.00  0.00    +0.000 C 
ATOM      5  C   UNL     1      -7.439  14.068  17.920  0.00  0.00    +0.000 A 
ATOM      6  C   UNL     1      -7.464  14.594  16.630  0.00  0.00    +0.000 A 
ATOM      7  C   UNL     1      -7.023  15.899  16.425  0.00  0.00    +0.000 A 
ATOM      8  C   UNL     1      -6.562  16.667  17.500  0.00  0.00    +0.000 A 
ATOM      9  C   UNL     1      -6.622  16.172  18.804  0.00  0.00    +0.000 A 
ATOM     10  C   UNL     1      -7.102  14.885  19.021  0.00  0.00    +0.000 A 
ATOM     11  C   UNL     1      -7.032  14.191  20.361  0.00  0.00    +0.000 C 
ATOM     12  C   UNL     1      -6.020  13.050  20.188  0.00  0.00    +0.000 C 
ENDROOT
BRANCH   1  16
ATOM     13  N   UNL     1      -1.670  11.020  19.070  0.00  0.00    +0.000 N 
ATOM     14  N   UNL     1      -1.741  12.143  19.800  0.00  0.00    +0.000 NA
ATOM     15  C   UNL     1      -2.931  12.653  19.542  0.00  0.00    +0.000 A 
ATOM     16  C   UNL     1      -3.690  11.903  18.622  0.00  0.00    +0.000 A 
ATOM     17  C   UNL     1      -2.839  10.824  18.337  0.00  0.00    +0.000 A 
ATOM     18  C   UNL     1      -3.100   9.586  17.544  0.00  0.00    +0.000 C 
BRANCH  13  25
ATOM     19  C   UNL     1      -0.746   9.974  21.712  0.00  0.00    +0.000 C 
ATOM     20  C   UNL     1      -0.039   9.734  20.400  0.00  0.00    +0.000 A 
ATOM     21  C   UNL     1       1.120   8.944  20.419  0.00  0.00    +0.000 A 
ATOM     22  C   UNL     1       1.816   8.663  19.246  0.00  0.00    +0.000 A 
ATOM     23  C   UNL     1       1.388   9.189  18.031  0.00  0.00    +0.000 A 
ATOM     24  C   UNL     1       0.242   9.979  17.985  0.00  0.00    +0.000 A 
ATOM     25  C   UNL     1      -0.493  10.233  19.152  0.00  0.00    +0.000 A 
ENDBRANCH  13  25
ENDBRANCH   1  16
BRANCH  12  26
ATOM     26  C   UNL     1      -6.048  12.110  21.390  0.00  0.00    +0.000 C 
ATOM     27  O   UNL     1      -5.465  12.333  22.440  0.00  0.00    +0.000 OA
BRANCH  26  28
ATOM     28  O   UNL     1      -6.773  10.985  21.184  0.00  0.00    +0.000 OA
ATOM     29  H   UNL     1      -7.319  10.773  21.970  0.00  0.00    +0.000 HD
ENDBRANCH  26  28
ENDBRANCH  12  26
TORSDOF 4
ENDMDL
MODEL 6
REMARK VINA RESULT:      -6.0      3.911      6.276
REMARK  Name = 
REMARK  6 active torsions:
REMARK  status: ('A' for Active; 'I' for Inactive)
REMARK    1  A    between atoms: C_1  and  C_2
REMARK    2  A    between atoms: C_7  and  N_8
REMARK    3  A    between atoms: C_11  and  C_12
REMARK    4  A    between atoms: C_23  and  C_24
REMARK    5  A    between atoms: C_24  and  O_26
REMARK    6  A    between atoms: C_27  and  C_28
REMARK                            x       y       z     vdW  Elec       q    Type
REMARK                         _______ _______ _______ _____ _____    ______ ____
ROOT
ATOM      1  C   UNL     1       7.632  15.672  19.774  0.00  0.00    +0.000 C 
ATOM      2  O   UNL     1       8.606  16.177  19.226  0.00  0.00    +0.000 OA
ATOM      3  N   UNL     1       7.754  15.255  21.136  0.00  0.00    +0.000 N 
ATOM      4  C   UNL     1       9.127  15.321  21.684  0.00  0.00    +0.000 C 
ATOM      5  C   UNL     1       9.778  14.003  21.326  0.00  0.00    +0.000 A 
ATOM      6  C   UNL     1      10.907  13.931  20.513  0.00  0.00    +0.000 A 
ATOM      7  C   UNL     1      11.190  12.737  19.854  0.00  0.00    +0.000 A 
ATOM      8  C   UNL     1      10.349  11.629  20.007  0.00  0.00    +0.000 A 
ATOM      9  C   UNL     1       9.270  11.673  20.891  0.00  0.00    +0.000 A 
ATOM     10  C   UNL     1       9.008  12.850  21.586  0.00  0.00    +0.000 A 
ATOM     11  C   UNL     1       7.763  13.060  22.415  0.00  0.00    +0.000 C 
ATOM     12  C   UNL     1       6.940  14.120  21.672  0.00  0.00    +0.000 C 
ENDROOT
BRANCH   1  16
ATOM     13  N   UNL     1       4.252  15.973  18.385  0.00  0.00    +0.000 N 
ATOM     14  N   UNL     1       4.622  14.862  17.730  0.00  0.00    +0.000 NA
ATOM     15  C   UNL     1       5.852  14.611  18.137  0.00  0.00    +0.000 A 
ATOM     16  C   UNL     1       6.355  15.548  19.061  0.00  0.00    +0.000 A 
ATOM     17  C   UNL     1       5.273  16.428  19.217  0.00  0.00    +0.000 A 
ATOM     18  C   UNL     1       5.096  17.563  20.171  0.00  0.00    +0.000 C 
BRANCH  13  25
ATOM     19  C   UNL     1       1.985  15.132  20.141  0.00  0.00    +0.000 C 
ATOM     20  C   UNL     1       1.862  16.094  18.984  0.00  0.00    +0.000 A 
ATOM     21  C   UNL     1       0.600  16.650  18.730  0.00  0.00    +0.000 A 
ATOM     22  C   UNL     1       0.412  17.559  17.692  0.00  0.00    +0.000 A 
ATOM     23  C   UNL     1       1.474  17.911  16.864  0.00  0.00    +0.000 A 
ATOM     24  C   UNL     1       2.737  17.370  17.092  0.00  0.00    +0.000 A 
ATOM     25  C   UNL     1       2.949  16.488  18.162  0.00  0.00    +0.000 A 
ENDBRANCH  13  25
ENDBRANCH   1  16
BRANCH  12  26
ATOM     26  C   UNL     1       5.781  14.615  22.534  0.00  0.00    +0.000 C 
ATOM     27  O   UNL     1       5.746  15.719  23.057  0.00  0.00    +0.000 OA
BRANCH  26  28
ATOM     28  O   UNL     1       4.789  13.706  22.686  0.00  0.00    +0.000 OA
ATOM     29  H   UNL     1       5.129  12.885  23.102  0.00  0.00    +0.000 HD
ENDBRANCH  26  28
ENDBRANCH  12  26
TORSDOF 4
ENDMDL
MODEL 7
REMARK VINA RESULT:      -6.0      9.299     11.857
REMARK  Name = 
REMARK  6 active torsions:
REMARK  status: ('A' for Active; 'I' for Inactive)
REMARK    1  A    between atoms: C_1  and  C_2
REMARK    2  A    between atoms: C_7  and  N_8
REMARK    3  A    between atoms: C_11  and  C_12
REMARK    4  A    between atoms: C_23  and  C_24
REMARK    5  A    between atoms: C_24  and  O_26
REMARK    6  A    between atoms: C_27  and  C_28
REMARK                            x       y       z     vdW  Elec       q    Type
REMARK                         _______ _______ _______ _____ _____    ______ ____
ROOT
ATOM      1  C   UNL     1      -0.199  13.596  22.035  0.00  0.00    +0.000 C 
ATOM      2  O   UNL     1       0.468  14.280  22.804  0.00  0.00    +0.000 OA
ATOM      3  N   UNL     1       0.360  13.255  20.764  0.00  0.00    +0.000 N 
ATOM      4  C   UNL     1       1.637  13.931  20.446  0.00  0.00    +0.000 C 
ATOM      5  C   UNL     1       1.258  15.252  19.814  0.00  0.00    +0.000 A 
ATOM      6  C   UNL     1       1.614  16.474  20.381  0.00  0.00    +0.000 A 
ATOM      7  C   UNL     1       0.886  17.613  20.044  0.00  0.00    +0.000 A 
ATOM      8  C   UNL     1      -0.187  17.526  19.149  0.00  0.00    +0.000 A 
ATOM      9  C   UNL     1      -0.486  16.321  18.512  0.00  0.00    +0.000 A 
ATOM     10  C   UNL     1       0.265  15.190  18.812  0.00  0.00    +0.000 A 
ATOM     11  C   UNL     1      -0.094  13.806  18.325  0.00  0.00    +0.000 C 
ATOM     12  C   UNL     1      -0.517  13.020  19.574  0.00  0.00    +0.000 C 
ENDROOT
BRANCH   1  16
ATOM     13  N   UNL     1      -3.749  12.976  22.709  0.00  0.00    +0.000 N 
ATOM     14  N   UNL     1      -3.255  11.883  23.309  0.00  0.00    +0.000 NA
ATOM     15  C   UNL     1      -1.946  11.963  23.154  0.00  0.00    +0.000 A 
ATOM     16  C   UNL     1      -1.520  13.096  22.435  0.00  0.00    +0.000 A 
ATOM     17  C   UNL     1      -2.729  13.755  22.165  0.00  0.00    +0.000 A 
ATOM     18  C   UNL     1      -2.970  15.098  21.560  0.00  0.00    +0.000 C 
BRANCH  13  25
ATOM     19  C   UNL     1      -5.394  12.253  20.321  0.00  0.00    +0.000 C 
ATOM     20  C   UNL     1      -5.946  12.847  21.595  0.00  0.00    +0.000 A 
ATOM     21  C   UNL     1      -7.332  13.050  21.672  0.00  0.00    +0.000 A 
ATOM     22  C   UNL     1      -7.917  13.575  22.822  0.00  0.00    +0.000 A 
ATOM     23  C   UNL     1      -7.128  13.939  23.910  0.00  0.00    +0.000 A 
ATOM     24  C   UNL     1      -5.750  13.750  23.858  0.00  0.00    +0.000 A 
ATOM     25  C   UNL     1      -5.153  13.180  22.723  0.00  0.00    +0.000 A 
ENDBRANCH  13  25
ENDBRANCH   1  16
BRANCH  12  26
ATOM     26  C   UNL     1      -0.656  11.533  19.261  0.00  0.00    +0.000 C 
ATOM     27  O   UNL     1      -0.636  10.655  20.110  0.00  0.00    +0.000 OA
BRANCH  26  28
ATOM     28  O   UNL     1      -0.791  11.265  17.940  0.00  0.00    +0.000 OA
ATOM     29  H   UNL     1      -0.955  12.088  17.433  0.00  0.00    +0.000 HD
ENDBRANCH  26  28
ENDBRANCH  12  26
TORSDOF 4
ENDMDL
MODEL 8
REMARK VINA RESULT:      -5.9      3.434      5.423
REMARK  Name = 
REMARK  6 active torsions:
REMARK  status: ('A' for Active; 'I' for Inactive)
REMARK    1  A    between atoms: C_1  and  C_2
REMARK    2  A    between atoms: C_7  and  N_8
REMARK    3  A    between atoms: C_11  and  C_12
REMARK    4  A    between atoms: C_23  and  C_24
REMARK    5  A    between atoms: C_24  and  O_26
REMARK    6  A    between atoms: C_27  and  C_28
REMARK                            x       y       z     vdW  Elec       q    Type
REMARK                         _______ _______ _______ _____ _____    ______ ____
ROOT
ATOM      1  C   UNL     1       8.188  15.693  18.413  0.00  0.00    +0.000 C 
ATOM      2  O   UNL     1       8.758  16.213  17.460  0.00  0.00    +0.000 OA
ATOM      3  N   UNL     1       8.947  15.410  19.592  0.00  0.00    +0.000 N 
ATOM      4  C   UNL     1      10.405  15.621  19.456  0.00  0.00    +0.000 C 
ATOM      5  C   UNL     1      10.960  14.324  18.908  0.00  0.00    +0.000 A 
ATOM      6  C   UNL     1      11.609  14.258  17.677  0.00  0.00    +0.000 A 
ATOM      7  C   UNL     1      11.689  13.033  17.021  0.00  0.00    +0.000 A 
ATOM      8  C   UNL     1      11.124  11.887  17.592  0.00  0.00    +0.000 A 
ATOM      9  C   UNL     1      10.553  11.935  18.864  0.00  0.00    +0.000 A 
ATOM     10  C   UNL     1      10.509  13.148  19.544  0.00  0.00    +0.000 A 
ATOM     11  C   UNL     1       9.750  13.345  20.835  0.00  0.00    +0.000 C 
ATOM     12  C   UNL     1       8.577  14.274  20.493  0.00  0.00    +0.000 C 
ENDROOT
BRANCH   1  16
ATOM     13  N   UNL     1       4.532  15.638  18.677  0.00  0.00    +0.000 N 
ATOM     14  N   UNL     1       4.684  14.490  18.002  0.00  0.00    +0.000 NA
ATOM     15  C   UNL     1       5.986  14.359  17.827  0.00  0.00    +0.000 A 
ATOM     16  C   UNL     1       6.747  15.417  18.361  0.00  0.00    +0.000 A 
ATOM     17  C   UNL     1       5.763  16.240  18.928  0.00  0.00    +0.000 A 
ATOM     18  C   UNL     1       5.912  17.456  19.782  0.00  0.00    +0.000 C 
BRANCH  13  25
ATOM     19  C   UNL     1       2.845  17.132  16.714  0.00  0.00    +0.000 C 
ATOM     20  C   UNL     1       2.409  16.761  18.111  0.00  0.00    +0.000 A 
ATOM     21  C   UNL     1       1.113  17.122  18.507  0.00  0.00    +0.000 A 
ATOM     22  C   UNL     1       0.633  16.798  19.773  0.00  0.00    +0.000 A 
ATOM     23  C   UNL     1       1.448  16.133  20.685  0.00  0.00    +0.000 A 
ATOM     24  C   UNL     1       2.740  15.766  20.319  0.00  0.00    +0.000 A 
ATOM     25  C   UNL     1       3.219  16.047  19.031  0.00  0.00    +0.000 A 
ENDBRANCH  13  25
ENDBRANCH   1  16
BRANCH  12  26
ATOM     26  C   UNL     1       7.881  14.762  21.760  0.00  0.00    +0.000 C 
ATOM     27  O   UNL     1       8.380  15.550  22.550  0.00  0.00    +0.000 OA
BRANCH  26  28
ATOM     28  O   UNL     1       6.650  14.228  21.945  0.00  0.00    +0.000 OA
ATOM     29  H   UNL     1       6.027  14.540  21.255  0.00  0.00    +0.000 HD
ENDBRANCH  26  28
ENDBRANCH  12  26
TORSDOF 4
ENDMDL
MODEL 9
REMARK VINA RESULT:      -5.9      2.943      3.755
REMARK  Name = 
REMARK  6 active torsions:
REMARK  status: ('A' for Active; 'I' for Inactive)
REMARK    1  A    between atoms: C_1  and  C_2
REMARK    2  A    between atoms: C_7  and  N_8
REMARK    3  A    between atoms: C_11  and  C_12
REMARK    4  A    between atoms: C_23  and  C_24
REMARK    5  A    between atoms: C_24  and  O_26
REMARK    6  A    between atoms: C_27  and  C_28
REMARK                            x       y       z     vdW  Elec       q    Type
REMARK                         _______ _______ _______ _____ _____    ______ ____
ROOT
ATOM      1  C   UNL     1       8.347  14.748  18.096  0.00  0.00    +0.000 C 
ATOM      2  O   UNL     1       7.656  13.978  17.439  0.00  0.00    +0.000 OA
ATOM      3  N   UNL     1       9.769  14.610  18.037  0.00  0.00    +0.000 N 
ATOM      4  C   UNL     1      10.246  13.413  17.311  0.00  0.00    +0.000 C 
ATOM      5  C   UNL     1      10.280  12.297  18.332  0.00  0.00    +0.000 A 
ATOM      6  C   UNL     1       9.503  11.148  18.200  0.00  0.00    +0.000 A 
ATOM      7  C   UNL     1       9.220  10.391  19.334  0.00  0.00    +0.000 A 
ATOM      8  C   UNL     1       9.708  10.782  20.585  0.00  0.00    +0.000 A 
ATOM      9  C   UNL     1      10.561  11.880  20.704  0.00  0.00    +0.000 A 
ATOM     10  C   UNL     1      10.883  12.616  19.568  0.00  0.00    +0.000 A 
ATOM     11  C   UNL     1      11.638  13.923  19.616  0.00  0.00    +0.000 C 
ATOM     12  C   UNL     1      10.631  15.002  19.196  0.00  0.00    +0.000 C 
ENDROOT
BRANCH   1  16
ATOM     13  N   UNL     1       6.806  16.917  20.618  0.00  0.00    +0.000 N 
ATOM     14  N   UNL     1       6.780  17.781  19.592  0.00  0.00    +0.000 NA
ATOM     15  C   UNL     1       7.312  17.129  18.575  0.00  0.00    +0.000 A 
ATOM     16  C   UNL     1       7.727  15.820  18.885  0.00  0.00    +0.000 A 
ATOM     17  C   UNL     1       7.368  15.701  20.236  0.00  0.00    +0.000 A 
ATOM     18  C   UNL     1       7.399  14.506  21.131  0.00  0.00    +0.000 C 
BRANCH  13  25
ATOM     19  C   UNL     1       8.609  18.077  22.699  0.00  0.00    +0.000 C 
ATOM     20  C   UNL     1       7.122  17.881  22.867  0.00  0.00    +0.000 A 
ATOM     21  C   UNL     1       6.542  18.295  24.075  0.00  0.00    +0.000 A 
ATOM     22  C   UNL     1       5.173  18.164  24.295  0.00  0.00    +0.000 A 
ATOM     23  C   UNL     1       4.356  17.589  23.327  0.00  0.00    +0.000 A 
ATOM     24  C   UNL     1       4.907  17.167  22.120  0.00  0.00    +0.000 A 
ATOM     25  C   UNL     1       6.277  17.334  21.867  0.00  0.00    +0.000 A 
ENDBRANCH  13  25
ENDBRANCH   1  16
BRANCH  12  26
ATOM     26  C   UNL     1      11.331  16.336  18.952  0.00  0.00    +0.000 C 
ATOM     27  O   UNL     1      12.280  16.477  18.194  0.00  0.00    +0.000 OA
BRANCH  26  28
ATOM     28  O   UNL     1      10.814  17.362  19.669  0.00  0.00    +0.000 OA
ATOM     29  H   UNL     1      10.686  17.102  20.606  0.00  0.00    +0.000 HD
ENDBRANCH  26  28
ENDBRANCH  12  26
TORSDOF 4
ENDMDL
