MODEL 1
REMARK VINA RESULT:      -9.2      0.000      0.000
REMARK  Name = 
REMARK  3 active torsions:
REMARK  status: ('A' for Active; 'I' for Inactive)
REMARK    1  A    between atoms: C_4  and  O_5
REMARK    2  A    between atoms: O_5  and  C_6
REMARK    3  A    between atoms: C_8  and  C_9
REMARK                            x       y       z     vdW  Elec       q    Type
REMARK                         _______ _______ _______ _____ _____    ______ ____
ROOT
ATOM      1  C   UNL     1       3.159   5.767  18.533  0.00  0.00    +0.000 A 
ATOM      2  N   UNL     1       4.106   5.895  17.574  0.00  0.00    +0.000 NA
ATOM      3  C   UNL     1       4.326   4.782  16.838  0.00  0.00    +0.000 A 
ATOM      4  N   UNL     1       3.671   3.616  16.995  0.00  0.00    +0.000 NA
ATOM      5  C   UNL     1       2.758   3.518  17.955  0.00  0.00    +0.000 A 
ATOM      6  C   UNL     1       2.104   2.304  18.129  0.00  0.00    +0.000 A 
ATOM      7  C   UNL     1       1.149   2.122  19.132  0.00  0.00    +0.000 A 
ATOM      8  C   UNL     1       0.843   3.170  19.987  0.00  0.00    +0.000 A 
ATOM      9  C   UNL     1       1.491   4.393  19.827  0.00  0.00    +0.000 A 
ATOM     10  C   UNL     1       2.450   4.579  18.796  0.00  0.00    +0.000 A 
ENDROOT
BRANCH   3  11
ATOM     11  C   UNL     1       5.382   4.756  15.803  0.00  0.00    +0.000 A 
ATOM     12  C   UNL     1       5.286   4.067  14.593  0.00  0.00    +0.000 A 
ATOM     13  C   UNL     1       6.334   4.114  13.664  0.00  0.00    +0.000 A 
ATOM     14  C   UNL     1       7.463   4.857  13.965  0.00  0.00    +0.000 A 
ATOM     15  N   UNL     1       7.611   5.538  15.114  0.00  0.00    +0.000 NA
ATOM     16  C   UNL     1       6.576   5.469  15.993  0.00  0.00    +0.000 A 
ENDBRANCH   3  11
BRANCH   1  17
ATOM     17  O   UNL     1       2.902   6.763  19.480  0.00  0.00    +0.000 OA
BRANCH  17  21
ATOM     18  C   UNL     1       0.501  10.165  19.489  0.00  0.00    +0.000 A 
ATOM     19  C   UNL     1       1.117   9.799  18.289  0.00  0.00    +0.000 A 
ATOM     20  C   UNL     1       1.904   8.641  18.206  0.00  0.00    +0.000 A 
ATOM     21  C   UNL     1       2.079   7.844  19.329  0.00  0.00    +0.000 A 
ATOM     22  C   UNL     1       1.440   8.214  20.528  0.00  0.00    +0.000 A 
ATOM     23  C   UNL     1       0.655   9.365  20.612  0.00  0.00    +0.000 A 
ENDBRANCH  17  21
ENDBRANCH   1  17
TORSDOF 3
ENDMDL
MODEL 2
REMARK VINA RESULT:      -9.1      0.248      1.020
REMARK  Name = 
REMARK  3 active torsions:
REMARK  status: ('A' for Active; 'I' for Inactive)
REMARK    1  A    between atoms: C_4  and  O_5
REMARK    2  A    between atoms: O_5  and  C_6
REMARK    3  A    between atoms: C_8  and  C_9
REMARK                            x       y       z     vdW  Elec       q    Type
REMARK                         _______ _______ _______ _____ _____    ______ ____
ROOT
ATOM      1  C   UNL     1       3.144   5.733  18.692  0.00  0.00    +0.000 A 
ATOM      2  N   UNL     1       4.096   5.873  17.740  0.00  0.00    +0.000 NA
ATOM      3  C   UNL     1       4.275   4.791  16.949  0.00  0.00    +0.000 A 
ATOM      4  N   UNL     1       3.576   3.644  17.048  0.00  0.00    +0.000 NA
ATOM      5  C   UNL     1       2.657   3.533  18.001  0.00  0.00    +0.000 A 
ATOM      6  C   UNL     1       1.958   2.338  18.115  0.00  0.00    +0.000 A 
ATOM      7  C   UNL     1       0.994   2.143  19.107  0.00  0.00    +0.000 A 
ATOM      8  C   UNL     1       0.727   3.158  20.014  0.00  0.00    +0.000 A 
ATOM      9  C   UNL     1       1.422   4.362  19.915  0.00  0.00    +0.000 A 
ATOM     10  C   UNL     1       2.389   4.562  18.895  0.00  0.00    +0.000 A 
ENDROOT
BRANCH   3  11
ATOM     11  C   UNL     1       5.331   4.776  15.914  0.00  0.00    +0.000 A 
ATOM     12  C   UNL     1       5.250   4.073  14.711  0.00  0.00    +0.000 A 
ATOM     13  C   UNL     1       6.296   4.132  13.782  0.00  0.00    +0.000 A 
ATOM     14  C   UNL     1       7.409   4.901  14.075  0.00  0.00    +0.000 A 
ATOM     15  N   UNL     1       7.543   5.597  15.216  0.00  0.00    +0.000 NA
ATOM     16  C   UNL     1       6.510   5.516  16.097  0.00  0.00    +0.000 A 
ENDBRANCH   3  11
BRANCH   1  17
ATOM     17  O   UNL     1       2.923   6.690  19.687  0.00  0.00    +0.000 OA
BRANCH  17  21
ATOM     18  C   UNL     1       0.440   9.947  18.936  0.00  0.00    +0.000 A 
ATOM     19  C   UNL     1       0.513   9.465  20.246  0.00  0.00    +0.000 A 
ATOM     20  C   UNL     1       1.362   8.398  20.576  0.00  0.00    +0.000 A 
ATOM     21  C   UNL     1       2.142   7.807  19.591  0.00  0.00    +0.000 A 
ATOM     22  C   UNL     1       2.073   8.312  18.279  0.00  0.00    +0.000 A 
ATOM     23  C   UNL     1       1.230   9.375  17.949  0.00  0.00    +0.000 A 
ENDBRANCH  17  21
ENDBRANCH   1  17
TORSDOF 3
ENDMDL
MODEL 3
REMARK VINA RESULT:      -8.1      0.712      1.060
REMARK  Name = 
REMARK  3 active torsions:
REMARK  status: ('A' for Active; 'I' for Inactive)
REMARK    1  A    between atoms: C_4  and  O_5
REMARK    2  A    between atoms: O_5  and  C_6
REMARK    3  A    between atoms: C_8  and  C_9
REMARK                            x       y       z     vdW  Elec       q    Type
REMARK                         _______ _______ _______ _____ _____    ______ ____
ROOT
ATOM      1  C   UNL     1       3.026   5.851  18.817  0.00  0.00    +0.000 A 
ATOM      2  N   UNL     1       3.942   5.962  17.826  0.00  0.00    +0.000 NA
ATOM      3  C   UNL     1       4.210   4.811  17.167  0.00  0.00    +0.000 A 
ATOM      4  N   UNL     1       3.627   3.625  17.425  0.00  0.00    +0.000 NA
ATOM      5  C   UNL     1       2.742   3.547  18.413  0.00  0.00    +0.000 A 
ATOM      6  C   UNL     1       2.163   2.314  18.691  0.00  0.00    +0.000 A 
ATOM      7  C   UNL     1       1.243   2.154  19.729  0.00  0.00    +0.000 A 
ATOM      8  C   UNL     1       0.896   3.243  20.514  0.00  0.00    +0.000 A 
ATOM      9  C   UNL     1       1.469   4.486  20.249  0.00  0.00    +0.000 A 
ATOM     10  C   UNL     1       2.393   4.649  19.183  0.00  0.00    +0.000 A 
ENDROOT
BRANCH   3  11
ATOM     11  C   UNL     1       5.242   4.768  16.109  0.00  0.00    +0.000 A 
ATOM     12  C   UNL     1       6.536   5.272  16.245  0.00  0.00    +0.000 A 
ATOM     13  C   UNL     1       7.453   5.171  15.190  0.00  0.00    +0.000 A 
ATOM     14  C   UNL     1       7.054   4.561  14.013  0.00  0.00    +0.000 A 
ATOM     15  N   UNL     1       5.822   4.060  13.824  0.00  0.00    +0.000 NA
ATOM     16  C   UNL     1       4.957   4.176  14.868  0.00  0.00    +0.000 A 
ENDBRANCH   3  11
BRANCH   1  17
ATOM     17  O   UNL     1       2.733   6.899  19.695  0.00  0.00    +0.000 OA
BRANCH  17  21
ATOM     18  C   UNL     1       0.389  10.328  19.398  0.00  0.00    +0.000 A 
ATOM     19  C   UNL     1       1.018   9.859  18.241  0.00  0.00    +0.000 A 
ATOM     20  C   UNL     1       1.786   8.686  18.262  0.00  0.00    +0.000 A 
ATOM     21  C   UNL     1       1.931   7.977  19.447  0.00  0.00    +0.000 A 
ATOM     22  C   UNL     1       1.279   8.449  20.602  0.00  0.00    +0.000 A 
ATOM     23  C   UNL     1       0.512   9.615  20.582  0.00  0.00    +0.000 A 
ENDBRANCH  17  21
ENDBRANCH   1  17
TORSDOF 3
ENDMDL
MODEL 4
REMARK VINA RESULT:      -8.1      2.216      6.552
REMARK  Name = 
REMARK  3 active torsions:
REMARK  status: ('A' for Active; 'I' for Inactive)
REMARK    1  A    between atoms: C_4  and  O_5
REMARK    2  A    between atoms: O_5  and  C_6
REMARK    3  A    between atoms: C_8  and  C_9
REMARK                            x       y       z     vdW  Elec       q    Type
REMARK                         _______ _______ _______ _____ _____    ______ ____
ROOT
ATOM      1  C   UNL     1       2.950   6.026  18.503  0.00  0.00    +0.000 A 
ATOM      2  N   UNL     1       2.601   7.259  18.939  0.00  0.00    +0.000 NA
ATOM      3  C   UNL     1       1.817   7.273  20.041  0.00  0.00    +0.000 A 
ATOM      4  N   UNL     1       1.401   6.175  20.702  0.00  0.00    +0.000 NA
ATOM      5  C   UNL     1       1.750   4.979  20.241  0.00  0.00    +0.000 A 
ATOM      6  C   UNL     1       1.296   3.850  20.911  0.00  0.00    +0.000 A 
ATOM      7  C   UNL     1       1.605   2.561  20.470  0.00  0.00    +0.000 A 
ATOM      8  C   UNL     1       2.376   2.392  19.330  0.00  0.00    +0.000 A 
ATOM      9  C   UNL     1       2.837   3.514  18.645  0.00  0.00    +0.000 A 
ATOM     10  C   UNL     1       2.535   4.823  19.105  0.00  0.00    +0.000 A 
ENDROOT
BRANCH   3  11
ATOM     11  C   UNL     1       1.300   8.547  20.586  0.00  0.00    +0.000 A 
ATOM     12  C   UNL     1       0.807   9.597  19.810  0.00  0.00    +0.000 A 
ATOM     13  C   UNL     1       0.322  10.762  20.418  0.00  0.00    +0.000 A 
ATOM     14  C   UNL     1       0.337  10.853  21.799  0.00  0.00    +0.000 A 
ATOM     15  N   UNL     1       0.800   9.875  22.596  0.00  0.00    +0.000 NA
ATOM     16  C   UNL     1       1.265   8.759  21.973  0.00  0.00    +0.000 A 
ENDBRANCH   3  11
BRANCH   1  17
ATOM     17  O   UNL     1       3.633   5.814  17.302  0.00  0.00    +0.000 OA
BRANCH  17  21
ATOM     18  C   UNL     1       7.631   4.647  17.349  0.00  0.00    +0.000 A 
ATOM     19  C   UNL     1       6.855   4.292  16.242  0.00  0.00    +0.000 A 
ATOM     20  C   UNL     1       5.514   4.690  16.142  0.00  0.00    +0.000 A 
ATOM     21  C   UNL     1       4.941   5.445  17.156  0.00  0.00    +0.000 A 
ATOM     22  C   UNL     1       5.736   5.811  18.259  0.00  0.00    +0.000 A 
ATOM     23  C   UNL     1       7.072   5.418  18.359  0.00  0.00    +0.000 A 
ENDBRANCH  17  21
ENDBRANCH   1  17
TORSDOF 3
ENDMDL
MODEL 5
REMARK VINA RESULT:      -8.1      2.689      6.496
REMARK  Name = 
REMARK  3 active torsions:
REMARK  status: ('A' for Active; 'I' for Inactive)
REMARK    1  A    between atoms: C_4  and  O_5
REMARK    2  A    between atoms: O_5  and  C_6
REMARK    3  A    between atoms: C_8  and  C_9
REMARK                            x       y       z     vdW  Elec       q    Type
REMARK                         _______ _______ _______ _____ _____    ______ ____
ROOT
ATOM      1  C   UNL     1       3.324   5.951  19.028  0.00  0.00    +0.000 A 
ATOM      2  N   UNL     1       2.898   7.180  19.402  0.00  0.00    +0.000 NA
ATOM      3  C   UNL     1       1.845   7.184  20.252  0.00  0.00    +0.000 A 
ATOM      4  N   UNL     1       1.243   6.080  20.732  0.00  0.00    +0.000 NA
ATOM      5  C   UNL     1       1.677   4.888  20.336  0.00  0.00    +0.000 A 
ATOM      6  C   UNL     1       1.034   3.753  20.814  0.00  0.00    +0.000 A 
ATOM      7  C   UNL     1       1.422   2.470  20.422  0.00  0.00    +0.000 A 
ATOM      8  C   UNL     1       2.468   2.313  19.526  0.00  0.00    +0.000 A 
ATOM      9  C   UNL     1       3.122   3.441  19.035  0.00  0.00    +0.000 A 
ATOM     10  C   UNL     1       2.735   4.744  19.448  0.00  0.00    +0.000 A 
ENDROOT
BRANCH   3  11
ATOM     11  C   UNL     1       1.228   8.455  20.687  0.00  0.00    +0.000 A 
ATOM     12  C   UNL     1       0.671   9.400  19.825  0.00  0.00    +0.000 A 
ATOM     13  C   UNL     1       0.092  10.571  20.332  0.00  0.00    +0.000 A 
ATOM     14  C   UNL     1       0.082  10.774  21.702  0.00  0.00    +0.000 A 
ATOM     15  N   UNL     1       0.604   9.901  22.579  0.00  0.00    +0.000 NA
ATOM     16  C   UNL     1       1.158   8.776  22.052  0.00  0.00    +0.000 A 
ENDBRANCH   3  11
BRANCH   1  17
ATOM     17  O   UNL     1       4.302   5.756  18.047  0.00  0.00    +0.000 OA
BRANCH  17  21
ATOM     18  C   UNL     1       8.255   7.045  18.282  0.00  0.00    +0.000 A 
ATOM     19  C   UNL     1       7.865   5.968  19.085  0.00  0.00    +0.000 A 
ATOM     20  C   UNL     1       6.561   5.457  19.023  0.00  0.00    +0.000 A 
ATOM     21  C   UNL     1       5.637   6.025  18.156  0.00  0.00    +0.000 A 
ATOM     22  C   UNL     1       6.045   7.098  17.341  0.00  0.00    +0.000 A 
ATOM     23  C   UNL     1       7.344   7.607  17.400  0.00  0.00    +0.000 A 
ENDBRANCH  17  21
ENDBRANCH   1  17
TORSDOF 3
ENDMDL
MODEL 6
REMARK VINA RESULT:      -8.0      2.145      6.612
REMARK  Name = 
REMARK  3 active torsions:
REMARK  status: ('A' for Active; 'I' for Inactive)
REMARK    1  A    between atoms: C_4  and  O_5
REMARK    2  A    between atoms: O_5  and  C_6
REMARK    3  A    between atoms: C_8  and  C_9
REMARK                            x       y       z     vdW  Elec       q    Type
REMARK                         _______ _______ _______ _____ _____    ______ ____
ROOT
ATOM      1  C   UNL     1       2.935   5.863  18.519  0.00  0.00    +0.000 A 
ATOM      2  N   UNL     1       2.606   7.118  18.905  0.00  0.00    +0.000 NA
ATOM      3  C   UNL     1       1.855   7.190  20.028  0.00  0.00    +0.000 A 
ATOM      4  N   UNL     1       1.455   6.129  20.753  0.00  0.00    +0.000 NA
ATOM      5  C   UNL     1       1.784   4.909  20.341  0.00  0.00    +0.000 A 
ATOM      6  C   UNL     1       1.345   3.817  21.079  0.00  0.00    +0.000 A 
ATOM      7  C   UNL     1       1.634   2.506  20.691  0.00  0.00    +0.000 A 
ATOM      8  C   UNL     1       2.369   2.277  19.538  0.00  0.00    +0.000 A 
ATOM      9  C   UNL     1       2.814   3.362  18.786  0.00  0.00    +0.000 A 
ATOM     10  C   UNL     1       2.532   4.693  19.190  0.00  0.00    +0.000 A 
ENDROOT
BRANCH   3  11
ATOM     11  C   UNL     1       1.362   8.492  20.526  0.00  0.00    +0.000 A 
ATOM     12  C   UNL     1       0.958   9.550  19.709  0.00  0.00    +0.000 A 
ATOM     13  C   UNL     1       0.488  10.743  20.273  0.00  0.00    +0.000 A 
ATOM     14  C   UNL     1       0.428  10.854  21.652  0.00  0.00    +0.000 A 
ATOM     15  N   UNL     1       0.804   9.871  22.486  0.00  0.00    +0.000 NA
ATOM     16  C   UNL     1       1.256   8.727  21.906  0.00  0.00    +0.000 A 
ENDBRANCH   3  11
BRANCH   1  17
ATOM     17  O   UNL     1       3.580   5.589  17.309  0.00  0.00    +0.000 OA
BRANCH  17  21
ATOM     18  C   UNL     1       7.496   4.586  16.307  0.00  0.00    +0.000 A 
ATOM     19  C   UNL     1       7.276   5.248  17.518  0.00  0.00    +0.000 A 
ATOM     20  C   UNL     1       5.978   5.576  17.936  0.00  0.00    +0.000 A 
ATOM     21  C   UNL     1       4.892   5.244  17.139  0.00  0.00    +0.000 A 
ATOM     22  C   UNL     1       5.124   4.563  15.929  0.00  0.00    +0.000 A 
ATOM     23  C   UNL     1       6.415   4.233  15.512  0.00  0.00    +0.000 A 
ENDBRANCH  17  21
ENDBRANCH   1  17
TORSDOF 3
ENDMDL
MODEL 7
REMARK VINA RESULT:      -8.0      1.954      6.056
REMARK  Name = 
REMARK  3 active torsions:
REMARK  status: ('A' for Active; 'I' for Inactive)
REMARK    1  A    between atoms: C_4  and  O_5
REMARK    2  A    between atoms: O_5  and  C_6
REMARK    3  A    between atoms: C_8  and  C_9
REMARK                            x       y       z     vdW  Elec       q    Type
REMARK                         _______ _______ _______ _____ _____    ______ ____
ROOT
ATOM      1  C   UNL     1       4.228   5.046  19.046  0.00  0.00    +0.000 A 
ATOM      2  N   UNL     1       3.830   6.313  18.784  0.00  0.00    +0.000 NA
ATOM      3  C   UNL     1       2.684   6.688  19.397  0.00  0.00    +0.000 A 
ATOM      4  N   UNL     1       1.965   5.907  20.225  0.00  0.00    +0.000 NA
ATOM      5  C   UNL     1       2.376   4.663  20.451  0.00  0.00    +0.000 A 
ATOM      6  C   UNL     1       1.616   3.854  21.286  0.00  0.00    +0.000 A 
ATOM      7  C   UNL     1       1.975   2.530  21.551  0.00  0.00    +0.000 A 
ATOM      8  C   UNL     1       3.112   1.997  20.963  0.00  0.00    +0.000 A 
ATOM      9  C   UNL     1       3.884   2.795  20.121  0.00  0.00    +0.000 A 
ATOM     10  C   UNL     1       3.525   4.145  19.867  0.00  0.00    +0.000 A 
ENDROOT
BRANCH   3  11
ATOM     11  C   UNL     1       2.092   8.020  19.145  0.00  0.00    +0.000 A 
ATOM     12  C   UNL     1       1.303   8.720  20.058  0.00  0.00    +0.000 A 
ATOM     13  C   UNL     1       0.798   9.986  19.737  0.00  0.00    +0.000 A 
ATOM     14  C   UNL     1       1.098  10.532  18.500  0.00  0.00    +0.000 A 
ATOM     15  N   UNL     1       1.850   9.904  17.582  0.00  0.00    +0.000 NA
ATOM     16  C   UNL     1       2.323   8.676  17.926  0.00  0.00    +0.000 A 
ENDBRANCH   3  11
BRANCH   1  17
ATOM     17  O   UNL     1       5.305   4.441  18.390  0.00  0.00    +0.000 OA
BRANCH  17  21
ATOM     18  C   UNL     1       6.729   4.625  14.482  0.00  0.00    +0.000 A 
ATOM     19  C   UNL     1       5.388   4.282  14.677  0.00  0.00    +0.000 A 
ATOM     20  C   UNL     1       4.834   4.244  15.965  0.00  0.00    +0.000 A 
ATOM     21  C   UNL     1       5.623   4.547  17.066  0.00  0.00    +0.000 A 
ATOM     22  C   UNL     1       6.968   4.907  16.855  0.00  0.00    +0.000 A 
ATOM     23  C   UNL     1       7.521   4.947  15.574  0.00  0.00    +0.000 A 
ENDBRANCH  17  21
ENDBRANCH   1  17
TORSDOF 3
ENDMDL
MODEL 8
REMARK VINA RESULT:      -8.0      2.021      6.101
REMARK  Name = 
REMARK  3 active torsions:
REMARK  status: ('A' for Active; 'I' for Inactive)
REMARK    1  A    between atoms: C_4  and  O_5
REMARK    2  A    between atoms: O_5  and  C_6
REMARK    3  A    between atoms: C_8  and  C_9
REMARK                            x       y       z     vdW  Elec       q    Type
REMARK                         _______ _______ _______ _____ _____    ______ ____
ROOT
ATOM      1  C   UNL     1       4.187   5.102  19.142  0.00  0.00    +0.000 A 
ATOM      2  N   UNL     1       3.790   6.372  18.894  0.00  0.00    +0.000 NA
ATOM      3  C   UNL     1       2.613   6.722  19.462  0.00  0.00    +0.000 A 
ATOM      4  N   UNL     1       1.864   5.914  20.236  0.00  0.00    +0.000 NA
ATOM      5  C   UNL     1       2.275   4.669  20.450  0.00  0.00    +0.000 A 
ATOM      6  C   UNL     1       1.484   3.832  21.228  0.00  0.00    +0.000 A 
ATOM      7  C   UNL     1       1.843   2.505  21.475  0.00  0.00    +0.000 A 
ATOM      8  C   UNL     1       3.011   1.996  20.928  0.00  0.00    +0.000 A 
ATOM      9  C   UNL     1       3.814   2.822  20.144  0.00  0.00    +0.000 A 
ATOM     10  C   UNL     1       3.454   4.175  19.907  0.00  0.00    +0.000 A 
ENDROOT
BRANCH   3  11
ATOM     11  C   UNL     1       2.021   8.055  19.217  0.00  0.00    +0.000 A 
ATOM     12  C   UNL     1       2.102   8.746  18.007  0.00  0.00    +0.000 A 
ATOM     13  C   UNL     1       1.494  10.000  17.863  0.00  0.00    +0.000 A 
ATOM     14  C   UNL     1       0.811  10.540  18.939  0.00  0.00    +0.000 A 
ATOM     15  N   UNL     1       0.701   9.921  20.127  0.00  0.00    +0.000 NA
ATOM     16  C   UNL     1       1.304   8.707  20.232  0.00  0.00    +0.000 A 
ENDBRANCH   3  11
BRANCH   1  17
ATOM     17  O   UNL     1       5.299   4.523  18.523  0.00  0.00    +0.000 OA
BRANCH  17  21
ATOM     18  C   UNL     1       6.703   4.515  14.603  0.00  0.00    +0.000 A 
ATOM     19  C   UNL     1       5.365   4.175  14.822  0.00  0.00    +0.000 A 
ATOM     20  C   UNL     1       4.817   4.200  16.113  0.00  0.00    +0.000 A 
ATOM     21  C   UNL     1       5.610   4.563  17.193  0.00  0.00    +0.000 A 
ATOM     22  C   UNL     1       6.952   4.919  16.958  0.00  0.00    +0.000 A 
ATOM     23  C   UNL     1       7.499   4.897  15.674  0.00  0.00    +0.000 A 
ENDBRANCH  17  21
ENDBRANCH   1  17
TORSDOF 3
ENDMDL
MODEL 9
REMARK VINA RESULT:      -7.9      2.023      5.977
REMARK  Name = 
REMARK  3 active torsions:
REMARK  status: ('A' for Active; 'I' for Inactive)
REMARK    1  A    between atoms: C_4  and  O_5
REMARK    2  A    between atoms: O_5  and  C_6
REMARK    3  A    between atoms: C_8  and  C_9
REMARK                            x       y       z     vdW  Elec       q    Type
REMARK                         _______ _______ _______ _____ _____    ______ ____
ROOT
ATOM      1  C   UNL     1       4.226   5.023  19.291  0.00  0.00    +0.000 A 
ATOM      2  N   UNL     1       3.878   6.300  19.008  0.00  0.00    +0.000 NA
ATOM      3  C   UNL     1       2.657   6.671  19.456  0.00  0.00    +0.000 A 
ATOM      4  N   UNL     1       1.820   5.876  20.149  0.00  0.00    +0.000 NA
ATOM      5  C   UNL     1       2.184   4.624  20.400  0.00  0.00    +0.000 A 
ATOM      6  C   UNL     1       1.305   3.800  21.092  0.00  0.00    +0.000 A 
ATOM      7  C   UNL     1       1.613   2.467  21.371  0.00  0.00    +0.000 A 
ATOM      8  C   UNL     1       2.821   1.937  20.942  0.00  0.00    +0.000 A 
ATOM      9  C   UNL     1       3.713   2.749  20.244  0.00  0.00    +0.000 A 
ATOM     10  C   UNL     1       3.404   4.108  19.977  0.00  0.00    +0.000 A 
ENDROOT
BRANCH   3  11
ATOM     11  C   UNL     1       2.117   8.015  19.157  0.00  0.00    +0.000 A 
ATOM     12  C   UNL     1       2.284   8.682  17.942  0.00  0.00    +0.000 A 
ATOM     13  C   UNL     1       1.720   9.949  17.744  0.00  0.00    +0.000 A 
ATOM     14  C   UNL     1       0.994  10.526  18.772  0.00  0.00    +0.000 A 
ATOM     15  N   UNL     1       0.802   9.933  19.961  0.00  0.00    +0.000 NA
ATOM     16  C   UNL     1       1.364   8.704  20.120  0.00  0.00    +0.000 A 
ENDBRANCH   3  11
BRANCH   1  17
ATOM     17  O   UNL     1       5.384   4.424  18.785  0.00  0.00    +0.000 OA
BRANCH  17  21
ATOM     18  C   UNL     1       6.306   4.665  14.732  0.00  0.00    +0.000 A 
ATOM     19  C   UNL     1       7.256   5.122  15.650  0.00  0.00    +0.000 A 
ATOM     20  C   UNL     1       7.026   5.030  17.031  0.00  0.00    +0.000 A 
ATOM     21  C   UNL     1       5.840   4.481  17.498  0.00  0.00    +0.000 A 
ATOM     22  C   UNL     1       4.899   4.009  16.564  0.00  0.00    +0.000 A 
ATOM     23  C   UNL     1       5.126   4.098  15.190  0.00  0.00    +0.000 A 
ENDBRANCH  17  21
ENDBRANCH   1  17
TORSDOF 3
ENDMDL
