MODEL 1
REMARK VINA RESULT:      -8.1      0.000      0.000
REMARK  Name = 
REMARK  8 active torsions:
REMARK  status: ('A' for Active; 'I' for Inactive)
REMARK    1  A    between atoms: C_1  and  N_2
REMARK    2  A    between atoms: N_7  and  C_8
REMARK    3  A    between atoms: C_9  and  C_10
REMARK    4  A    between atoms: C_9  and  C_12
REMARK    5  A    between atoms: C_10  and  O_11
REMARK    6  A    between atoms: C_16  and  N_17
REMARK    7  A    between atoms: C_22  and  C_23
REMARK    8  A    between atoms: C_26  and  C_27
REMARK                            x       y       z     vdW  Elec       q    Type
REMARK                         _______ _______ _______ _____ _____    ______ ____
ROOT
ATOM      1  C   UNL     1       1.888   8.132  19.616  0.00  0.00    +0.000 A 
ATOM      2  C   UNL     1       2.442   8.781  18.508  0.00  0.00    +0.000 A 
ATOM      3  C   UNL     1       2.892   8.042  17.418  0.00  0.00    +0.000 A 
ATOM      4  C   UNL     1       2.909   6.654  17.484  0.00  0.00    +0.000 A 
ATOM      5  C   UNL     1       2.670   6.033  18.718  0.00  0.00    +0.000 A 
ATOM      6  C   UNL     1       1.970   6.737  19.705  0.00  0.00    +0.000 A 
ENDROOT
BRANCH   5   7
ATOM      7  N   UNL     1       3.607   5.002  19.159  0.00  0.00    +0.000 N 
ATOM      8  C   UNL     1       4.978   5.566  19.261  0.00  0.00    +0.000 C 
ATOM      9  C   UNL     1       5.566   5.236  17.922  0.00  0.00    +0.000 A 
ATOM     10  C   UNL     1       4.889   4.118  17.427  0.00  0.00    +0.000 A 
ATOM     11  C   UNL     1       5.097   3.611  16.157  0.00  0.00    +0.000 A 
ATOM     12  C   UNL     1       6.017   4.281  15.343  0.00  0.00    +0.000 A 
ATOM     13  C   UNL     1       6.695   5.426  15.827  0.00  0.00    +0.000 A 
ATOM     14  C   UNL     1       6.484   5.921  17.132  0.00  0.00    +0.000 A 
ATOM     15  C   UNL     1       3.723   3.871  18.307  0.00  0.00    +0.000 C 
ATOM     16  O   UNL     1       2.934   2.960  18.139  0.00  0.00    +0.000 OA
BRANCH  14  17
ATOM     17  C   UNL     1       7.186   7.182  17.577  0.00  0.00    +0.000 C 
ATOM     18  F   UNL     1       8.089   7.657  16.684  0.00  0.00    +0.000 F 
ATOM     19  F   UNL     1       6.306   8.201  17.782  0.00  0.00    +0.000 F 
ATOM     20  F   UNL     1       7.851   7.016  18.751  0.00  0.00    +0.000 F 
ENDBRANCH  14  17
BRANCH  12  21
ATOM     21  C   UNL     1       6.226   3.852  13.993  0.00  0.00    +0.000 C 
ATOM     22  N   UNL     1       6.391   3.507  12.892  0.00  0.00    +0.000 NA
ENDBRANCH  12  21
ENDBRANCH   5   7
BRANCH   1  24
ATOM     23  C   UNL     1       0.608  10.037  20.246  0.00  0.00    +0.000 C 
ATOM     24  C   UNL     1       1.238   8.928  20.671  0.00  0.00    +0.000 C 
BRANCH  23  31
ATOM     25  C   UNL     1      -1.935  10.856  18.475  0.00  0.00    +0.000 C 
ATOM     26  N   UNL     1      -1.991  11.687  19.648  0.00  0.00    +0.000 N 
ATOM     27  C   UNL     1      -2.965  12.615  19.874  0.00  0.00    +0.000 A 
ATOM     28  N   UNL     1      -2.747  13.218  21.016  0.00  0.00    +0.000 NA
ATOM     29  N   UNL     1      -1.607  12.672  21.551  0.00  0.00    +0.000 NA
ATOM     30  C   UNL     1      -1.152  11.740  20.732  0.00  0.00    +0.000 A 
ATOM     31  N   UNL     1      -0.028  11.012  20.964  0.00  0.00    +0.000 N 
ATOM     32  H   UNL     1       0.433  11.274  21.831  0.00  0.00    +0.000 HD
ENDBRANCH  23  31
BRANCH  24  33
ATOM     33  C   UNL     1       1.372   8.497  22.103  0.00  0.00    +0.000 C 
BRANCH  33  34
ATOM     34  O   UNL     1       2.160   9.410  22.855  0.00  0.00    +0.000 OA
ATOM     35  H   UNL     1       2.950   8.927  23.146  0.00  0.00    +0.000 HD
ENDBRANCH  33  34
ENDBRANCH  24  33
ENDBRANCH   1  24
TORSDOF 7
ENDMDL
MODEL 2
REMARK VINA RESULT:      -8.1      0.962      1.436
REMARK  Name = 
REMARK  8 active torsions:
REMARK  status: ('A' for Active; 'I' for Inactive)
REMARK    1  A    between atoms: C_1  and  N_2
REMARK    2  A    between atoms: N_7  and  C_8
REMARK    3  A    between atoms: C_9  and  C_10
REMARK    4  A    between atoms: C_9  and  C_12
REMARK    5  A    between atoms: C_10  and  O_11
REMARK    6  A    between atoms: C_16  and  N_17
REMARK    7  A    between atoms: C_22  and  C_23
REMARK    8  A    between atoms: C_26  and  C_27
REMARK                            x       y       z     vdW  Elec       q    Type
REMARK                         _______ _______ _______ _____ _____    ______ ____
ROOT
ATOM      1  C   UNL     1       1.820   8.031  19.669  0.00  0.00    +0.000 A 
ATOM      2  C   UNL     1       2.415   8.760  18.634  0.00  0.00    +0.000 A 
ATOM      3  C   UNL     1       2.943   8.100  17.529  0.00  0.00    +0.000 A 
ATOM      4  C   UNL     1       2.994   6.712  17.512  0.00  0.00    +0.000 A 
ATOM      5  C   UNL     1       2.706   6.010  18.691  0.00  0.00    +0.000 A 
ATOM      6  C   UNL     1       1.935   6.637  19.678  0.00  0.00    +0.000 A 
ENDROOT
BRANCH   5   7
ATOM      7  N   UNL     1       3.645   4.977  19.121  0.00  0.00    +0.000 N 
ATOM      8  C   UNL     1       5.015   5.542  19.229  0.00  0.00    +0.000 C 
ATOM      9  C   UNL     1       5.602   5.227  17.886  0.00  0.00    +0.000 A 
ATOM     10  C   UNL     1       4.928   4.113  17.379  0.00  0.00    +0.000 A 
ATOM     11  C   UNL     1       5.136   3.620  16.104  0.00  0.00    +0.000 A 
ATOM     12  C   UNL     1       6.054   4.300  15.297  0.00  0.00    +0.000 A 
ATOM     13  C   UNL     1       6.730   5.442  15.792  0.00  0.00    +0.000 A 
ATOM     14  C   UNL     1       6.519   5.922  17.102  0.00  0.00    +0.000 A 
ATOM     15  C   UNL     1       3.763   3.856  18.258  0.00  0.00    +0.000 C 
ATOM     16  O   UNL     1       2.976   2.944  18.081  0.00  0.00    +0.000 OA
BRANCH  14  17
ATOM     17  C   UNL     1       7.218   7.180  17.560  0.00  0.00    +0.000 C 
ATOM     18  F   UNL     1       7.909   7.038  18.719  0.00  0.00    +0.000 F 
ATOM     19  F   UNL     1       8.129   7.610  16.644  0.00  0.00    +0.000 F 
ATOM     20  F   UNL     1       6.355   8.214  17.747  0.00  0.00    +0.000 F 
ENDBRANCH  14  17
BRANCH  12  21
ATOM     21  C   UNL     1       6.263   3.885  13.942  0.00  0.00    +0.000 C 
ATOM     22  N   UNL     1       6.427   3.543  12.840  0.00  0.00    +0.000 NA
ENDBRANCH  12  21
ENDBRANCH   5   7
BRANCH   1  24
ATOM     23  C   UNL     1       0.219   9.674  20.304  0.00  0.00    +0.000 C 
ATOM     24  C   UNL     1       1.092   8.746  20.732  0.00  0.00    +0.000 C 
BRANCH  23  31
ATOM     25  C   UNL     1       1.834  12.442  20.285  0.00  0.00    +0.000 C 
ATOM     26  N   UNL     1       0.639  12.691  21.048  0.00  0.00    +0.000 N 
ATOM     27  C   UNL     1       0.342  13.894  21.618  0.00  0.00    +0.000 A 
ATOM     28  N   UNL     1      -0.802  13.812  22.253  0.00  0.00    +0.000 NA
ATOM     29  N   UNL     1      -1.263  12.530  22.093  0.00  0.00    +0.000 NA
ATOM     30  C   UNL     1      -0.399  11.851  21.358  0.00  0.00    +0.000 A 
ATOM     31  N   UNL     1      -0.555  10.544  21.022  0.00  0.00    +0.000 N 
ATOM     32  H   UNL     1      -1.403  10.140  21.412  0.00  0.00    +0.000 HD
ENDBRANCH  23  31
BRANCH  24  33
ATOM     33  C   UNL     1       1.411   8.445  22.169  0.00  0.00    +0.000 C 
BRANCH  33  34
ATOM     34  O   UNL     1       1.673   9.630  22.908  0.00  0.00    +0.000 OA
ATOM     35  H   UNL     1       0.890  10.197  22.819  0.00  0.00    +0.000 HD
ENDBRANCH  33  34
ENDBRANCH  24  33
ENDBRANCH   1  24
TORSDOF 7
ENDMDL
MODEL 3
REMARK VINA RESULT:      -8.0      4.969     10.463
REMARK  Name = 
REMARK  8 active torsions:
REMARK  status: ('A' for Active; 'I' for Inactive)
REMARK    1  A    between atoms: C_1  and  N_2
REMARK    2  A    between atoms: N_7  and  C_8
REMARK    3  A    between atoms: C_9  and  C_10
REMARK    4  A    between atoms: C_9  and  C_12
REMARK    5  A    between atoms: C_10  and  O_11
REMARK    6  A    between atoms: C_16  and  N_17
REMARK    7  A    between atoms: C_22  and  C_23
REMARK    8  A    between atoms: C_26  and  C_27
REMARK                            x       y       z     vdW  Elec       q    Type
REMARK                         _______ _______ _______ _____ _____    ______ ____
ROOT
ATOM      1  C   UNL     1       1.100   8.800  20.486  0.00  0.00    +0.000 A 
ATOM      2  C   UNL     1       1.282   8.713  21.870  0.00  0.00    +0.000 A 
ATOM      3  C   UNL     1       0.402   9.359  22.732  0.00  0.00    +0.000 A 
ATOM      4  C   UNL     1      -0.581  10.195  22.217  0.00  0.00    +0.000 A 
ATOM      5  C   UNL     1      -0.536  10.535  20.858  0.00  0.00    +0.000 A 
ATOM      6  C   UNL     1       0.154   9.695  19.974  0.00  0.00    +0.000 A 
ENDROOT
BRANCH   5   7
ATOM      7  N   UNL     1      -0.649  11.947  20.500  0.00  0.00    +0.000 N 
ATOM      8  C   UNL     1      -1.242  12.715  21.626  0.00  0.00    +0.000 C 
ATOM      9  C   UNL     1      -2.701  12.723  21.280  0.00  0.00    +0.000 A 
ATOM     10  C   UNL     1      -2.808  12.576  19.895  0.00  0.00    +0.000 A 
ATOM     11  C   UNL     1      -4.019  12.425  19.243  0.00  0.00    +0.000 A 
ATOM     12  C   UNL     1      -5.173  12.401  20.034  0.00  0.00    +0.000 A 
ATOM     13  C   UNL     1      -5.075  12.530  21.441  0.00  0.00    +0.000 A 
ATOM     14  C   UNL     1      -3.833  12.700  22.089  0.00  0.00    +0.000 A 
ATOM     15  C   UNL     1      -1.465  12.232  19.373  0.00  0.00    +0.000 C 
ATOM     16  O   UNL     1      -1.229  12.042  18.194  0.00  0.00    +0.000 OA
BRANCH  14  17
ATOM     17  C   UNL     1      -3.779  12.771  23.596  0.00  0.00    +0.000 C 
ATOM     18  F   UNL     1      -3.078  13.829  24.076  0.00  0.00    +0.000 F 
ATOM     19  F   UNL     1      -5.022  12.881  24.140  0.00  0.00    +0.000 F 
ATOM     20  F   UNL     1      -3.224  11.658  24.147  0.00  0.00    +0.000 F 
ENDBRANCH  14  17
BRANCH  12  21
ATOM     21  C   UNL     1      -6.452  12.176  19.431  0.00  0.00    +0.000 C 
ATOM     22  N   UNL     1      -7.494  11.999  18.939  0.00  0.00    +0.000 NA
ENDBRANCH  12  21
ENDBRANCH   5   7
BRANCH   1  24
ATOM     23  C   UNL     1       2.477   6.883  20.177  0.00  0.00    +0.000 C 
ATOM     24  C   UNL     1       1.915   7.956  19.594  0.00  0.00    +0.000 C 
BRANCH  23  31
ATOM     25  C   UNL     1       0.927   4.091  20.449  0.00  0.00    +0.000 C 
ATOM     26  N   UNL     1       2.193   3.779  19.842  0.00  0.00    +0.000 N 
ATOM     27  C   UNL     1       2.574   2.516  19.492  0.00  0.00    +0.000 A 
ATOM     28  N   UNL     1       3.776   2.545  18.971  0.00  0.00    +0.000 NA
ATOM     29  N   UNL     1       4.189   3.853  18.978  0.00  0.00    +0.000 NA
ATOM     30  C   UNL     1       3.232   4.604  19.495  0.00  0.00    +0.000 A 
ATOM     31  N   UNL     1       3.328   5.950  19.654  0.00  0.00    +0.000 N 
ATOM     32  H   UNL     1       4.226   6.315  19.344  0.00  0.00    +0.000 HD
ENDBRANCH  23  31
BRANCH  24  33
ATOM     33  C   UNL     1       2.105   8.372  18.163  0.00  0.00    +0.000 C 
BRANCH  33  34
ATOM     34  O   UNL     1       3.335   7.892  17.637  0.00  0.00    +0.000 OA
ATOM     35  H   UNL     1       3.901   8.666  17.489  0.00  0.00    +0.000 HD
ENDBRANCH  33  34
ENDBRANCH  24  33
ENDBRANCH   1  24
TORSDOF 7
ENDMDL
MODEL 4
REMARK VINA RESULT:      -8.0      5.083     10.776
REMARK  Name = 
REMARK  8 active torsions:
REMARK  status: ('A' for Active; 'I' for Inactive)
REMARK    1  A    between atoms: C_1  and  N_2
REMARK    2  A    between atoms: N_7  and  C_8
REMARK    3  A    between atoms: C_9  and  C_10
REMARK    4  A    between atoms: C_9  and  C_12
REMARK    5  A    between atoms: C_10  and  O_11
REMARK    6  A    between atoms: C_16  and  N_17
REMARK    7  A    between atoms: C_22  and  C_23
REMARK    8  A    between atoms: C_26  and  C_27
REMARK                            x       y       z     vdW  Elec       q    Type
REMARK                         _______ _______ _______ _____ _____    ______ ____
ROOT
ATOM      1  C   UNL     1       0.755   9.253  20.586  0.00  0.00    +0.000 A 
ATOM      2  C   UNL     1       1.106   8.948  21.906  0.00  0.00    +0.000 A 
ATOM      3  C   UNL     1       0.356   9.454  22.963  0.00  0.00    +0.000 A 
ATOM      4  C   UNL     1      -0.665  10.363  22.713  0.00  0.00    +0.000 A 
ATOM      5  C   UNL     1      -0.782  10.912  21.429  0.00  0.00    +0.000 A 
ATOM      6  C   UNL     1      -0.228  10.220  20.345  0.00  0.00    +0.000 A 
ENDROOT
BRANCH   5   7
ATOM      7  N   UNL     1      -0.907  12.363  21.312  0.00  0.00    +0.000 N 
ATOM      8  C   UNL     1      -1.618  12.913  22.495  0.00  0.00    +0.000 C 
ATOM      9  C   UNL     1      -3.041  12.960  22.025  0.00  0.00    +0.000 A 
ATOM     10  C   UNL     1      -3.023  13.056  20.631  0.00  0.00    +0.000 A 
ATOM     11  C   UNL     1      -4.168  13.004  19.856  0.00  0.00    +0.000 A 
ATOM     12  C   UNL     1      -5.385  12.824  20.523  0.00  0.00    +0.000 A 
ATOM     13  C   UNL     1      -5.413  12.706  21.934  0.00  0.00    +0.000 A 
ATOM     14  C   UNL     1      -4.238  12.779  22.712  0.00  0.00    +0.000 A 
ATOM     15  C   UNL     1      -1.630  12.829  20.182  0.00  0.00    +0.000 C 
ATOM     16  O   UNL     1      -1.287  12.852  19.014  0.00  0.00    +0.000 OA
BRANCH  14  17
ATOM     17  C   UNL     1      -4.316  12.585  24.207  0.00  0.00    +0.000 C 
ATOM     18  F   UNL     1      -5.579  12.439  24.681  0.00  0.00    +0.000 F 
ATOM     19  F   UNL     1      -3.647  11.469  24.606  0.00  0.00    +0.000 F 
ATOM     20  F   UNL     1      -3.763  13.621  24.893  0.00  0.00    +0.000 F 
ENDBRANCH  14  17
BRANCH  12  21
ATOM     21  C   UNL     1      -6.599  12.689  19.776  0.00  0.00    +0.000 C 
ATOM     22  N   UNL     1      -7.583  12.577  19.163  0.00  0.00    +0.000 NA
ENDBRANCH  12  21
ENDBRANCH   5   7
BRANCH   1  24
ATOM     23  C   UNL     1       2.138   7.468  19.831  0.00  0.00    +0.000 C 
ATOM     24  C   UNL     1       1.432   8.557  19.478  0.00  0.00    +0.000 C 
BRANCH  23  31
ATOM     25  C   UNL     1       1.130   4.498  20.486  0.00  0.00    +0.000 C 
ATOM     26  N   UNL     1       2.198   4.348  19.534  0.00  0.00    +0.000 N 
ATOM     27  C   UNL     1       2.631   3.142  19.065  0.00  0.00    +0.000 A 
ATOM     28  N   UNL     1       3.616   3.323  18.220  0.00  0.00    +0.000 NA
ATOM     29  N   UNL     1       3.830   4.676  18.132  0.00  0.00    +0.000 NA
ATOM     30  C   UNL     1       2.969   5.299  18.918  0.00  0.00    +0.000 A 
ATOM     31  N   UNL     1       2.922   6.649  19.067  0.00  0.00    +0.000 N 
ATOM     32  H   UNL     1       3.633   7.127  18.519  0.00  0.00    +0.000 HD
ENDBRANCH  23  31
BRANCH  24  33
ATOM     33  C   UNL     1       1.342   9.125  18.091  0.00  0.00    +0.000 C 
BRANCH  33  34
ATOM     34  O   UNL     1       2.484   8.794  17.313  0.00  0.00    +0.000 OA
ATOM     35  H   UNL     1       3.250   8.827  17.907  0.00  0.00    +0.000 HD
ENDBRANCH  33  34
ENDBRANCH  24  33
ENDBRANCH   1  24
TORSDOF 7
ENDMDL
MODEL 5
REMARK VINA RESULT:      -7.6      6.488      9.171
REMARK  Name = 
REMARK  8 active torsions:
REMARK  status: ('A' for Active; 'I' for Inactive)
REMARK    1  A    between atoms: C_1  and  N_2
REMARK    2  A    between atoms: N_7  and  C_8
REMARK    3  A    between atoms: C_9  and  C_10
REMARK    4  A    between atoms: C_9  and  C_12
REMARK    5  A    between atoms: C_10  and  O_11
REMARK    6  A    between atoms: C_16  and  N_17
REMARK    7  A    between atoms: C_22  and  C_23
REMARK    8  A    between atoms: C_26  and  C_27
REMARK                            x       y       z     vdW  Elec       q    Type
REMARK                         _______ _______ _______ _____ _____    ______ ____
ROOT
ATOM      1  C   UNL     1      -3.976  11.292  17.800  0.00  0.00    +0.000 A 
ATOM      2  C   UNL     1      -3.944  10.812  16.487  0.00  0.00    +0.000 A 
ATOM      3  C   UNL     1      -2.899   9.996  16.067  0.00  0.00    +0.000 A 
ATOM      4  C   UNL     1      -1.822   9.761  16.913  0.00  0.00    +0.000 A 
ATOM      5  C   UNL     1      -1.709  10.516  18.089  0.00  0.00    +0.000 A 
ATOM      6  C   UNL     1      -2.860  11.109  18.624  0.00  0.00    +0.000 A 
ENDROOT
BRANCH   5   7
ATOM      7  N   UNL     1      -0.425  11.152  18.375  0.00  0.00    +0.000 N 
ATOM      8  C   UNL     1       0.296  10.397  19.432  0.00  0.00    +0.000 C 
ATOM      9  C   UNL     1      -0.107  11.121  20.681  0.00  0.00    +0.000 A 
ATOM     10  C   UNL     1      -0.442  12.429  20.323  0.00  0.00    +0.000 A 
ATOM     11  C   UNL     1      -0.972  13.345  21.214  0.00  0.00    +0.000 A 
ATOM     12  C   UNL     1      -1.193  12.907  22.525  0.00  0.00    +0.000 A 
ATOM     13  C   UNL     1      -0.876  11.578  22.895  0.00  0.00    +0.000 A 
ATOM     14  C   UNL     1      -0.320  10.661  21.978  0.00  0.00    +0.000 A 
ATOM     15  C   UNL     1      -0.493  12.491  18.843  0.00  0.00    +0.000 C 
ATOM     16  O   UNL     1      -0.757  13.503  18.221  0.00  0.00    +0.000 OA
BRANCH  14  17
ATOM     17  C   UNL     1      -0.058   9.237  22.408  0.00  0.00    +0.000 C 
ATOM     18  F   UNL     1      -0.250   9.015  23.732  0.00  0.00    +0.000 F 
ATOM     19  F   UNL     1      -0.880   8.360  21.769  0.00  0.00    +0.000 F 
ATOM     20  F   UNL     1       1.211   8.837  22.127  0.00  0.00    +0.000 F 
ENDBRANCH  14  17
BRANCH  12  21
ATOM     21  C   UNL     1      -1.806  13.782  23.478  0.00  0.00    +0.000 C 
ATOM     22  N   UNL     1      -2.310  14.495  24.250  0.00  0.00    +0.000 NA
ENDBRANCH  12  21
ENDBRANCH   5   7
BRANCH   1  24
ATOM     23  C   UNL     1      -5.503  11.745  19.570  0.00  0.00    +0.000 C 
ATOM     24  C   UNL     1      -5.180  11.987  18.287  0.00  0.00    +0.000 C 
BRANCH  23  31
ATOM     25  C   UNL     1      -4.594  14.549  20.828  0.00  0.00    +0.000 C 
ATOM     26  N   UNL     1      -5.937  14.326  21.295  0.00  0.00    +0.000 N 
ATOM     27  C   UNL     1      -6.606  15.189  22.114  0.00  0.00    +0.000 A 
ATOM     28  N   UNL     1      -7.800  14.715  22.374  0.00  0.00    +0.000 NA
ATOM     29  N   UNL     1      -7.915  13.519  21.710  0.00  0.00    +0.000 NA
ATOM     30  C   UNL     1      -6.794  13.285  21.050  0.00  0.00    +0.000 A 
ATOM     31  N   UNL     1      -6.578  12.175  20.297  0.00  0.00    +0.000 N 
ATOM     32  H   UNL     1      -7.369  11.536  20.310  0.00  0.00    +0.000 HD
ENDBRANCH  23  31
BRANCH  24  33
ATOM     33  C   UNL     1      -5.972  12.838  17.335  0.00  0.00    +0.000 C 
BRANCH  33  34
ATOM     34  O   UNL     1      -7.367  12.590  17.444  0.00  0.00    +0.000 OA
ATOM     35  H   UNL     1      -7.471  11.651  17.663  0.00  0.00    +0.000 HD
ENDBRANCH  33  34
ENDBRANCH  24  33
ENDBRANCH   1  24
TORSDOF 7
ENDMDL
MODEL 6
REMARK VINA RESULT:      -7.6      4.548     10.235
REMARK  Name = 
REMARK  8 active torsions:
REMARK  status: ('A' for Active; 'I' for Inactive)
REMARK    1  A    between atoms: C_1  and  N_2
REMARK    2  A    between atoms: N_7  and  C_8
REMARK    3  A    between atoms: C_9  and  C_10
REMARK    4  A    between atoms: C_9  and  C_12
REMARK    5  A    between atoms: C_10  and  O_11
REMARK    6  A    between atoms: C_16  and  N_17
REMARK    7  A    between atoms: C_22  and  C_23
REMARK    8  A    between atoms: C_26  and  C_27
REMARK                            x       y       z     vdW  Elec       q    Type
REMARK                         _______ _______ _______ _____ _____    ______ ____
ROOT
ATOM      1  C   UNL     1       1.384   8.503  19.769  0.00  0.00    +0.000 A 
ATOM      2  C   UNL     1       1.497   8.520  21.163  0.00  0.00    +0.000 A 
ATOM      3  C   UNL     1       0.549   9.187  21.933  0.00  0.00    +0.000 A 
ATOM      4  C   UNL     1      -0.437   9.944  21.311  0.00  0.00    +0.000 A 
ATOM      5  C   UNL     1      -0.333  10.190  19.935  0.00  0.00    +0.000 A 
ATOM      6  C   UNL     1       0.433   9.321  19.149  0.00  0.00    +0.000 A 
ENDROOT
BRANCH   5   7
ATOM      7  N   UNL     1      -0.480  11.569  19.472  0.00  0.00    +0.000 N 
ATOM      8  C   UNL     1      -0.601  12.489  20.633  0.00  0.00    +0.000 C 
ATOM      9  C   UNL     1      -2.086  12.605  20.802  0.00  0.00    +0.000 A 
ATOM     10  C   UNL     1      -2.675  12.344  19.562  0.00  0.00    +0.000 A 
ATOM     11  C   UNL     1      -4.043  12.251  19.381  0.00  0.00    +0.000 A 
ATOM     12  C   UNL     1      -4.851  12.409  20.512  0.00  0.00    +0.000 A 
ATOM     13  C   UNL     1      -4.264  12.655  21.777  0.00  0.00    +0.000 A 
ATOM     14  C   UNL     1      -2.867  12.764  21.943  0.00  0.00    +0.000 A 
ATOM     15  C   UNL     1      -1.617  11.827  18.662  0.00  0.00    +0.000 C 
ATOM     16  O   UNL     1      -1.816  11.509  17.504  0.00  0.00    +0.000 OA
BRANCH  14  17
ATOM     17  C   UNL     1      -2.290  12.966  23.323  0.00  0.00    +0.000 C 
ATOM     18  F   UNL     1      -1.394  12.016  23.693  0.00  0.00    +0.000 F 
ATOM     19  F   UNL     1      -1.627  14.150  23.423  0.00  0.00    +0.000 F 
ATOM     20  F   UNL     1      -3.249  12.989  24.287  0.00  0.00    +0.000 F 
ENDBRANCH  14  17
BRANCH  12  21
ATOM     21  C   UNL     1      -6.270  12.253  20.407  0.00  0.00    +0.000 C 
ATOM     22  N   UNL     1      -7.425  12.123  20.315  0.00  0.00    +0.000 NA
ENDBRANCH  12  21
ENDBRANCH   5   7
BRANCH   1  24
ATOM     23  C   UNL     1       2.482   6.409  19.496  0.00  0.00    +0.000 C 
ATOM     24  C   UNL     1       2.276   7.634  18.982  0.00  0.00    +0.000 C 
BRANCH  23  31
ATOM     25  C   UNL     1       0.825   3.716  20.021  0.00  0.00    +0.000 C 
ATOM     26  N   UNL     1       2.074   3.300  19.438  0.00  0.00    +0.000 N 
ATOM     27  C   UNL     1       2.402   1.997  19.200  0.00  0.00    +0.000 A 
ATOM     28  N   UNL     1       3.600   1.933  18.672  0.00  0.00    +0.000 NA
ATOM     29  N   UNL     1       4.064   3.219  18.562  0.00  0.00    +0.000 NA
ATOM     30  C   UNL     1       3.141   4.050  19.015  0.00  0.00    +0.000 A 
ATOM     31  N   UNL     1       3.292   5.399  19.054  0.00  0.00    +0.000 N 
ATOM     32  H   UNL     1       4.200   5.700  18.709  0.00  0.00    +0.000 HD
ENDBRANCH  23  31
BRANCH  24  33
ATOM     33  C   UNL     1       2.919   8.177  17.738  0.00  0.00    +0.000 C 
BRANCH  33  34
ATOM     34  O   UNL     1       4.152   7.527  17.458  0.00  0.00    +0.000 OA
ATOM     35  H   UNL     1       4.636   8.095  16.837  0.00  0.00    +0.000 HD
ENDBRANCH  33  34
ENDBRANCH  24  33
ENDBRANCH   1  24
TORSDOF 7
ENDMDL
MODEL 7
REMARK VINA RESULT:      -7.4      1.891      2.499
REMARK  Name = 
REMARK  8 active torsions:
REMARK  status: ('A' for Active; 'I' for Inactive)
REMARK    1  A    between atoms: C_1  and  N_2
REMARK    2  A    between atoms: N_7  and  C_8
REMARK    3  A    between atoms: C_9  and  C_10
REMARK    4  A    between atoms: C_9  and  C_12
REMARK    5  A    between atoms: C_10  and  O_11
REMARK    6  A    between atoms: C_16  and  N_17
REMARK    7  A    between atoms: C_22  and  C_23
REMARK    8  A    between atoms: C_26  and  C_27
REMARK                            x       y       z     vdW  Elec       q    Type
REMARK                         _______ _______ _______ _____ _____    ______ ____
ROOT
ATOM      1  C   UNL     1       2.183   6.578  18.670  0.00  0.00    +0.000 A 
ATOM      2  C   UNL     1       1.481   5.972  17.623  0.00  0.00    +0.000 A 
ATOM      3  C   UNL     1       1.329   4.589  17.593  0.00  0.00    +0.000 A 
ATOM      4  C   UNL     1       1.982   3.801  18.533  0.00  0.00    +0.000 A 
ATOM      5  C   UNL     1       2.945   4.395  19.361  0.00  0.00    +0.000 A 
ATOM      6  C   UNL     1       2.894   5.778  19.572  0.00  0.00    +0.000 A 
ENDROOT
BRANCH   5   7
ATOM      7  N   UNL     1       4.246   3.740  19.478  0.00  0.00    +0.000 N 
ATOM      8  C   UNL     1       5.336   4.744  19.366  0.00  0.00    +0.000 C 
ATOM      9  C   UNL     1       5.673   4.695  17.906  0.00  0.00    +0.000 A 
ATOM     10  C   UNL     1       5.312   3.432  17.430  0.00  0.00    +0.000 A 
ATOM     11  C   UNL     1       5.376   3.082  16.094  0.00  0.00    +0.000 A 
ATOM     12  C   UNL     1       5.807   4.064  15.195  0.00  0.00    +0.000 A 
ATOM     13  C   UNL     1       6.158   5.353  15.663  0.00  0.00    +0.000 A 
ATOM     14  C   UNL     1       6.103   5.690  17.032  0.00  0.00    +0.000 A 
ATOM     15  C   UNL     1       4.530   2.758  18.494  0.00  0.00    +0.000 C 
ATOM     16  O   UNL     1       4.073   1.635  18.383  0.00  0.00    +0.000 OA
BRANCH  14  17
ATOM     17  C   UNL     1       6.428   7.097  17.472  0.00  0.00    +0.000 C 
ATOM     18  F   UNL     1       7.325   7.166  18.487  0.00  0.00    +0.000 F 
ATOM     19  F   UNL     1       6.969   7.828  16.458  0.00  0.00    +0.000 F 
ATOM     20  F   UNL     1       5.326   7.780  17.881  0.00  0.00    +0.000 F 
ENDBRANCH  14  17
BRANCH  12  21
ATOM     21  C   UNL     1       5.828   3.790  13.790  0.00  0.00    +0.000 C 
ATOM     22  N   UNL     1       5.852   3.566  12.646  0.00  0.00    +0.000 NA
ENDBRANCH  12  21
ENDBRANCH   5   7
BRANCH   1  24
ATOM     23  C   UNL     1       1.739   8.515  19.981  0.00  0.00    +0.000 C 
ATOM     24  C   UNL     1       2.168   8.046  18.796  0.00  0.00    +0.000 C 
BRANCH  23  31
ATOM     25  C   UNL     1      -0.558   8.346  22.209  0.00  0.00    +0.000 C 
ATOM     26  N   UNL     1      -0.216   9.740  22.104  0.00  0.00    +0.000 N 
ATOM     27  C   UNL     1      -0.809  10.723  22.841  0.00  0.00    +0.000 A 
ATOM     28  N   UNL     1      -0.297  11.886  22.521  0.00  0.00    +0.000 NA
ATOM     29  N   UNL     1       0.652  11.659  21.557  0.00  0.00    +0.000 NA
ATOM     30  C   UNL     1       0.711  10.363  21.308  0.00  0.00    +0.000 A 
ATOM     31  N   UNL     1       1.546   9.805  20.393  0.00  0.00    +0.000 N 
ATOM     32  H   UNL     1       2.111  10.498  19.908  0.00  0.00    +0.000 HD
ENDBRANCH  23  31
BRANCH  24  33
ATOM     33  C   UNL     1       2.560   8.887  17.615  0.00  0.00    +0.000 C 
BRANCH  33  34
ATOM     34  O   UNL     1       1.702  10.010  17.463  0.00  0.00    +0.000 OA
ATOM     35  H   UNL     1       0.937   9.862  18.041  0.00  0.00    +0.000 HD
ENDBRANCH  33  34
ENDBRANCH  24  33
ENDBRANCH   1  24
TORSDOF 7
ENDMDL
MODEL 8
REMARK VINA RESULT:      -7.4      3.590      4.909
REMARK  Name = 
REMARK  8 active torsions:
REMARK  status: ('A' for Active; 'I' for Inactive)
REMARK    1  A    between atoms: C_1  and  N_2
REMARK    2  A    between atoms: N_7  and  C_8
REMARK    3  A    between atoms: C_9  and  C_10
REMARK    4  A    between atoms: C_9  and  C_12
REMARK    5  A    between atoms: C_10  and  O_11
REMARK    6  A    between atoms: C_16  and  N_17
REMARK    7  A    between atoms: C_22  and  C_23
REMARK    8  A    between atoms: C_26  and  C_27
REMARK                            x       y       z     vdW  Elec       q    Type
REMARK                         _______ _______ _______ _____ _____    ______ ____
ROOT
ATOM      1  C   UNL     1       1.642   8.669  18.791  0.00  0.00    +0.000 A 
ATOM      2  C   UNL     1       1.403   8.172  20.077  0.00  0.00    +0.000 A 
ATOM      3  C   UNL     1       2.197   7.151  20.590  0.00  0.00    +0.000 A 
ATOM      4  C   UNL     1       3.143   6.537  19.778  0.00  0.00    +0.000 A 
ATOM      5  C   UNL     1       3.137   6.814  18.404  0.00  0.00    +0.000 A 
ATOM      6  C   UNL     1       2.548   8.003  17.957  0.00  0.00    +0.000 A 
ENDROOT
BRANCH   5   7
ATOM      7  N   UNL     1       3.169   5.685  17.477  0.00  0.00    +0.000 N 
ATOM      8  C   UNL     1       2.032   4.767  17.748  0.00  0.00    +0.000 C 
ATOM      9  C   UNL     1       2.643   3.758  18.674  0.00  0.00    +0.000 A 
ATOM     10  C   UNL     1       4.018   3.735  18.426  0.00  0.00    +0.000 A 
ATOM     11  C   UNL     1       4.910   2.998  19.185  0.00  0.00    +0.000 A 
ATOM     12  C   UNL     1       4.386   2.268  20.258  0.00  0.00    +0.000 A 
ATOM     13  C   UNL     1       2.997   2.299  20.530  0.00  0.00    +0.000 A 
ATOM     14  C   UNL     1       2.098   3.043  19.736  0.00  0.00    +0.000 A 
ATOM     15  C   UNL     1       4.334   4.875  17.534  0.00  0.00    +0.000 C 
ATOM     16  O   UNL     1       5.456   5.124  17.132  0.00  0.00    +0.000 OA
BRANCH  14  17
ATOM     17  C   UNL     1       0.635   3.092  20.107  0.00  0.00    +0.000 C 
ATOM     18  F   UNL     1       0.345   2.502  21.294  0.00  0.00    +0.000 F 
ATOM     19  F   UNL     1       0.188   4.372  20.218  0.00  0.00    +0.000 F 
ATOM     20  F   UNL     1      -0.155   2.496  19.175  0.00  0.00    +0.000 F 
ENDBRANCH  14  17
BRANCH  12  21
ATOM     21  C   UNL     1       5.263   1.542  21.126  0.00  0.00    +0.000 C 
ATOM     22  N   UNL     1       5.972   0.946  21.833  0.00  0.00    +0.000 NA
ENDBRANCH  12  21
ENDBRANCH   5   7
BRANCH   1  24
ATOM     23  C   UNL     1       1.596  11.031  18.504  0.00  0.00    +0.000 C 
ATOM     24  C   UNL     1       0.930   9.875  18.338  0.00  0.00    +0.000 C 
BRANCH  23  31
ATOM     25  C   UNL     1       0.299  12.058  21.248  0.00  0.00    +0.000 C 
ATOM     26  N   UNL     1       0.185  13.156  20.326  0.00  0.00    +0.000 N 
ATOM     27  C   UNL     1      -0.384  14.356  20.643  0.00  0.00    +0.000 A 
ATOM     28  N   UNL     1      -0.350  15.151  19.602  0.00  0.00    +0.000 NA
ATOM     29  N   UNL     1       0.255  14.458  18.583  0.00  0.00    +0.000 NA
ATOM     30  C   UNL     1       0.587  13.255  19.019  0.00  0.00    +0.000 A 
ATOM     31  N   UNL     1       1.197  12.315  18.251  0.00  0.00    +0.000 N 
ATOM     32  H   UNL     1       1.356  12.633  17.299  0.00  0.00    +0.000 HD
ENDBRANCH  23  31
BRANCH  24  33
ATOM     33  C   UNL     1      -0.466   9.744  17.799  0.00  0.00    +0.000 C 
BRANCH  33  34
ATOM     34  O   UNL     1      -1.399  10.488  18.570  0.00  0.00    +0.000 OA
ATOM     35  H   UNL     1      -0.977  10.673  19.424  0.00  0.00    +0.000 HD
ENDBRANCH  33  34
ENDBRANCH  24  33
ENDBRANCH   1  24
TORSDOF 7
ENDMDL
MODEL 9
REMARK VINA RESULT:      -7.4      6.395      8.964
REMARK  Name = 
REMARK  8 active torsions:
REMARK  status: ('A' for Active; 'I' for Inactive)
REMARK    1  A    between atoms: C_1  and  N_2
REMARK    2  A    between atoms: N_7  and  C_8
REMARK    3  A    between atoms: C_9  and  C_10
REMARK    4  A    between atoms: C_9  and  C_12
REMARK    5  A    between atoms: C_10  and  O_11
REMARK    6  A    between atoms: C_16  and  N_17
REMARK    7  A    between atoms: C_22  and  C_23
REMARK    8  A    between atoms: C_26  and  C_27
REMARK                            x       y       z     vdW  Elec       q    Type
REMARK                         _______ _______ _______ _____ _____    ______ ____
ROOT
ATOM      1  C   UNL     1      -4.046  11.258  18.120  0.00  0.00    +0.000 A 
ATOM      2  C   UNL     1      -4.170  11.066  16.740  0.00  0.00    +0.000 A 
ATOM      3  C   UNL     1      -3.190  10.367  16.042  0.00  0.00    +0.000 A 
ATOM      4  C   UNL     1      -2.027   9.972  16.692  0.00  0.00    +0.000 A 
ATOM      5  C   UNL     1      -1.772  10.464  17.979  0.00  0.00    +0.000 A 
ATOM      6  C   UNL     1      -2.846  10.919  18.754  0.00  0.00    +0.000 A 
ENDROOT
BRANCH   5   7
ATOM      7  N   UNL     1      -0.455  11.040  18.244  0.00  0.00    +0.000 N 
ATOM      8  C   UNL     1       0.255  10.241  19.277  0.00  0.00    +0.000 C 
ATOM      9  C   UNL     1      -0.089  10.968  20.542  0.00  0.00    +0.000 A 
ATOM     10  C   UNL     1      -0.373  12.293  20.205  0.00  0.00    +0.000 A 
ATOM     11  C   UNL     1      -0.843  13.221  21.118  0.00  0.00    +0.000 A 
ATOM     12  C   UNL     1      -1.055  12.778  22.428  0.00  0.00    +0.000 A 
ATOM     13  C   UNL     1      -0.789  11.432  22.777  0.00  0.00    +0.000 A 
ATOM     14  C   UNL     1      -0.294  10.502  21.838  0.00  0.00    +0.000 A 
ATOM     15  C   UNL     1      -0.454  12.375  18.728  0.00  0.00    +0.000 C 
ATOM     16  O   UNL     1      -0.686  13.405  18.122  0.00  0.00    +0.000 OA
BRANCH  14  17
ATOM     17  C   UNL     1      -0.086   9.064  22.246  0.00  0.00    +0.000 C 
ATOM     18  F   UNL     1       1.161   8.592  21.995  0.00  0.00    +0.000 F 
ATOM     19  F   UNL     1      -0.279   8.887  23.582  0.00  0.00    +0.000 F 
ATOM     20  F   UNL     1      -0.952   8.219  21.625  0.00  0.00    +0.000 F 
ENDBRANCH  14  17
BRANCH  12  21
ATOM     21  C   UNL     1      -1.608  13.667  23.404  0.00  0.00    +0.000 C 
ATOM     22  N   UNL     1      -2.053  14.392  24.202  0.00  0.00    +0.000 NA
ENDBRANCH  12  21
ENDBRANCH   5   7
BRANCH   1  24
ATOM     23  C   UNL     1      -4.864  12.337  20.078  0.00  0.00    +0.000 C 
ATOM     24  C   UNL     1      -5.178  11.823  18.876  0.00  0.00    +0.000 C 
BRANCH  23  31
ATOM     25  C   UNL     1      -3.631  15.228  20.706  0.00  0.00    +0.000 C 
ATOM     26  N   UNL     1      -4.774  15.093  21.570  0.00  0.00    +0.000 N 
ATOM     27  C   UNL     1      -5.174  16.054  22.453  0.00  0.00    +0.000 A 
ATOM     28  N   UNL     1      -6.236  15.644  23.102  0.00  0.00    +0.000 NA
ATOM     29  N   UNL     1      -6.539  14.391  22.633  0.00  0.00    +0.000 NA
ATOM     30  C   UNL     1      -5.663  14.057  21.701  0.00  0.00    +0.000 A 
ATOM     31  N   UNL     1      -5.677  12.870  21.040  0.00  0.00    +0.000 N 
ATOM     32  H   UNL     1      -6.427  12.259  21.353  0.00  0.00    +0.000 HD
ENDBRANCH  23  31
BRANCH  24  33
ATOM     33  C   UNL     1      -6.562  11.731  18.301  0.00  0.00    +0.000 C 
BRANCH  33  34
ATOM     34  O   UNL     1      -7.169  10.479  18.590  0.00  0.00    +0.000 OA
ATOM     35  H   UNL     1      -7.450  10.099  17.742  0.00  0.00    +0.000 HD
ENDBRANCH  33  34
ENDBRANCH  24  33
ENDBRANCH   1  24
TORSDOF 7
ENDMDL
