MODEL 1
REMARK VINA RESULT:      -9.0      0.000      0.000
REMARK  Name = 
REMARK  4 active torsions:
REMARK  status: ('A' for Active; 'I' for Inactive)
REMARK    1  A    between atoms: C_1  and  N_2
REMARK    2  A    between atoms: C_9  and  C_10
REMARK    3  A    between atoms: C_14  and  C_15
REMARK    4  A    between atoms: C_19  and  O_20
REMARK                            x       y       z     vdW  Elec       q    Type
REMARK                         _______ _______ _______ _____ _____    ______ ____
ROOT
ATOM      1  C   UNL     1       2.093   6.168  19.967  0.00  0.00    +0.000 A 
ATOM      2  C   UNL     1       1.639   5.281  20.964  0.00  0.00    +0.000 A 
ATOM      3  C   UNL     1       1.966   3.926  20.944  0.00  0.00    +0.000 A 
ATOM      4  C   UNL     1       2.787   3.429  19.941  0.00  0.00    +0.000 A 
ATOM      5  C   UNL     1       3.351   4.297  19.003  0.00  0.00    +0.000 A 
ATOM      6  C   UNL     1       2.964   5.646  18.989  0.00  0.00    +0.000 A 
ENDROOT
BRANCH   1  15
ATOM      7  C   UNL     1      -0.356   9.993  23.236  0.00  0.00    +0.000 C 
ATOM      8  N   UNL     1       0.040  10.342  21.903  0.00  0.00    +0.000 N 
ATOM      9  C   UNL     1      -0.087  11.610  21.306  0.00  0.00    +0.000 A 
ATOM     10  O   UNL     1      -0.569  12.619  21.793  0.00  0.00    +0.000 OA
ATOM     11  N   UNL     1       0.458  11.504  20.020  0.00  0.00    +0.000 N 
ATOM     12  C   UNL     1       0.918  10.213  19.829  0.00  0.00    +0.000 A 
ATOM     13  N   UNL     1       1.518   9.739  18.738  0.00  0.00    +0.000 NA
ATOM     14  C   UNL     1       1.878   8.428  18.838  0.00  0.00    +0.000 A 
ATOM     15  C   UNL     1       1.664   7.586  19.957  0.00  0.00    +0.000 A 
ATOM     16  C   UNL     1       1.016   8.164  21.068  0.00  0.00    +0.000 A 
ATOM     17  C   UNL     1       0.658   9.490  20.985  0.00  0.00    +0.000 A 
ATOM     18  H   UNL     1       0.517  12.244  19.344  0.00  0.00    +0.000 HD
ENDBRANCH   1  15
BRANCH   5  19
ATOM     19  C   UNL     1       4.358   3.832  18.007  0.00  0.00    +0.000 C 
ATOM     20  O   UNL     1       4.100   2.837  17.336  0.00  0.00    +0.000 OA
ATOM     21  N   UNL     1       5.513   4.578  17.832  0.00  0.00    +0.000 N 
ATOM     22  C   UNL     1       6.563   4.169  16.901  0.00  0.00    +0.000 C 
ATOM     23  C   UNL     1       7.222   5.487  16.471  0.00  0.00    +0.000 C 
ATOM     24  C   UNL     1       6.973   6.399  17.647  0.00  0.00    +0.000 C 
ATOM     25  C   UNL     1       8.130   7.056  18.373  0.00  0.00    +0.000 C 
ATOM     26  C   UNL     1       7.186   7.896  17.563  0.00  0.00    +0.000 C 
ATOM     27  C   UNL     1       5.817   5.864  18.437  0.00  0.00    +0.000 C 
BRANCH  23  28
ATOM     28  O   UNL     1       6.563   6.029  15.328  0.00  0.00    +0.000 OA
ATOM     29  H   UNL     1       7.250   6.458  14.787  0.00  0.00    +0.000 HD
ENDBRANCH  23  28
ENDBRANCH   5  19
TORSDOF 3
ENDMDL
MODEL 2
REMARK VINA RESULT:      -8.7      2.413      8.729
REMARK  Name = 
REMARK  4 active torsions:
REMARK  status: ('A' for Active; 'I' for Inactive)
REMARK    1  A    between atoms: C_1  and  N_2
REMARK    2  A    between atoms: C_9  and  C_10
REMARK    3  A    between atoms: C_14  and  C_15
REMARK    4  A    between atoms: C_19  and  O_20
REMARK                            x       y       z     vdW  Elec       q    Type
REMARK                         _______ _______ _______ _____ _____    ______ ____
ROOT
ATOM      1  C   UNL     1       2.233   7.930  18.739  0.00  0.00    +0.000 A 
ATOM      2  C   UNL     1       2.184   8.948  17.765  0.00  0.00    +0.000 A 
ATOM      3  C   UNL     1       1.546  10.164  18.005  0.00  0.00    +0.000 A 
ATOM      4  C   UNL     1       0.968  10.406  19.244  0.00  0.00    +0.000 A 
ATOM      5  C   UNL     1       1.096   9.470  20.272  0.00  0.00    +0.000 A 
ATOM      6  C   UNL     1       1.680   8.223  20.002  0.00  0.00    +0.000 A 
ENDROOT
BRANCH   1  15
ATOM      7  C   UNL     1       1.659   2.496  19.940  0.00  0.00    +0.000 C 
ATOM      8  N   UNL     1       2.708   2.926  19.064  0.00  0.00    +0.000 N 
ATOM      9  C   UNL     1       3.632   2.092  18.407  0.00  0.00    +0.000 A 
ATOM     10  O   UNL     1       3.725   0.877  18.479  0.00  0.00    +0.000 OA
ATOM     11  N   UNL     1       4.446   2.928  17.632  0.00  0.00    +0.000 N 
ATOM     12  C   UNL     1       4.032   4.238  17.794  0.00  0.00    +0.000 A 
ATOM     13  N   UNL     1       4.551   5.312  17.201  0.00  0.00    +0.000 NA
ATOM     14  C   UNL     1       3.930   6.477  17.540  0.00  0.00    +0.000 A 
ATOM     15  C   UNL     1       2.838   6.614  18.434  0.00  0.00    +0.000 A 
ATOM     16  C   UNL     1       2.355   5.429  19.024  0.00  0.00    +0.000 A 
ATOM     17  C   UNL     1       2.964   4.244  18.682  0.00  0.00    +0.000 A 
ATOM     18  H   UNL     1       5.202   2.630  17.043  0.00  0.00    +0.000 HD
ENDBRANCH   1  15
BRANCH   5  19
ATOM     19  C   UNL     1       0.628   9.755  21.658  0.00  0.00    +0.000 C 
ATOM     20  O   UNL     1       1.240   9.253  22.596  0.00  0.00    +0.000 OA
ATOM     21  N   UNL     1      -0.435  10.628  21.834  0.00  0.00    +0.000 N 
ATOM     22  C   UNL     1      -0.974  10.930  23.159  0.00  0.00    +0.000 C 
ATOM     23  C   UNL     1      -1.546  12.348  23.020  0.00  0.00    +0.000 C 
ATOM     24  C   UNL     1      -1.888  12.441  21.554  0.00  0.00    +0.000 C 
ATOM     25  C   UNL     1      -3.304  12.755  21.110  0.00  0.00    +0.000 C 
ATOM     26  C   UNL     1      -2.213  13.761  20.886  0.00  0.00    +0.000 C 
ATOM     27  C   UNL     1      -1.094  11.414  20.805  0.00  0.00    +0.000 C 
BRANCH  23  28
ATOM     28  O   UNL     1      -0.549  13.323  23.317  0.00  0.00    +0.000 OA
ATOM     29  H   UNL     1      -0.948  13.947  23.949  0.00  0.00    +0.000 HD
ENDBRANCH  23  28
ENDBRANCH   5  19
TORSDOF 3
ENDMDL
MODEL 3
REMARK VINA RESULT:      -8.6      0.981      1.103
REMARK  Name = 
REMARK  4 active torsions:
REMARK  status: ('A' for Active; 'I' for Inactive)
REMARK    1  A    between atoms: C_1  and  N_2
REMARK    2  A    between atoms: C_9  and  C_10
REMARK    3  A    between atoms: C_14  and  C_15
REMARK    4  A    between atoms: C_19  and  O_20
REMARK                            x       y       z     vdW  Elec       q    Type
REMARK                         _______ _______ _______ _____ _____    ______ ____
ROOT
ATOM      1  C   UNL     1       1.805   7.074  19.634  0.00  0.00    +0.000 A 
ATOM      2  C   UNL     1       1.359   6.308  20.729  0.00  0.00    +0.000 A 
ATOM      3  C   UNL     1       1.560   4.930  20.791  0.00  0.00    +0.000 A 
ATOM      4  C   UNL     1       2.248   4.287  19.770  0.00  0.00    +0.000 A 
ATOM      5  C   UNL     1       2.807   5.028  18.727  0.00  0.00    +0.000 A 
ATOM      6  C   UNL     1       2.542   6.403  18.637  0.00  0.00    +0.000 A 
ENDROOT
BRANCH   1  15
ATOM      7  C   UNL     1      -0.637  11.193  22.528  0.00  0.00    +0.000 C 
ATOM      8  N   UNL     1      -0.072  11.465  21.239  0.00  0.00    +0.000 N 
ATOM      9  C   UNL     1      -0.024  12.720  20.604  0.00  0.00    +0.000 A 
ATOM     10  O   UNL     1      -0.466  13.781  21.013  0.00  0.00    +0.000 OA
ATOM     11  N   UNL     1       0.644  12.528  19.387  0.00  0.00    +0.000 N 
ATOM     12  C   UNL     1       1.008  11.197  19.277  0.00  0.00    +0.000 A 
ATOM     13  N   UNL     1       1.678  10.640  18.269  0.00  0.00    +0.000 NA
ATOM     14  C   UNL     1       1.909   9.307  18.438  0.00  0.00    +0.000 A 
ATOM     15  C   UNL     1       1.504   8.522  19.545  0.00  0.00    +0.000 A 
ATOM     16  C   UNL     1       0.795   9.188  20.565  0.00  0.00    +0.000 A 
ATOM     17  C   UNL     1       0.563  10.535  20.414  0.00  0.00    +0.000 A 
ATOM     18  H   UNL     1       0.839  13.238  18.706  0.00  0.00    +0.000 HD
ENDBRANCH   1  15
BRANCH   5  19
ATOM     19  C   UNL     1       3.683   4.400  17.697  0.00  0.00    +0.000 C 
ATOM     20  O   UNL     1       3.153   3.775  16.783  0.00  0.00    +0.000 OA
ATOM     21  N   UNL     1       5.051   4.602  17.776  0.00  0.00    +0.000 N 
ATOM     22  C   UNL     1       5.978   3.990  16.825  0.00  0.00    +0.000 C 
ATOM     23  C   UNL     1       7.167   4.961  16.779  0.00  0.00    +0.000 C 
ATOM     24  C   UNL     1       7.128   5.622  18.134  0.00  0.00    +0.000 C 
ATOM     25  C   UNL     1       8.326   5.554  19.061  0.00  0.00    +0.000 C 
ATOM     26  C   UNL     1       7.933   6.866  18.446  0.00  0.00    +0.000 C 
ATOM     27  C   UNL     1       5.749   5.476  18.703  0.00  0.00    +0.000 C 
BRANCH  23  28
ATOM     28  O   UNL     1       6.963   5.958  15.781  0.00  0.00    +0.000 OA
ATOM     29  H   UNL     1       7.837   6.342  15.586  0.00  0.00    +0.000 HD
ENDBRANCH  23  28
ENDBRANCH   5  19
TORSDOF 3
ENDMDL
MODEL 4
REMARK VINA RESULT:      -8.6      2.761      8.438
REMARK  Name = 
REMARK  4 active torsions:
REMARK  status: ('A' for Active; 'I' for Inactive)
REMARK    1  A    between atoms: C_1  and  N_2
REMARK    2  A    between atoms: C_9  and  C_10
REMARK    3  A    between atoms: C_14  and  C_15
REMARK    4  A    between atoms: C_19  and  O_20
REMARK                            x       y       z     vdW  Elec       q    Type
REMARK                         _______ _______ _______ _____ _____    ______ ____
ROOT
ATOM      1  C   UNL     1       2.201   7.389  19.316  0.00  0.00    +0.000 A 
ATOM      2  C   UNL     1       1.689   7.049  20.583  0.00  0.00    +0.000 A 
ATOM      3  C   UNL     1       0.935   7.948  21.336  0.00  0.00    +0.000 A 
ATOM      4  C   UNL     1       0.644   9.204  20.822  0.00  0.00    +0.000 A 
ATOM      5  C   UNL     1       1.035   9.536  19.523  0.00  0.00    +0.000 A 
ATOM      6  C   UNL     1       1.850   8.653  18.798  0.00  0.00    +0.000 A 
ENDROOT
BRANCH   1  15
ATOM      7  C   UNL     1       7.392   6.972  17.269  0.00  0.00    +0.000 C 
ATOM      8  N   UNL     1       6.463   5.896  17.082  0.00  0.00    +0.000 N 
ATOM      9  C   UNL     1       6.732   4.670  16.446  0.00  0.00    +0.000 A 
ATOM     10  O   UNL     1       7.776   4.313  15.925  0.00  0.00    +0.000 OA
ATOM     11  N   UNL     1       5.556   3.912  16.523  0.00  0.00    +0.000 N 
ATOM     12  C   UNL     1       4.592   4.641  17.196  0.00  0.00    +0.000 A 
ATOM     13  N   UNL     1       3.354   4.242  17.482  0.00  0.00    +0.000 NA
ATOM     14  C   UNL     1       2.626   5.168  18.170  0.00  0.00    +0.000 A 
ATOM     15  C   UNL     1       3.072   6.452  18.570  0.00  0.00    +0.000 A 
ATOM     16  C   UNL     1       4.394   6.798  18.222  0.00  0.00    +0.000 A 
ATOM     17  C   UNL     1       5.144   5.869  17.538  0.00  0.00    +0.000 A 
ATOM     18  H   UNL     1       5.431   2.985  16.160  0.00  0.00    +0.000 HD
ENDBRANCH   1  15
BRANCH   5  19
ATOM     19  C   UNL     1       0.610  10.811  18.876  0.00  0.00    +0.000 C 
ATOM     20  O   UNL     1       1.469  11.649  18.618  0.00  0.00    +0.000 OA
ATOM     21  N   UNL     1      -0.723  10.970  18.533  0.00  0.00    +0.000 N 
ATOM     22  C   UNL     1      -1.222  12.204  17.928  0.00  0.00    +0.000 C 
ATOM     23  C   UNL     1      -2.424  11.752  17.086  0.00  0.00    +0.000 C 
ATOM     24  C   UNL     1      -2.896  10.507  17.794  0.00  0.00    +0.000 C 
ATOM     25  C   UNL     1      -4.317  10.405  18.314  0.00  0.00    +0.000 C 
ATOM     26  C   UNL     1      -3.881   9.546  17.163  0.00  0.00    +0.000 C 
ATOM     27  C   UNL     1      -1.770   9.966  18.623  0.00  0.00    +0.000 C 
BRANCH  23  28
ATOM     28  O   UNL     1      -2.010  11.397  15.769  0.00  0.00    +0.000 OA
ATOM     29  H   UNL     1      -1.196  11.900  15.587  0.00  0.00    +0.000 HD
ENDBRANCH  23  28
ENDBRANCH   5  19
TORSDOF 3
ENDMDL
MODEL 5
REMARK VINA RESULT:      -8.5      2.069      3.690
REMARK  Name = 
REMARK  4 active torsions:
REMARK  status: ('A' for Active; 'I' for Inactive)
REMARK    1  A    between atoms: C_1  and  N_2
REMARK    2  A    between atoms: C_9  and  C_10
REMARK    3  A    between atoms: C_14  and  C_15
REMARK    4  A    between atoms: C_19  and  O_20
REMARK                            x       y       z     vdW  Elec       q    Type
REMARK                         _______ _______ _______ _____ _____    ______ ____
ROOT
ATOM      1  C   UNL     1       0.936   9.242  19.896  0.00  0.00    +0.000 A 
ATOM      2  C   UNL     1       0.999   9.701  18.565  0.00  0.00    +0.000 A 
ATOM      3  C   UNL     1       1.786   9.067  17.606  0.00  0.00    +0.000 A 
ATOM      4  C   UNL     1       2.506   7.930  17.947  0.00  0.00    +0.000 A 
ATOM      5  C   UNL     1       2.379   7.377  19.223  0.00  0.00    +0.000 A 
ATOM      6  C   UNL     1       1.639   8.059  20.201  0.00  0.00    +0.000 A 
ENDROOT
BRANCH   1  15
ATOM      7  C   UNL     1      -3.032  13.159  20.364  0.00  0.00    +0.000 C 
ATOM      8  N   UNL     1      -2.455  12.583  21.543  0.00  0.00    +0.000 N 
ATOM      9  C   UNL     1      -2.819  12.876  22.871  0.00  0.00    +0.000 A 
ATOM     10  O   UNL     1      -3.657  13.675  23.256  0.00  0.00    +0.000 OA
ATOM     11  N   UNL     1      -2.028  12.062  23.692  0.00  0.00    +0.000 N 
ATOM     12  C   UNL     1      -1.207  11.281  22.897  0.00  0.00    +0.000 A 
ATOM     13  N   UNL     1      -0.332  10.369  23.319  0.00  0.00    +0.000 NA
ATOM     14  C   UNL     1       0.331   9.740  22.307  0.00  0.00    +0.000 A 
ATOM     15  C   UNL     1       0.164   9.981  20.921  0.00  0.00    +0.000 A 
ATOM     16  C   UNL     1      -0.777  10.967  20.561  0.00  0.00    +0.000 A 
ATOM     17  C   UNL     1      -1.462  11.602  21.571  0.00  0.00    +0.000 A 
ATOM     18  H   UNL     1      -2.054  12.038  24.695  0.00  0.00    +0.000 HD
ENDBRANCH   1  15
BRANCH   5  19
ATOM     19  C   UNL     1       3.009   6.075  19.582  0.00  0.00    +0.000 C 
ATOM     20  O   UNL     1       2.457   5.370  20.423  0.00  0.00    +0.000 OA
ATOM     21  N   UNL     1       4.154   5.682  18.906  0.00  0.00    +0.000 N 
ATOM     22  C   UNL     1       4.850   4.436  19.226  0.00  0.00    +0.000 C 
ATOM     23  C   UNL     1       5.521   4.030  17.906  0.00  0.00    +0.000 C 
ATOM     24  C   UNL     1       5.718   5.346  17.197  0.00  0.00    +0.000 C 
ATOM     25  C   UNL     1       7.101   5.792  16.766  0.00  0.00    +0.000 C 
ATOM     26  C   UNL     1       6.081   5.422  15.729  0.00  0.00    +0.000 C 
ATOM     27  C   UNL     1       4.767   6.352  17.772  0.00  0.00    +0.000 C 
BRANCH  23  28
ATOM     28  O   UNL     1       4.646   3.219  17.126  0.00  0.00    +0.000 OA
ATOM     29  H   UNL     1       3.738   3.502  17.339  0.00  0.00    +0.000 HD
ENDBRANCH  23  28
ENDBRANCH   5  19
TORSDOF 3
ENDMDL
MODEL 6
REMARK VINA RESULT:      -8.4      2.854      8.418
REMARK  Name = 
REMARK  4 active torsions:
REMARK  status: ('A' for Active; 'I' for Inactive)
REMARK    1  A    between atoms: C_1  and  N_2
REMARK    2  A    between atoms: C_9  and  C_10
REMARK    3  A    between atoms: C_14  and  C_15
REMARK    4  A    between atoms: C_19  and  O_20
REMARK                            x       y       z     vdW  Elec       q    Type
REMARK                         _______ _______ _______ _____ _____    ______ ____
ROOT
ATOM      1  C   UNL     1       1.939   7.654  19.887  0.00  0.00    +0.000 A 
ATOM      2  C   UNL     1       1.541   7.612  21.238  0.00  0.00    +0.000 A 
ATOM      3  C   UNL     1       0.934   8.703  21.859  0.00  0.00    +0.000 A 
ATOM      4  C   UNL     1       0.678   9.856  21.129  0.00  0.00    +0.000 A 
ATOM      5  C   UNL     1       0.952   9.895  19.761  0.00  0.00    +0.000 A 
ATOM      6  C   UNL     1       1.623   8.820  19.160  0.00  0.00    +0.000 A 
ENDROOT
BRANCH   1  15
ATOM      7  C   UNL     1       5.259   6.448  15.548  0.00  0.00    +0.000 C 
ATOM      8  N   UNL     1       4.874   5.412  16.461  0.00  0.00    +0.000 N 
ATOM      9  C   UNL     1       5.288   4.069  16.411  0.00  0.00    +0.000 A 
ATOM     10  O   UNL     1       6.016   3.542  15.585  0.00  0.00    +0.000 OA
ATOM     11  N   UNL     1       4.702   3.428  17.510  0.00  0.00    +0.000 N 
ATOM     12  C   UNL     1       3.958   4.349  18.226  0.00  0.00    +0.000 A 
ATOM     13  N   UNL     1       3.274   4.116  19.345  0.00  0.00    +0.000 NA
ATOM     14  C   UNL     1       2.643   5.219  19.839  0.00  0.00    +0.000 A 
ATOM     15  C   UNL     1       2.661   6.517  19.271  0.00  0.00    +0.000 A 
ATOM     16  C   UNL     1       3.403   6.676  18.084  0.00  0.00    +0.000 A 
ATOM     17  C   UNL     1       4.055   5.574  17.579  0.00  0.00    +0.000 A 
ATOM     18  H   UNL     1       4.810   2.459  17.751  0.00  0.00    +0.000 HD
ENDBRANCH   1  15
BRANCH   5  19
ATOM     19  C   UNL     1       0.550  11.052  18.911  0.00  0.00    +0.000 C 
ATOM     20  O   UNL     1       1.422  11.832  18.536  0.00  0.00    +0.000 OA
ATOM     21  N   UNL     1      -0.776  11.164  18.524  0.00  0.00    +0.000 N 
ATOM     22  C   UNL     1      -1.253  12.289  17.721  0.00  0.00    +0.000 C 
ATOM     23  C   UNL     1      -2.446  11.717  16.942  0.00  0.00    +0.000 C 
ATOM     24  C   UNL     1      -2.942  10.605  17.832  0.00  0.00    +0.000 C 
ATOM     25  C   UNL     1      -4.371  10.599  18.338  0.00  0.00    +0.000 C 
ATOM     26  C   UNL     1      -3.927   9.563  17.346  0.00  0.00    +0.000 C 
ATOM     27  C   UNL     1      -1.834  10.196  18.756  0.00  0.00    +0.000 C 
BRANCH  23  28
ATOM     28  O   UNL     1      -2.015  11.151  15.706  0.00  0.00    +0.000 OA
ATOM     29  H   UNL     1      -2.109  10.186  15.793  0.00  0.00    +0.000 HD
ENDBRANCH  23  28
ENDBRANCH   5  19
TORSDOF 3
ENDMDL
MODEL 7
REMARK VINA RESULT:      -8.4      1.824      8.848
REMARK  Name = 
REMARK  4 active torsions:
REMARK  status: ('A' for Active; 'I' for Inactive)
REMARK    1  A    between atoms: C_1  and  N_2
REMARK    2  A    between atoms: C_9  and  C_10
REMARK    3  A    between atoms: C_14  and  C_15
REMARK    4  A    between atoms: C_19  and  O_20
REMARK                            x       y       z     vdW  Elec       q    Type
REMARK                         _______ _______ _______ _____ _____    ______ ____
ROOT
ATOM      1  C   UNL     1       2.225   7.903  18.855  0.00  0.00    +0.000 A 
ATOM      2  C   UNL     1       1.784   8.668  17.757  0.00  0.00    +0.000 A 
ATOM      3  C   UNL     1       0.792   9.639  17.891  0.00  0.00    +0.000 A 
ATOM      4  C   UNL     1       0.240   9.893  19.139  0.00  0.00    +0.000 A 
ATOM      5  C   UNL     1       0.732   9.238  20.269  0.00  0.00    +0.000 A 
ATOM      6  C   UNL     1       1.681   8.216  20.117  0.00  0.00    +0.000 A 
ENDROOT
BRANCH   1  15
ATOM      7  C   UNL     1       7.459   7.042  17.075  0.00  0.00    +0.000 C 
ATOM      8  N   UNL     1       6.672   5.936  17.535  0.00  0.00    +0.000 N 
ATOM      9  C   UNL     1       7.099   4.599  17.633  0.00  0.00    +0.000 A 
ATOM     10  O   UNL     1       8.186   4.139  17.328  0.00  0.00    +0.000 OA
ATOM     11  N   UNL     1       6.024   3.873  18.162  0.00  0.00    +0.000 N 
ATOM     12  C   UNL     1       4.967   4.736  18.395  0.00  0.00    +0.000 A 
ATOM     13  N   UNL     1       3.782   4.415  18.912  0.00  0.00    +0.000 NA
ATOM     14  C   UNL     1       2.937   5.476  19.041  0.00  0.00    +0.000 A 
ATOM     15  C   UNL     1       3.216   6.817  18.676  0.00  0.00    +0.000 A 
ATOM     16  C   UNL     1       4.491   7.069  18.129  0.00  0.00    +0.000 A 
ATOM     17  C   UNL     1       5.359   6.009  18.004  0.00  0.00    +0.000 A 
ATOM     18  H   UNL     1       6.018   2.888  18.352  0.00  0.00    +0.000 HD
ENDBRANCH   1  15
BRANCH   5  19
ATOM     19  C   UNL     1       0.277   9.593  21.644  0.00  0.00    +0.000 C 
ATOM     20  O   UNL     1       0.791   9.013  22.597  0.00  0.00    +0.000 OA
ATOM     21  N   UNL     1      -0.656  10.606  21.795  0.00  0.00    +0.000 N 
ATOM     22  C   UNL     1      -1.178  10.987  23.106  0.00  0.00    +0.000 C 
ATOM     23  C   UNL     1      -1.542  12.470  22.952  0.00  0.00    +0.000 C 
ATOM     24  C   UNL     1      -1.835  12.604  21.479  0.00  0.00    +0.000 C 
ATOM     25  C   UNL     1      -3.182  13.111  21.002  0.00  0.00    +0.000 C 
ATOM     26  C   UNL     1      -1.956  13.953  20.802  0.00  0.00    +0.000 C 
ATOM     27  C   UNL     1      -1.175  11.472  20.750  0.00  0.00    +0.000 C 
BRANCH  23  28
ATOM     28  O   UNL     1      -0.425  13.297  23.270  0.00  0.00    +0.000 OA
ATOM     29  H   UNL     1      -0.557  13.606  24.185  0.00  0.00    +0.000 HD
ENDBRANCH  23  28
ENDBRANCH   5  19
TORSDOF 3
ENDMDL
MODEL 8
REMARK VINA RESULT:      -8.3      2.132      8.276
REMARK  Name = 
REMARK  4 active torsions:
REMARK  status: ('A' for Active; 'I' for Inactive)
REMARK    1  A    between atoms: C_1  and  N_2
REMARK    2  A    between atoms: C_9  and  C_10
REMARK    3  A    between atoms: C_14  and  C_15
REMARK    4  A    between atoms: C_19  and  O_20
REMARK                            x       y       z     vdW  Elec       q    Type
REMARK                         _______ _______ _______ _____ _____    ______ ____
ROOT
ATOM      1  C   UNL     1       2.139   7.528  19.220  0.00  0.00    +0.000 A 
ATOM      2  C   UNL     1       1.860   7.348  20.589  0.00  0.00    +0.000 A 
ATOM      3  C   UNL     1       1.081   8.256  21.305  0.00  0.00    +0.000 A 
ATOM      4  C   UNL     1       0.531   9.354  20.656  0.00  0.00    +0.000 A 
ATOM      5  C   UNL     1       0.688   9.504  19.277  0.00  0.00    +0.000 A 
ATOM      6  C   UNL     1       1.528   8.624  18.577  0.00  0.00    +0.000 A 
ENDROOT
BRANCH   1  15
ATOM      7  C   UNL     1       7.407   7.134  17.376  0.00  0.00    +0.000 C 
ATOM      8  N   UNL     1       6.487   6.060  17.140  0.00  0.00    +0.000 N 
ATOM      9  C   UNL     1       6.782   4.842  16.502  0.00  0.00    +0.000 A 
ATOM     10  O   UNL     1       7.846   4.491  16.019  0.00  0.00    +0.000 OA
ATOM     11  N   UNL     1       5.605   4.083  16.524  0.00  0.00    +0.000 N 
ATOM     12  C   UNL     1       4.614   4.804  17.166  0.00  0.00    +0.000 A 
ATOM     13  N   UNL     1       3.366   4.402  17.399  0.00  0.00    +0.000 NA
ATOM     14  C   UNL     1       2.611   5.320  18.067  0.00  0.00    +0.000 A 
ATOM     15  C   UNL     1       3.040   6.599  18.499  0.00  0.00    +0.000 A 
ATOM     16  C   UNL     1       4.374   6.949  18.207  0.00  0.00    +0.000 A 
ATOM     17  C   UNL     1       5.151   6.028  17.544  0.00  0.00    +0.000 A 
ATOM     18  H   UNL     1       5.494   3.160  16.146  0.00  0.00    +0.000 HD
ENDBRANCH   1  15
BRANCH   5  19
ATOM     19  C   UNL     1      -0.013  10.578  18.518  0.00  0.00    +0.000 C 
ATOM     20  O   UNL     1      -0.876  10.253  17.708  0.00  0.00    +0.000 OA
ATOM     21  N   UNL     1       0.289  11.900  18.805  0.00  0.00    +0.000 N 
ATOM     22  C   UNL     1      -0.329  13.008  18.079  0.00  0.00    +0.000 C 
ATOM     23  C   UNL     1      -0.329  14.166  19.087  0.00  0.00    +0.000 C 
ATOM     24  C   UNL     1       0.841  13.846  19.983  0.00  0.00    +0.000 C 
ATOM     25  C   UNL     1       1.978  14.835  20.152  0.00  0.00    +0.000 C 
ATOM     26  C   UNL     1       1.059  14.552  21.305  0.00  0.00    +0.000 C 
ATOM     27  C   UNL     1       1.149  12.384  19.871  0.00  0.00    +0.000 C 
BRANCH  23  28
ATOM     28  O   UNL     1      -1.520  14.151  19.870  0.00  0.00    +0.000 OA
ATOM     29  H   UNL     1      -1.369  14.754  20.621  0.00  0.00    +0.000 HD
ENDBRANCH  23  28
ENDBRANCH   5  19
TORSDOF 3
ENDMDL
MODEL 9
REMARK VINA RESULT:      -8.3      2.235      3.965
REMARK  Name = 
REMARK  4 active torsions:
REMARK  status: ('A' for Active; 'I' for Inactive)
REMARK    1  A    between atoms: C_1  and  N_2
REMARK    2  A    between atoms: C_9  and  C_10
REMARK    3  A    between atoms: C_14  and  C_15
REMARK    4  A    between atoms: C_19  and  O_20
REMARK                            x       y       z     vdW  Elec       q    Type
REMARK                         _______ _______ _______ _____ _____    ______ ____
ROOT
ATOM      1  C   UNL     1       1.058   9.332  19.995  0.00  0.00    +0.000 A 
ATOM      2  C   UNL     1       1.292   9.729  18.663  0.00  0.00    +0.000 A 
ATOM      3  C   UNL     1       2.016   8.932  17.777  0.00  0.00    +0.000 A 
ATOM      4  C   UNL     1       2.496   7.698  18.193  0.00  0.00    +0.000 A 
ATOM      5  C   UNL     1       2.185   7.220  19.467  0.00  0.00    +0.000 A 
ATOM      6  C   UNL     1       1.515   8.054  20.375  0.00  0.00    +0.000 A 
ENDROOT
BRANCH   1  15
ATOM      7  C   UNL     1      -1.402  14.352  20.225  0.00  0.00    +0.000 C 
ATOM      8  N   UNL     1      -1.326  13.541  21.405  0.00  0.00    +0.000 N 
ATOM      9  C   UNL     1      -1.860  13.861  22.666  0.00  0.00    +0.000 A 
ATOM     10  O   UNL     1      -2.453  14.877  22.990  0.00  0.00    +0.000 OA
ATOM     11  N   UNL     1      -1.585  12.773  23.505  0.00  0.00    +0.000 N 
ATOM     12  C   UNL     1      -0.911  11.804  22.783  0.00  0.00    +0.000 A 
ATOM     13  N   UNL     1      -0.501  10.620  23.235  0.00  0.00    +0.000 NA
ATOM     14  C   UNL     1       0.126   9.862  22.292  0.00  0.00    +0.000 A 
ATOM     15  C   UNL     1       0.363  10.231  20.945  0.00  0.00    +0.000 A 
ATOM     16  C   UNL     1      -0.097  11.503  20.549  0.00  0.00    +0.000 A 
ATOM     17  C   UNL     1      -0.743  12.275  21.487  0.00  0.00    +0.000 A 
ATOM     18  H   UNL     1      -1.842  12.698  24.473  0.00  0.00    +0.000 HD
ENDBRANCH   1  15
BRANCH   5  19
ATOM     19  C   UNL     1       2.546   5.839  19.899  0.00  0.00    +0.000 C 
ATOM     20  O   UNL     1       1.924   5.336  20.830  0.00  0.00    +0.000 OA
ATOM     21  N   UNL     1       3.522   5.155  19.191  0.00  0.00    +0.000 N 
ATOM     22  C   UNL     1       3.956   3.813  19.574  0.00  0.00    +0.000 C 
ATOM     23  C   UNL     1       4.417   3.175  18.255  0.00  0.00    +0.000 C 
ATOM     24  C   UNL     1       4.836   4.360  17.423  0.00  0.00    +0.000 C 
ATOM     25  C   UNL     1       6.245   4.457  16.871  0.00  0.00    +0.000 C 
ATOM     26  C   UNL     1       5.090   4.250  15.935  0.00  0.00    +0.000 C 
ATOM     27  C   UNL     1       4.174   5.590  17.967  0.00  0.00    +0.000 C 
BRANCH  23  28
ATOM     28  O   UNL     1       3.328   2.524  17.604  0.00  0.00    +0.000 OA
ATOM     29  H   UNL     1       3.686   1.710  17.206  0.00  0.00    +0.000 HD
ENDBRANCH  23  28
ENDBRANCH   5  19
TORSDOF 3
ENDMDL
