MODEL 1
REMARK VINA RESULT:      -8.9      0.000      0.000
REMARK  Name = 
REMARK  7 active torsions:
REMARK  status: ('A' for Active; 'I' for Inactive)
REMARK    1  A    between atoms: C_2  and  C_3
REMARK    2  A    between atoms: C_3  and  C_4
REMARK    3  A    between atoms: C_4  and  C_5
REMARK    4  A    between atoms: C_7  and  C_8
REMARK    5  A    between atoms: N_16  and  C_17
REMARK    6  A    between atoms: C_17  and  C_18
REMARK    7  A    between atoms: N_20  and  C_21
REMARK                            x       y       z     vdW  Elec       q    Type
REMARK                         _______ _______ _______ _____ _____    ______ ____
ROOT
ATOM      1  O   UNL     1       0.836   2.724  18.577  0.00  0.00    +0.000 OA
ATOM      2  C   UNL     1       1.594   2.453  19.502  0.00  0.00    +0.000 C 
ATOM      3  N   UNL     1       2.881   2.030  19.320  0.00  0.00    +0.000 N 
ATOM      4  H   UNL     1       3.423   1.700  20.117  0.00  0.00    +0.000 HD
ENDROOT
BRANCH   2   5
ATOM      5  C   UNL     1       1.178   2.570  20.959  0.00  0.00    +0.000 C 
BRANCH   5   6
ATOM      6  C   UNL     1       2.085   3.531  21.716  0.00  0.00    +0.000 C 
BRANCH   6   7
ATOM      7  C   UNL     1       2.330   4.771  20.944  0.00  0.00    +0.000 A 
ATOM      8  N   UNL     1       1.571   5.833  20.813  0.00  0.00    +0.000 NA
ATOM      9  C   UNL     1       2.306   6.619  19.951  0.00  0.00    +0.000 A 
ATOM     10  N   UNL     1       3.475   6.067  19.579  0.00  0.00    +0.000 NA
ATOM     11  O   UNL     1       3.491   4.843  20.240  0.00  0.00    +0.000 OA
BRANCH   9  12
ATOM     12  C   UNL     1       1.848   7.933  19.521  0.00  0.00    +0.000 A 
ATOM     13  C   UNL     1       1.111   8.747  20.395  0.00  0.00    +0.000 A 
ATOM     14  C   UNL     1       0.708  10.025  20.005  0.00  0.00    +0.000 A 
ATOM     15  C   UNL     1       1.031  10.501  18.736  0.00  0.00    +0.000 A 
ATOM     16  C   UNL     1       1.746   9.696  17.850  0.00  0.00    +0.000 A 
ATOM     17  C   UNL     1       2.151   8.418  18.241  0.00  0.00    +0.000 A 
ENDBRANCH   9  12
ENDBRANCH   6   7
ENDBRANCH   5   6
ENDBRANCH   2   5
BRANCH   3  18
ATOM     18  C   UNL     1       3.478   1.788  18.015  0.00  0.00    +0.000 C 
BRANCH  18  19
ATOM     19  C   UNL     1       4.026   3.127  17.505  0.00  0.00    +0.000 C 
ATOM     20  O   UNL     1       3.428   3.737  16.617  0.00  0.00    +0.000 OA
ATOM     21  N   UNL     1       5.205   3.536  18.104  0.00  0.00    +0.000 N 
ATOM     22  H   UNL     1       5.669   2.876  18.718  0.00  0.00    +0.000 HD
BRANCH  21  23
ATOM     23  C   UNL     1       5.894   4.748  17.838  0.00  0.00    +0.000 A 
ATOM     24  C   UNL     1       5.576   5.582  16.754  0.00  0.00    +0.000 A 
ATOM     25  C   UNL     1       6.285   6.766  16.528  0.00  0.00    +0.000 A 
ATOM     26  C   UNL     1       7.316   7.119  17.382  0.00  0.00    +0.000 A 
ATOM     27  F   UNL     1       7.998   8.252  17.160  0.00  0.00    +0.000 F 
ATOM     28  C   UNL     1       7.636   6.303  18.461  0.00  0.00    +0.000 A 
ATOM     29  F   UNL     1       8.642   6.640  19.280  0.00  0.00    +0.000 F 
ATOM     30  C   UNL     1       6.925   5.127  18.701  0.00  0.00    +0.000 A 
ENDBRANCH  21  23
ENDBRANCH  18  19
ENDBRANCH   3  18
TORSDOF 7
ENDMDL
MODEL 2
REMARK VINA RESULT:      -8.4      5.943      8.058
REMARK  Name = 
REMARK  7 active torsions:
REMARK  status: ('A' for Active; 'I' for Inactive)
REMARK    1  A    between atoms: C_2  and  C_3
REMARK    2  A    between atoms: C_3  and  C_4
REMARK    3  A    between atoms: C_4  and  C_5
REMARK    4  A    between atoms: C_7  and  C_8
REMARK    5  A    between atoms: N_16  and  C_17
REMARK    6  A    between atoms: C_17  and  C_18
REMARK    7  A    between atoms: N_20  and  C_21
REMARK                            x       y       z     vdW  Elec       q    Type
REMARK                         _______ _______ _______ _____ _____    ______ ____
ROOT
ATOM      1  O   UNL     1       6.908   7.086  16.441  0.00  0.00    +0.000 OA
ATOM      2  C   UNL     1       7.453   7.424  17.486  0.00  0.00    +0.000 C 
ATOM      3  N   UNL     1       7.854   6.538  18.446  0.00  0.00    +0.000 N 
ATOM      4  H   UNL     1       8.185   6.882  19.346  0.00  0.00    +0.000 HD
ENDROOT
BRANCH   2   5
ATOM      5  C   UNL     1       7.749   8.877  17.819  0.00  0.00    +0.000 C 
BRANCH   5   6
ATOM      6  C   UNL     1       8.908   8.994  18.800  0.00  0.00    +0.000 C 
BRANCH   6   7
ATOM      7  C   UNL     1       9.228  10.409  19.098  0.00  0.00    +0.000 A 
ATOM      8  N   UNL     1       9.227  11.037  20.251  0.00  0.00    +0.000 NA
ATOM      9  C   UNL     1       9.562  12.324  19.888  0.00  0.00    +0.000 A 
ATOM     10  N   UNL     1       9.773  12.477  18.569  0.00  0.00    +0.000 NA
ATOM     11  O   UNL     1       9.554  11.206  18.046  0.00  0.00    +0.000 OA
BRANCH   9  12
ATOM     12  C   UNL     1       9.694  13.394  20.868  0.00  0.00    +0.000 A 
ATOM     13  C   UNL     1      10.560  14.471  20.627  0.00  0.00    +0.000 A 
ATOM     14  C   UNL     1      10.657  15.522  21.542  0.00  0.00    +0.000 A 
ATOM     15  C   UNL     1       9.894  15.503  22.708  0.00  0.00    +0.000 A 
ATOM     16  C   UNL     1       9.044  14.430  22.969  0.00  0.00    +0.000 A 
ATOM     17  C   UNL     1       8.945  13.380  22.054  0.00  0.00    +0.000 A 
ENDBRANCH   9  12
ENDBRANCH   6   7
ENDBRANCH   5   6
ENDBRANCH   2   5
BRANCH   3  18
ATOM     18  C   UNL     1       7.621   5.103  18.373  0.00  0.00    +0.000 C 
BRANCH  18  19
ATOM     19  C   UNL     1       6.164   4.852  18.782  0.00  0.00    +0.000 C 
ATOM     20  O   UNL     1       5.657   5.518  19.685  0.00  0.00    +0.000 OA
ATOM     21  N   UNL     1       5.531   3.843  18.076  0.00  0.00    +0.000 N 
ATOM     22  H   UNL     1       6.102   3.278  17.458  0.00  0.00    +0.000 HD
BRANCH  21  23
ATOM     23  C   UNL     1       4.179   3.442  18.237  0.00  0.00    +0.000 A 
ATOM     24  C   UNL     1       3.805   2.298  18.959  0.00  0.00    +0.000 A 
ATOM     25  C   UNL     1       2.459   1.938  19.087  0.00  0.00    +0.000 A 
ATOM     26  C   UNL     1       1.484   2.719  18.492  0.00  0.00    +0.000 A 
ATOM     27  F   UNL     1       0.194   2.370  18.611  0.00  0.00    +0.000 F 
ATOM     28  C   UNL     1       1.842   3.857  17.778  0.00  0.00    +0.000 A 
ATOM     29  F   UNL     1       0.897   4.606  17.192  0.00  0.00    +0.000 F 
ATOM     30  C   UNL     1       3.181   4.230  17.656  0.00  0.00    +0.000 A 
ENDBRANCH  21  23
ENDBRANCH  18  19
ENDBRANCH   3  18
TORSDOF 7
ENDMDL
MODEL 3
REMARK VINA RESULT:      -8.3      5.711      7.985
REMARK  Name = 
REMARK  7 active torsions:
REMARK  status: ('A' for Active; 'I' for Inactive)
REMARK    1  A    between atoms: C_2  and  C_3
REMARK    2  A    between atoms: C_3  and  C_4
REMARK    3  A    between atoms: C_4  and  C_5
REMARK    4  A    between atoms: C_7  and  C_8
REMARK    5  A    between atoms: N_16  and  C_17
REMARK    6  A    between atoms: C_17  and  C_18
REMARK    7  A    between atoms: N_20  and  C_21
REMARK                            x       y       z     vdW  Elec       q    Type
REMARK                         _______ _______ _______ _____ _____    ______ ____
ROOT
ATOM      1  O   UNL     1       6.726   6.965  16.396  0.00  0.00    +0.000 OA
ATOM      2  C   UNL     1       7.412   7.331  17.344  0.00  0.00    +0.000 C 
ATOM      3  N   UNL     1       7.958   6.470  18.255  0.00  0.00    +0.000 N 
ATOM      4  H   UNL     1       8.411   6.836  19.090  0.00  0.00    +0.000 HD
ENDROOT
BRANCH   2   5
ATOM      5  C   UNL     1       7.735   8.793  17.601  0.00  0.00    +0.000 C 
BRANCH   5   6
ATOM      6  C   UNL     1       8.651   8.953  18.808  0.00  0.00    +0.000 C 
BRANCH   6   7
ATOM      7  C   UNL     1       9.160  10.339  18.925  0.00  0.00    +0.000 A 
ATOM      8  N   UNL     1       8.890  11.389  18.186  0.00  0.00    +0.000 NA
ATOM      9  C   UNL     1       9.686  12.362  18.752  0.00  0.00    +0.000 A 
ATOM     10  N   UNL     1      10.405  11.931  19.802  0.00  0.00    +0.000 NA
ATOM     11  O   UNL     1      10.054  10.589  19.919  0.00  0.00    +0.000 OA
BRANCH   9  12
ATOM     12  C   UNL     1       9.707  13.732  18.253  0.00  0.00    +0.000 A 
ATOM     13  C   UNL     1       8.573  14.548  18.380  0.00  0.00    +0.000 A 
ATOM     14  C   UNL     1       8.602  15.875  17.945  0.00  0.00    +0.000 A 
ATOM     15  C   UNL     1       9.760  16.396  17.372  0.00  0.00    +0.000 A 
ATOM     16  C   UNL     1      10.888  15.590  17.222  0.00  0.00    +0.000 A 
ATOM     17  C   UNL     1      10.860  14.264  17.659  0.00  0.00    +0.000 A 
ENDBRANCH   9  12
ENDBRANCH   6   7
ENDBRANCH   5   6
ENDBRANCH   2   5
BRANCH   3  18
ATOM     18  C   UNL     1       7.734   5.032  18.246  0.00  0.00    +0.000 C 
BRANCH  18  19
ATOM     19  C   UNL     1       6.302   4.786  18.736  0.00  0.00    +0.000 C 
ATOM     20  O   UNL     1       5.895   5.351  19.753  0.00  0.00    +0.000 OA
ATOM     21  N   UNL     1       5.570   3.900  17.965  0.00  0.00    +0.000 N 
ATOM     22  H   UNL     1       6.065   3.396  17.237  0.00  0.00    +0.000 HD
BRANCH  21  23
ATOM     23  C   UNL     1       4.216   3.533  18.182  0.00  0.00    +0.000 A 
ATOM     24  C   UNL     1       3.844   2.384  18.899  0.00  0.00    +0.000 A 
ATOM     25  C   UNL     1       2.496   2.060  19.085  0.00  0.00    +0.000 A 
ATOM     26  C   UNL     1       1.516   2.880  18.553  0.00  0.00    +0.000 A 
ATOM     27  F   UNL     1       0.225   2.565  18.728  0.00  0.00    +0.000 F 
ATOM     28  C   UNL     1       1.873   4.023  17.846  0.00  0.00    +0.000 A 
ATOM     29  F   UNL     1       0.923   4.810  17.321  0.00  0.00    +0.000 F 
ATOM     30  C   UNL     1       3.214   4.361  17.667  0.00  0.00    +0.000 A 
ENDBRANCH  21  23
ENDBRANCH  18  19
ENDBRANCH   3  18
TORSDOF 7
ENDMDL
MODEL 4
REMARK VINA RESULT:      -8.3      5.217      7.504
REMARK  Name = 
REMARK  7 active torsions:
REMARK  status: ('A' for Active; 'I' for Inactive)
REMARK    1  A    between atoms: C_2  and  C_3
REMARK    2  A    between atoms: C_3  and  C_4
REMARK    3  A    between atoms: C_4  and  C_5
REMARK    4  A    between atoms: C_7  and  C_8
REMARK    5  A    between atoms: N_16  and  C_17
REMARK    6  A    between atoms: C_17  and  C_18
REMARK    7  A    between atoms: N_20  and  C_21
REMARK                            x       y       z     vdW  Elec       q    Type
REMARK                         _______ _______ _______ _____ _____    ______ ____
ROOT
ATOM      1  O   UNL     1       7.188   5.200  19.268  0.00  0.00    +0.000 OA
ATOM      2  C   UNL     1       7.632   5.952  18.406  0.00  0.00    +0.000 C 
ATOM      3  N   UNL     1       7.540   5.696  17.066  0.00  0.00    +0.000 N 
ATOM      4  H   UNL     1       8.035   6.290  16.403  0.00  0.00    +0.000 HD
ENDROOT
BRANCH   2   5
ATOM      5  C   UNL     1       8.327   7.259  18.743  0.00  0.00    +0.000 C 
BRANCH   5   6
ATOM      6  C   UNL     1       7.890   8.376  17.803  0.00  0.00    +0.000 C 
BRANCH   6   7
ATOM      7  C   UNL     1       8.491   9.675  18.185  0.00  0.00    +0.000 A 
ATOM      8  N   UNL     1       8.390  10.843  17.596  0.00  0.00    +0.000 NA
ATOM      9  C   UNL     1       9.192  11.642  18.382  0.00  0.00    +0.000 A 
ATOM     10  N   UNL     1       9.753  10.995  19.418  0.00  0.00    +0.000 NA
ATOM     11  O   UNL     1       9.285   9.690  19.289  0.00  0.00    +0.000 OA
BRANCH   9  12
ATOM     12  C   UNL     1       9.377  13.061  18.107  0.00  0.00    +0.000 A 
ATOM     13  C   UNL     1       8.316  13.961  18.288  0.00  0.00    +0.000 A 
ATOM     14  C   UNL     1       8.500  15.328  18.070  0.00  0.00    +0.000 A 
ATOM     15  C   UNL     1       9.743  15.808  17.662  0.00  0.00    +0.000 A 
ATOM     16  C   UNL     1      10.801  14.923  17.460  0.00  0.00    +0.000 A 
ATOM     17  C   UNL     1      10.618  13.556  17.680  0.00  0.00    +0.000 A 
ENDBRANCH   9  12
ENDBRANCH   6   7
ENDBRANCH   5   6
ENDBRANCH   2   5
BRANCH   3  18
ATOM     18  C   UNL     1       6.969   4.478  16.510  0.00  0.00    +0.000 C 
BRANCH  18  19
ATOM     19  C   UNL     1       5.478   4.464  16.869  0.00  0.00    +0.000 C 
ATOM     20  O   UNL     1       4.694   5.203  16.269  0.00  0.00    +0.000 OA
ATOM     21  N   UNL     1       5.136   3.596  17.891  0.00  0.00    +0.000 N 
ATOM     22  H   UNL     1       5.894   3.150  18.397  0.00  0.00    +0.000 HD
BRANCH  21  23
ATOM     23  C   UNL     1       3.824   3.369  18.384  0.00  0.00    +0.000 A 
ATOM     24  C   UNL     1       2.972   2.387  17.856  0.00  0.00    +0.000 A 
ATOM     25  C   UNL     1       1.684   2.202  18.371  0.00  0.00    +0.000 A 
ATOM     26  C   UNL     1       1.244   3.001  19.413  0.00  0.00    +0.000 A 
ATOM     27  F   UNL     1       0.008   2.826  19.902  0.00  0.00    +0.000 F 
ATOM     28  C   UNL     1       2.082   3.974  19.946  0.00  0.00    +0.000 A 
ATOM     29  F   UNL     1       1.650   4.755  20.946  0.00  0.00    +0.000 F 
ATOM     30  C   UNL     1       3.372   4.156  19.447  0.00  0.00    +0.000 A 
ENDBRANCH  21  23
ENDBRANCH  18  19
ENDBRANCH   3  18
TORSDOF 7
ENDMDL
MODEL 5
REMARK VINA RESULT:      -8.3      5.543      8.093
REMARK  Name = 
REMARK  7 active torsions:
REMARK  status: ('A' for Active; 'I' for Inactive)
REMARK    1  A    between atoms: C_2  and  C_3
REMARK    2  A    between atoms: C_3  and  C_4
REMARK    3  A    between atoms: C_4  and  C_5
REMARK    4  A    between atoms: C_7  and  C_8
REMARK    5  A    between atoms: N_16  and  C_17
REMARK    6  A    between atoms: C_17  and  C_18
REMARK    7  A    between atoms: N_20  and  C_21
REMARK                            x       y       z     vdW  Elec       q    Type
REMARK                         _______ _______ _______ _____ _____    ______ ____
ROOT
ATOM      1  O   UNL     1       6.485   7.216  16.454  0.00  0.00    +0.000 OA
ATOM      2  C   UNL     1       7.353   6.865  17.247  0.00  0.00    +0.000 C 
ATOM      3  N   UNL     1       7.733   5.563  17.416  0.00  0.00    +0.000 N 
ATOM      4  H   UNL     1       8.366   5.315  18.175  0.00  0.00    +0.000 HD
ENDROOT
BRANCH   2   5
ATOM      5  C   UNL     1       8.107   7.852  18.121  0.00  0.00    +0.000 C 
BRANCH   5   6
ATOM      6  C   UNL     1       7.839   9.289  17.690  0.00  0.00    +0.000 C 
BRANCH   6   7
ATOM      7  C   UNL     1       8.788  10.233  18.325  0.00  0.00    +0.000 A 
ATOM      8  N   UNL     1       9.233  11.386  17.885  0.00  0.00    +0.000 NA
ATOM      9  C   UNL     1      10.107  11.766  18.881  0.00  0.00    +0.000 A 
ATOM     10  N   UNL     1      10.186  10.889  19.897  0.00  0.00    +0.000 NA
ATOM     11  O   UNL     1       9.309   9.873  19.528  0.00  0.00    +0.000 OA
BRANCH   9  12
ATOM     12  C   UNL     1      10.844  13.022  18.825  0.00  0.00    +0.000 A 
ATOM     13  C   UNL     1      10.975  13.818  19.974  0.00  0.00    +0.000 A 
ATOM     14  C   UNL     1      11.718  14.999  19.938  0.00  0.00    +0.000 A 
ATOM     15  C   UNL     1      12.332  15.401  18.753  0.00  0.00    +0.000 A 
ATOM     16  C   UNL     1      12.195  14.630  17.599  0.00  0.00    +0.000 A 
ATOM     17  C   UNL     1      11.453  13.447  17.636  0.00  0.00    +0.000 A 
ENDBRANCH   9  12
ENDBRANCH   6   7
ENDBRANCH   5   6
ENDBRANCH   2   5
BRANCH   3  18
ATOM     18  C   UNL     1       7.109   4.440  16.732  0.00  0.00    +0.000 C 
BRANCH  18  19
ATOM     19  C   UNL     1       5.706   4.262  17.324  0.00  0.00    +0.000 C 
ATOM     20  O   UNL     1       4.715   4.355  16.597  0.00  0.00    +0.000 OA
ATOM     21  N   UNL     1       5.680   4.018  18.686  0.00  0.00    +0.000 N 
ATOM     22  H   UNL     1       6.554   4.107  19.193  0.00  0.00    +0.000 HD
BRANCH  21  23
ATOM     23  C   UNL     1       4.516   3.782  19.464  0.00  0.00    +0.000 A 
ATOM     24  C   UNL     1       4.181   2.515  19.967  0.00  0.00    +0.000 A 
ATOM     25  C   UNL     1       3.020   2.328  20.726  0.00  0.00    +0.000 A 
ATOM     26  C   UNL     1       2.191   3.406  20.982  0.00  0.00    +0.000 A 
ATOM     27  F   UNL     1       1.076   3.224  21.705  0.00  0.00    +0.000 F 
ATOM     28  C   UNL     1       2.515   4.666  20.493  0.00  0.00    +0.000 A 
ATOM     29  F   UNL     1       1.704   5.707  20.732  0.00  0.00    +0.000 F 
ATOM     30  C   UNL     1       3.677   4.864  19.746  0.00  0.00    +0.000 A 
ENDBRANCH  21  23
ENDBRANCH  18  19
ENDBRANCH   3  18
TORSDOF 7
ENDMDL
MODEL 6
REMARK VINA RESULT:      -8.1      6.041      8.122
REMARK  Name = 
REMARK  7 active torsions:
REMARK  status: ('A' for Active; 'I' for Inactive)
REMARK    1  A    between atoms: C_2  and  C_3
REMARK    2  A    between atoms: C_3  and  C_4
REMARK    3  A    between atoms: C_4  and  C_5
REMARK    4  A    between atoms: C_7  and  C_8
REMARK    5  A    between atoms: N_16  and  C_17
REMARK    6  A    between atoms: C_17  and  C_18
REMARK    7  A    between atoms: N_20  and  C_21
REMARK                            x       y       z     vdW  Elec       q    Type
REMARK                         _______ _______ _______ _____ _____    ______ ____
ROOT
ATOM      1  O   UNL     1       8.212   6.929  18.818  0.00  0.00    +0.000 OA
ATOM      2  C   UNL     1       7.806   7.563  17.850  0.00  0.00    +0.000 C 
ATOM      3  N   UNL     1       7.224   6.979  16.760  0.00  0.00    +0.000 N 
ATOM      4  H   UNL     1       7.020   7.539  15.934  0.00  0.00    +0.000 HD
ENDROOT
BRANCH   2   5
ATOM      5  C   UNL     1       7.900   9.077  17.767  0.00  0.00    +0.000 C 
BRANCH   5   6
ATOM      6  C   UNL     1       8.926   9.621  18.754  0.00  0.00    +0.000 C 
BRANCH   6   7
ATOM      7  C   UNL     1       9.392  10.972  18.364  0.00  0.00    +0.000 A 
ATOM      8  N   UNL     1       8.857  12.142  18.618  0.00  0.00    +0.000 NA
ATOM      9  C   UNL     1       9.711  13.007  17.968  0.00  0.00    +0.000 A 
ATOM     10  N   UNL     1      10.735  12.394  17.350  0.00  0.00    +0.000 NA
ATOM     11  O   UNL     1      10.525  11.044  17.616  0.00  0.00    +0.000 OA
BRANCH   9  12
ATOM     12  C   UNL     1       9.512  14.451  17.987  0.00  0.00    +0.000 A 
ATOM     13  C   UNL     1       8.247  14.987  18.272  0.00  0.00    +0.000 A 
ATOM     14  C   UNL     1       8.061  16.370  18.337  0.00  0.00    +0.000 A 
ATOM     15  C   UNL     1       9.134  17.229  18.109  0.00  0.00    +0.000 A 
ATOM     16  C   UNL     1      10.392  16.710  17.805  0.00  0.00    +0.000 A 
ATOM     17  C   UNL     1      10.579  15.327  17.743  0.00  0.00    +0.000 A 
ENDBRANCH   9  12
ENDBRANCH   6   7
ENDBRANCH   5   6
ENDBRANCH   2   5
BRANCH   3  18
ATOM     18  C   UNL     1       7.081   5.540  16.590  0.00  0.00    +0.000 C 
BRANCH  18  19
ATOM     19  C   UNL     1       5.694   5.151  17.115  0.00  0.00    +0.000 C 
ATOM     20  O   UNL     1       4.735   5.103  16.342  0.00  0.00    +0.000 OA
ATOM     21  N   UNL     1       5.641   4.893  18.474  0.00  0.00    +0.000 N 
ATOM     22  H   UNL     1       6.467   5.105  19.022  0.00  0.00    +0.000 HD
BRANCH  21  23
ATOM     23  C   UNL     1       4.490   4.480  19.196  0.00  0.00    +0.000 A 
ATOM     24  C   UNL     1       4.201   3.132  19.461  0.00  0.00    +0.000 A 
ATOM     25  C   UNL     1       3.052   2.771  20.173  0.00  0.00    +0.000 A 
ATOM     26  C   UNL     1       2.187   3.755  20.619  0.00  0.00    +0.000 A 
ATOM     27  F   UNL     1       1.083   3.407  21.296  0.00  0.00    +0.000 F 
ATOM     28  C   UNL     1       2.465   5.094  20.365  0.00  0.00    +0.000 A 
ATOM     29  F   UNL     1       1.621   6.045  20.787  0.00  0.00    +0.000 F 
ATOM     30  C   UNL     1       3.616   5.463  19.668  0.00  0.00    +0.000 A 
ENDBRANCH  21  23
ENDBRANCH  18  19
ENDBRANCH   3  18
TORSDOF 7
ENDMDL
MODEL 7
REMARK VINA RESULT:      -7.9      6.393      8.450
REMARK  Name = 
REMARK  7 active torsions:
REMARK  status: ('A' for Active; 'I' for Inactive)
REMARK    1  A    between atoms: C_2  and  C_3
REMARK    2  A    between atoms: C_3  and  C_4
REMARK    3  A    between atoms: C_4  and  C_5
REMARK    4  A    between atoms: C_7  and  C_8
REMARK    5  A    between atoms: N_16  and  C_17
REMARK    6  A    between atoms: C_17  and  C_18
REMARK    7  A    between atoms: N_20  and  C_21
REMARK                            x       y       z     vdW  Elec       q    Type
REMARK                         _______ _______ _______ _____ _____    ______ ____
ROOT
ATOM      1  O   UNL     1       8.422   7.413  18.765  0.00  0.00    +0.000 OA
ATOM      2  C   UNL     1       7.921   8.053  17.847  0.00  0.00    +0.000 C 
ATOM      3  N   UNL     1       7.142   7.489  16.875  0.00  0.00    +0.000 N 
ATOM      4  H   UNL     1       6.858   8.043  16.069  0.00  0.00    +0.000 HD
ENDROOT
BRANCH   2   5
ATOM      5  C   UNL     1       8.109   9.553  17.700  0.00  0.00    +0.000 C 
BRANCH   5   6
ATOM      6  C   UNL     1       9.094  10.090  18.731  0.00  0.00    +0.000 C 
BRANCH   6   7
ATOM      7  C   UNL     1       9.534  11.465  18.400  0.00  0.00    +0.000 A 
ATOM      8  N   UNL     1       9.032  12.614  18.787  0.00  0.00    +0.000 NA
ATOM      9  C   UNL     1       9.830  13.523  18.126  0.00  0.00    +0.000 A 
ATOM     10  N   UNL     1      10.790  12.956  17.374  0.00  0.00    +0.000 NA
ATOM     11  O   UNL     1      10.595  11.590  17.559  0.00  0.00    +0.000 OA
BRANCH   9  12
ATOM     12  C   UNL     1       9.645  14.962  18.268  0.00  0.00    +0.000 A 
ATOM     13  C   UNL     1       8.378  15.534  18.082  0.00  0.00    +0.000 A 
ATOM     14  C   UNL     1       8.185  16.905  18.262  0.00  0.00    +0.000 A 
ATOM     15  C   UNL     1       9.258  17.719  18.621  0.00  0.00    +0.000 A 
ATOM     16  C   UNL     1      10.526  17.167  18.790  0.00  0.00    +0.000 A 
ATOM     17  C   UNL     1      10.719  15.795  18.612  0.00  0.00    +0.000 A 
ENDBRANCH   9  12
ENDBRANCH   6   7
ENDBRANCH   5   6
ENDBRANCH   2   5
BRANCH   3  18
ATOM     18  C   UNL     1       6.874   6.062  16.777  0.00  0.00    +0.000 C 
BRANCH  18  19
ATOM     19  C   UNL     1       5.424   5.835  17.224  0.00  0.00    +0.000 C 
ATOM     20  O   UNL     1       4.570   6.694  16.996  0.00  0.00    +0.000 OA
ATOM     21  N   UNL     1       5.203   4.640  17.886  0.00  0.00    +0.000 N 
ATOM     22  H   UNL     1       6.016   4.087  18.134  0.00  0.00    +0.000 HD
BRANCH  21  23
ATOM     23  C   UNL     1       3.950   4.178  18.367  0.00  0.00    +0.000 A 
ATOM     24  C   UNL     1       3.037   3.478  17.562  0.00  0.00    +0.000 A 
ATOM     25  C   UNL     1       1.811   3.045  18.077  0.00  0.00    +0.000 A 
ATOM     26  C   UNL     1       1.492   3.313  19.398  0.00  0.00    +0.000 A 
ATOM     27  F   UNL     1       0.314   2.902  19.889  0.00  0.00    +0.000 F 
ATOM     28  C   UNL     1       2.390   4.001  20.205  0.00  0.00    +0.000 A 
ATOM     29  F   UNL     1       2.075   4.270  21.480  0.00  0.00    +0.000 F 
ATOM     30  C   UNL     1       3.621   4.425  19.703  0.00  0.00    +0.000 A 
ENDBRANCH  21  23
ENDBRANCH  18  19
ENDBRANCH   3  18
TORSDOF 7
ENDMDL
MODEL 8
REMARK VINA RESULT:      -7.9      5.759      8.192
REMARK  Name = 
REMARK  7 active torsions:
REMARK  status: ('A' for Active; 'I' for Inactive)
REMARK    1  A    between atoms: C_2  and  C_3
REMARK    2  A    between atoms: C_3  and  C_4
REMARK    3  A    between atoms: C_4  and  C_5
REMARK    4  A    between atoms: C_7  and  C_8
REMARK    5  A    between atoms: N_16  and  C_17
REMARK    6  A    between atoms: C_17  and  C_18
REMARK    7  A    between atoms: N_20  and  C_21
REMARK                            x       y       z     vdW  Elec       q    Type
REMARK                         _______ _______ _______ _____ _____    ______ ____
ROOT
ATOM      1  O   UNL     1       7.134   7.342  16.533  0.00  0.00    +0.000 OA
ATOM      2  C   UNL     1       7.692   7.032  17.580  0.00  0.00    +0.000 C 
ATOM      3  N   UNL     1       7.873   5.737  17.980  0.00  0.00    +0.000 N 
ATOM      4  H   UNL     1       8.229   5.541  18.914  0.00  0.00    +0.000 HD
ENDROOT
BRANCH   2   5
ATOM      5  C   UNL     1       8.251   8.065  18.544  0.00  0.00    +0.000 C 
BRANCH   5   6
ATOM      6  C   UNL     1       8.396   9.425  17.873  0.00  0.00    +0.000 C 
BRANCH   6   7
ATOM      7  C   UNL     1       9.013  10.417  18.783  0.00  0.00    +0.000 A 
ATOM      8  N   UNL     1       9.529  11.591  18.506  0.00  0.00    +0.000 NA
ATOM      9  C   UNL     1       9.976  12.018  19.739  0.00  0.00    +0.000 A 
ATOM     10  N   UNL     1       9.731  11.147  20.734  0.00  0.00    +0.000 NA
ATOM     11  O   UNL     1       9.090  10.087  20.100  0.00  0.00    +0.000 OA
BRANCH   9  12
ATOM     12  C   UNL     1      10.625  13.309  19.922  0.00  0.00    +0.000 A 
ATOM     13  C   UNL     1      11.724  13.668  19.128  0.00  0.00    +0.000 A 
ATOM     14  C   UNL     1      12.321  14.923  19.268  0.00  0.00    +0.000 A 
ATOM     15  C   UNL     1      11.831  15.827  20.208  0.00  0.00    +0.000 A 
ATOM     16  C   UNL     1      10.751  15.477  21.017  0.00  0.00    +0.000 A 
ATOM     17  C   UNL     1      10.152  14.223  20.876  0.00  0.00    +0.000 A 
ENDBRANCH   9  12
ENDBRANCH   6   7
ENDBRANCH   5   6
ENDBRANCH   2   5
BRANCH   3  18
ATOM     18  C   UNL     1       7.369   4.585  17.249  0.00  0.00    +0.000 C 
BRANCH  18  19
ATOM     19  C   UNL     1       5.866   4.479  17.536  0.00  0.00    +0.000 C 
ATOM     20  O   UNL     1       5.053   4.918  16.720  0.00  0.00    +0.000 OA
ATOM     21  N   UNL     1       5.548   3.890  18.747  0.00  0.00    +0.000 N 
ATOM     22  H   UNL     1       6.311   3.702  19.389  0.00  0.00    +0.000 HD
BRANCH  21  23
ATOM     23  C   UNL     1       4.236   3.643  19.230  0.00  0.00    +0.000 A 
ATOM     24  C   UNL     1       3.616   2.387  19.139  0.00  0.00    +0.000 A 
ATOM     25  C   UNL     1       2.319   2.190  19.625  0.00  0.00    +0.000 A 
ATOM     26  C   UNL     1       1.637   3.249  20.201  0.00  0.00    +0.000 A 
ATOM     27  F   UNL     1       0.392   3.060  20.661  0.00  0.00    +0.000 F 
ATOM     28  C   UNL     1       2.244   4.496  20.300  0.00  0.00    +0.000 A 
ATOM     29  F   UNL     1       1.578   5.523  20.847  0.00  0.00    +0.000 F 
ATOM     30  C   UNL     1       3.542   4.697  19.830  0.00  0.00    +0.000 A 
ENDBRANCH  21  23
ENDBRANCH  18  19
ENDBRANCH   3  18
TORSDOF 7
ENDMDL
MODEL 9
REMARK VINA RESULT:      -7.8      4.407      6.600
REMARK  Name = 
REMARK  7 active torsions:
REMARK  status: ('A' for Active; 'I' for Inactive)
REMARK    1  A    between atoms: C_2  and  C_3
REMARK    2  A    between atoms: C_3  and  C_4
REMARK    3  A    between atoms: C_4  and  C_5
REMARK    4  A    between atoms: C_7  and  C_8
REMARK    5  A    between atoms: N_16  and  C_17
REMARK    6  A    between atoms: C_17  and  C_18
REMARK    7  A    between atoms: N_20  and  C_21
REMARK                            x       y       z     vdW  Elec       q    Type
REMARK                         _______ _______ _______ _____ _____    ______ ____
ROOT
ATOM      1  O   UNL     1       7.596   4.915  17.433  0.00  0.00    +0.000 OA
ATOM      2  C   UNL     1       7.083   5.913  16.938  0.00  0.00    +0.000 C 
ATOM      3  N   UNL     1       7.358   7.185  17.357  0.00  0.00    +0.000 N 
ATOM      4  H   UNL     1       6.811   7.966  16.997  0.00  0.00    +0.000 HD
ENDROOT
BRANCH   2   5
ATOM      5  C   UNL     1       6.088   5.837  15.793  0.00  0.00    +0.000 C 
BRANCH   5   6
ATOM      6  C   UNL     1       4.988   6.880  15.946  0.00  0.00    +0.000 C 
BRANCH   6   7
ATOM      7  C   UNL     1       4.057   6.531  17.043  0.00  0.00    +0.000 A 
ATOM      8  N   UNL     1       3.838   5.368  17.610  0.00  0.00    +0.000 NA
ATOM      9  C   UNL     1       2.847   5.663  18.522  0.00  0.00    +0.000 A 
ATOM     10  N   UNL     1       2.481   6.957  18.523  0.00  0.00    +0.000 NA
ATOM     11  O   UNL     1       3.286   7.532  17.545  0.00  0.00    +0.000 OA
BRANCH   9  12
ATOM     12  C   UNL     1       2.284   4.652  19.408  0.00  0.00    +0.000 A 
ATOM     13  C   UNL     1       2.714   4.561  20.740  0.00  0.00    +0.000 A 
ATOM     14  C   UNL     1       2.146   3.625  21.607  0.00  0.00    +0.000 A 
ATOM     15  C   UNL     1       1.149   2.766  21.148  0.00  0.00    +0.000 A 
ATOM     16  C   UNL     1       0.726   2.832  19.822  0.00  0.00    +0.000 A 
ATOM     17  C   UNL     1       1.293   3.770  18.955  0.00  0.00    +0.000 A 
ENDBRANCH   9  12
ENDBRANCH   6   7
ENDBRANCH   5   6
ENDBRANCH   2   5
BRANCH   3  18
ATOM     18  C   UNL     1       8.233   7.499  18.477  0.00  0.00    +0.000 C 
BRANCH  18  19
ATOM     19  C   UNL     1       8.492   9.011  18.448  0.00  0.00    +0.000 C 
ATOM     20  O   UNL     1       7.957   9.709  17.585  0.00  0.00    +0.000 OA
ATOM     21  N   UNL     1       9.355   9.469  19.428  0.00  0.00    +0.000 N 
ATOM     22  H   UNL     1       9.838   8.773  19.986  0.00  0.00    +0.000 HD
BRANCH  21  23
ATOM     23  C   UNL     1       9.728  10.822  19.638  0.00  0.00    +0.000 A 
ATOM     24  C   UNL     1      10.429  11.576  18.684  0.00  0.00    +0.000 A 
ATOM     25  C   UNL     1      10.780  12.907  18.937  0.00  0.00    +0.000 A 
ATOM     26  C   UNL     1      10.433  13.486  20.145  0.00  0.00    +0.000 A 
ATOM     27  F   UNL     1      10.775  14.760  20.388  0.00  0.00    +0.000 F 
ATOM     28  C   UNL     1       9.735  12.750  21.096  0.00  0.00    +0.000 A 
ATOM     29  F   UNL     1       9.411  13.310  22.270  0.00  0.00    +0.000 F 
ATOM     30  C   UNL     1       9.370  11.427  20.846  0.00  0.00    +0.000 A 
ENDBRANCH  21  23
ENDBRANCH  18  19
ENDBRANCH   3  18
TORSDOF 7
ENDMDL
