MODEL 1
REMARK VINA RESULT:      -8.8      0.000      0.000
REMARK  Name = 
REMARK  7 active torsions:
REMARK  status: ('A' for Active; 'I' for Inactive)
REMARK    1  A    between atoms: C_2  and  C_3
REMARK    2  A    between atoms: C_3  and  C_4
REMARK    3  A    between atoms: N_10  and  C_11
REMARK    4  A    between atoms: C_11  and  C_12
REMARK    5  A    between atoms: C_12  and  C_13
REMARK    6  A    between atoms: N_21  and  C_22
REMARK    7  A    between atoms: C_22  and  C_23
REMARK                            x       y       z     vdW  Elec       q    Type
REMARK                         _______ _______ _______ _____ _____    ______ ____
ROOT
ATOM      1  C   UNL     1       2.627   5.933  18.237  0.00  0.00    +0.000 A 
ATOM      2  N   UNL     1       1.630   5.106  17.964  0.00  0.00    +0.000 NA
ATOM      3  C   UNL     1       1.769   4.184  18.969  0.00  0.00    +0.000 A 
ATOM      4  C   UNL     1       0.812   3.370  19.576  0.00  0.00    +0.000 A 
ATOM      5  C   UNL     1       1.198   2.650  20.711  0.00  0.00    +0.000 A 
ATOM      6  C   UNL     1       2.520   2.680  21.174  0.00  0.00    +0.000 A 
ATOM      7  C   UNL     1       3.512   3.429  20.528  0.00  0.00    +0.000 A 
ATOM      8  C   UNL     1       3.077   4.202  19.455  0.00  0.00    +0.000 A 
ATOM      9  N   UNL     1       3.698   5.130  18.634  0.00  0.00    +0.000 N 
ENDROOT
BRANCH   1  10
ATOM     10  C   UNL     1       2.384   7.247  18.937  0.00  0.00    +0.000 C 
BRANCH  10  11
ATOM     11  C   UNL     1       2.478   8.436  17.970  0.00  0.00    +0.000 C 
BRANCH  11  14
ATOM     12  O   UNL     1      -0.720  10.128  17.936  0.00  0.00    +0.000 OA
ATOM     13  C   UNL     1       0.449   9.916  18.286  0.00  0.00    +0.000 C 
ATOM     14  N   UNL     1       1.160   8.953  17.639  0.00  0.00    +0.000 N 
ATOM     15  H   UNL     1       0.641   8.488  16.901  0.00  0.00    +0.000 HD
BRANCH  13  16
ATOM     16  C   UNL     1       1.107  10.707  19.396  0.00  0.00    +0.000 C 
BRANCH  16  17
ATOM     17  C   UNL     1       0.395  10.565  20.718  0.00  0.00    +0.000 A 
ATOM     18  C   UNL     1       0.422   9.343  21.405  0.00  0.00    +0.000 A 
ATOM     19  C   UNL     1      -0.220   9.210  22.635  0.00  0.00    +0.000 A 
ATOM     20  C   UNL     1      -0.893  10.295  23.193  0.00  0.00    +0.000 A 
ATOM     21  C   UNL     1      -0.928  11.513  22.518  0.00  0.00    +0.000 A 
ATOM     22  C   UNL     1      -0.285  11.650  21.287  0.00  0.00    +0.000 A 
ENDBRANCH  16  17
ENDBRANCH  13  16
ENDBRANCH  11  14
ENDBRANCH  10  11
ENDBRANCH   1  10
BRANCH   9  23
ATOM     23  C   UNL     1       4.804   4.772  17.747  0.00  0.00    +0.000 C 
BRANCH  23  24
ATOM     24  C   UNL     1       6.032   5.643  17.891  0.00  0.00    +0.000 A 
ATOM     25  C   UNL     1       6.159   6.823  17.135  0.00  0.00    +0.000 A 
ATOM     26  C   UNL     1       7.191   7.732  17.398  0.00  0.00    +0.000 A 
ATOM     27  C   UNL     1       8.104   7.453  18.405  0.00  0.00    +0.000 A 
ATOM     28  F   UNL     1       9.056   8.351  18.699  0.00  0.00    +0.000 F 
ATOM     29  C   UNL     1       8.026   6.274  19.134  0.00  0.00    +0.000 A 
ATOM     30  C   UNL     1       6.995   5.364  18.876  0.00  0.00    +0.000 A 
ENDBRANCH  23  24
ENDBRANCH   9  23
TORSDOF 7
ENDMDL
MODEL 2
REMARK VINA RESULT:      -8.7      1.944      2.537
REMARK  Name = 
REMARK  7 active torsions:
REMARK  status: ('A' for Active; 'I' for Inactive)
REMARK    1  A    between atoms: C_2  and  C_3
REMARK    2  A    between atoms: C_3  and  C_4
REMARK    3  A    between atoms: N_10  and  C_11
REMARK    4  A    between atoms: C_11  and  C_12
REMARK    5  A    between atoms: C_12  and  C_13
REMARK    6  A    between atoms: N_21  and  C_22
REMARK    7  A    between atoms: C_22  and  C_23
REMARK                            x       y       z     vdW  Elec       q    Type
REMARK                         _______ _______ _______ _____ _____    ______ ____
ROOT
ATOM      1  C   UNL     1       2.885   5.116  17.832  0.00  0.00    +0.000 A 
ATOM      2  N   UNL     1       1.654   4.644  17.959  0.00  0.00    +0.000 NA
ATOM      3  C   UNL     1       1.764   3.933  19.126  0.00  0.00    +0.000 A 
ATOM      4  C   UNL     1       0.792   3.622  20.078  0.00  0.00    +0.000 A 
ATOM      5  C   UNL     1       1.221   3.036  21.274  0.00  0.00    +0.000 A 
ATOM      6  C   UNL     1       2.566   2.698  21.475  0.00  0.00    +0.000 A 
ATOM      7  C   UNL     1       3.540   2.931  20.496  0.00  0.00    +0.000 A 
ATOM      8  C   UNL     1       3.098   3.593  19.354  0.00  0.00    +0.000 A 
ATOM      9  N   UNL     1       3.738   4.085  18.228  0.00  0.00    +0.000 N 
ENDROOT
BRANCH   1  10
ATOM     10  C   UNL     1       3.217   6.540  18.205  0.00  0.00    +0.000 C 
BRANCH  10  11
ATOM     11  C   UNL     1       2.081   7.507  17.840  0.00  0.00    +0.000 C 
BRANCH  11  14
ATOM     12  O   UNL     1       2.260  11.107  18.154  0.00  0.00    +0.000 OA
ATOM     13  C   UNL     1       1.738   9.986  18.221  0.00  0.00    +0.000 C 
ATOM     14  N   UNL     1       2.505   8.891  17.965  0.00  0.00    +0.000 N 
ATOM     15  H   UNL     1       3.470   9.112  17.739  0.00  0.00    +0.000 HD
BRANCH  13  16
ATOM     16  C   UNL     1       0.283   9.802  18.595  0.00  0.00    +0.000 C 
BRANCH  16  17
ATOM     17  C   UNL     1       0.028   9.990  20.069  0.00  0.00    +0.000 A 
ATOM     18  C   UNL     1      -0.579  11.165  20.536  0.00  0.00    +0.000 A 
ATOM     19  C   UNL     1      -0.832  11.338  21.895  0.00  0.00    +0.000 A 
ATOM     20  C   UNL     1      -0.484  10.339  22.803  0.00  0.00    +0.000 A 
ATOM     21  C   UNL     1       0.122   9.169  22.351  0.00  0.00    +0.000 A 
ATOM     22  C   UNL     1       0.375   8.992  20.990  0.00  0.00    +0.000 A 
ENDBRANCH  16  17
ENDBRANCH  13  16
ENDBRANCH  11  14
ENDBRANCH  10  11
ENDBRANCH   1  10
BRANCH   9  23
ATOM     23  C   UNL     1       4.435   3.214  17.282  0.00  0.00    +0.000 C 
BRANCH  23  24
ATOM     24  C   UNL     1       5.313   3.940  16.288  0.00  0.00    +0.000 A 
ATOM     25  C   UNL     1       6.465   4.621  16.722  0.00  0.00    +0.000 A 
ATOM     26  C   UNL     1       7.386   5.129  15.797  0.00  0.00    +0.000 A 
ATOM     27  C   UNL     1       7.145   4.970  14.439  0.00  0.00    +0.000 A 
ATOM     28  F   UNL     1       8.055   5.402  13.553  0.00  0.00    +0.000 F 
ATOM     29  C   UNL     1       5.992   4.342  13.986  0.00  0.00    +0.000 A 
ATOM     30  C   UNL     1       5.071   3.832  14.907  0.00  0.00    +0.000 A 
ENDBRANCH  23  24
ENDBRANCH   9  23
TORSDOF 7
ENDMDL
MODEL 3
REMARK VINA RESULT:      -8.6      1.406      1.971
REMARK  Name = 
REMARK  7 active torsions:
REMARK  status: ('A' for Active; 'I' for Inactive)
REMARK    1  A    between atoms: C_2  and  C_3
REMARK    2  A    between atoms: C_3  and  C_4
REMARK    3  A    between atoms: N_10  and  C_11
REMARK    4  A    between atoms: C_11  and  C_12
REMARK    5  A    between atoms: C_12  and  C_13
REMARK    6  A    between atoms: N_21  and  C_22
REMARK    7  A    between atoms: C_22  and  C_23
REMARK                            x       y       z     vdW  Elec       q    Type
REMARK                         _______ _______ _______ _____ _____    ______ ____
ROOT
ATOM      1  C   UNL     1       3.004   6.191  18.641  0.00  0.00    +0.000 A 
ATOM      2  N   UNL     1       2.371   5.335  17.854  0.00  0.00    +0.000 NA
ATOM      3  C   UNL     1       1.992   4.376  18.758  0.00  0.00    +0.000 A 
ATOM      4  C   UNL     1       0.909   3.496  18.727  0.00  0.00    +0.000 A 
ATOM      5  C   UNL     1       0.653   2.743  19.877  0.00  0.00    +0.000 A 
ATOM      6  C   UNL     1       1.500   2.809  20.991  0.00  0.00    +0.000 A 
ATOM      7  C   UNL     1       2.637   3.628  21.007  0.00  0.00    +0.000 A 
ATOM      8  C   UNL     1       2.816   4.428  19.883  0.00  0.00    +0.000 A 
ATOM      9  N   UNL     1       3.727   5.418  19.551  0.00  0.00    +0.000 N 
ENDROOT
BRANCH   1  10
ATOM     10  C   UNL     1       2.337   7.461  19.110  0.00  0.00    +0.000 C 
BRANCH  10  11
ATOM     11  C   UNL     1       2.418   8.572  18.053  0.00  0.00    +0.000 C 
BRANCH  11  14
ATOM     12  O   UNL     1      -0.796  10.232  17.977  0.00  0.00    +0.000 OA
ATOM     13  C   UNL     1       0.374  10.038  18.335  0.00  0.00    +0.000 C 
ATOM     14  N   UNL     1       1.097   9.070  17.709  0.00  0.00    +0.000 N 
ATOM     15  H   UNL     1       0.586   8.587  16.977  0.00  0.00    +0.000 HD
BRANCH  13  16
ATOM     16  C   UNL     1       1.020  10.855  19.433  0.00  0.00    +0.000 C 
BRANCH  16  17
ATOM     17  C   UNL     1       0.341  10.683  20.768  0.00  0.00    +0.000 A 
ATOM     18  C   UNL     1      -0.388  11.741  21.331  0.00  0.00    +0.000 A 
ATOM     19  C   UNL     1      -1.031  11.583  22.557  0.00  0.00    +0.000 A 
ATOM     20  C   UNL     1      -0.956  10.366  23.233  0.00  0.00    +0.000 A 
ATOM     21  C   UNL     1      -0.233   9.310  22.685  0.00  0.00    +0.000 A 
ATOM     22  C   UNL     1       0.411   9.465  21.457  0.00  0.00    +0.000 A 
ENDBRANCH  16  17
ENDBRANCH  13  16
ENDBRANCH  11  14
ENDBRANCH  10  11
ENDBRANCH   1  10
BRANCH   9  23
ATOM     23  C   UNL     1       5.158   5.148  19.413  0.00  0.00    +0.000 C 
BRANCH  23  24
ATOM     24  C   UNL     1       5.669   5.174  17.990  0.00  0.00    +0.000 A 
ATOM     25  C   UNL     1       6.507   6.218  17.556  0.00  0.00    +0.000 A 
ATOM     26  C   UNL     1       7.140   6.152  16.308  0.00  0.00    +0.000 A 
ATOM     27  C   UNL     1       6.922   5.052  15.490  0.00  0.00    +0.000 A 
ATOM     28  F   UNL     1       7.575   4.960  14.322  0.00  0.00    +0.000 F 
ATOM     29  C   UNL     1       6.064   4.032  15.879  0.00  0.00    +0.000 A 
ATOM     30  C   UNL     1       5.431   4.092  17.125  0.00  0.00    +0.000 A 
ENDBRANCH  23  24
ENDBRANCH   9  23
TORSDOF 7
ENDMDL
MODEL 4
REMARK VINA RESULT:      -8.6      1.579      1.909
REMARK  Name = 
REMARK  7 active torsions:
REMARK  status: ('A' for Active; 'I' for Inactive)
REMARK    1  A    between atoms: C_2  and  C_3
REMARK    2  A    between atoms: C_3  and  C_4
REMARK    3  A    between atoms: N_10  and  C_11
REMARK    4  A    between atoms: C_11  and  C_12
REMARK    5  A    between atoms: C_12  and  C_13
REMARK    6  A    between atoms: N_21  and  C_22
REMARK    7  A    between atoms: C_22  and  C_23
REMARK                            x       y       z     vdW  Elec       q    Type
REMARK                         _______ _______ _______ _____ _____    ______ ____
ROOT
ATOM      1  C   UNL     1       3.049   6.186  18.636  0.00  0.00    +0.000 A 
ATOM      2  N   UNL     1       2.384   5.322  17.885  0.00  0.00    +0.000 NA
ATOM      3  C   UNL     1       2.002   4.397  18.822  0.00  0.00    +0.000 A 
ATOM      4  C   UNL     1       0.902   3.539  18.836  0.00  0.00    +0.000 A 
ATOM      5  C   UNL     1       0.652   2.824  20.012  0.00  0.00    +0.000 A 
ATOM      6  C   UNL     1       1.522   2.902  21.107  0.00  0.00    +0.000 A 
ATOM      7  C   UNL     1       2.675   3.697  21.079  0.00  0.00    +0.000 A 
ATOM      8  C   UNL     1       2.849   4.463  19.929  0.00  0.00    +0.000 A 
ATOM      9  N   UNL     1       3.774   5.424  19.553  0.00  0.00    +0.000 N 
ENDROOT
BRANCH   1  10
ATOM     10  C   UNL     1       2.418   7.482  19.081  0.00  0.00    +0.000 C 
BRANCH  10  11
ATOM     11  C   UNL     1       1.958   8.334  17.889  0.00  0.00    +0.000 C 
BRANCH  11  14
ATOM     12  O   UNL     1       1.586  11.871  18.549  0.00  0.00    +0.000 OA
ATOM     13  C   UNL     1       1.247  10.680  18.517  0.00  0.00    +0.000 C 
ATOM     14  N   UNL     1       2.165   9.750  18.140  0.00  0.00    +0.000 N 
ATOM     15  H   UNL     1       3.076  10.141  17.919  0.00  0.00    +0.000 HD
BRANCH  13  16
ATOM     16  C   UNL     1      -0.149  10.235  18.898  0.00  0.00    +0.000 C 
BRANCH  16  17
ATOM     17  C   UNL     1      -0.383  10.253  20.388  0.00  0.00    +0.000 A 
ATOM     18  C   UNL     1      -0.091   9.121  21.161  0.00  0.00    +0.000 A 
ATOM     19  C   UNL     1      -0.289   9.136  22.540  0.00  0.00    +0.000 A 
ATOM     20  C   UNL     1      -0.779  10.283  23.163  0.00  0.00    +0.000 A 
ATOM     21  C   UNL     1      -1.075  11.412  22.404  0.00  0.00    +0.000 A 
ATOM     22  C   UNL     1      -0.876  11.401  21.023  0.00  0.00    +0.000 A 
ENDBRANCH  16  17
ENDBRANCH  13  16
ENDBRANCH  11  14
ENDBRANCH  10  11
ENDBRANCH   1  10
BRANCH   9  23
ATOM     23  C   UNL     1       5.196   5.120  19.396  0.00  0.00    +0.000 C 
BRANCH  23  24
ATOM     24  C   UNL     1       5.692   5.154  17.968  0.00  0.00    +0.000 A 
ATOM     25  C   UNL     1       6.511   6.209  17.525  0.00  0.00    +0.000 A 
ATOM     26  C   UNL     1       7.132   6.152  16.272  0.00  0.00    +0.000 A 
ATOM     27  C   UNL     1       6.922   5.050  15.456  0.00  0.00    +0.000 A 
ATOM     28  F   UNL     1       7.565   4.966  14.281  0.00  0.00    +0.000 F 
ATOM     29  C   UNL     1       6.083   4.017  15.852  0.00  0.00    +0.000 A 
ATOM     30  C   UNL     1       5.461   4.068  17.105  0.00  0.00    +0.000 A 
ENDBRANCH  23  24
ENDBRANCH   9  23
TORSDOF 7
ENDMDL
MODEL 5
REMARK VINA RESULT:      -8.5      2.720      5.133
REMARK  Name = 
REMARK  7 active torsions:
REMARK  status: ('A' for Active; 'I' for Inactive)
REMARK    1  A    between atoms: C_2  and  C_3
REMARK    2  A    between atoms: C_3  and  C_4
REMARK    3  A    between atoms: N_10  and  C_11
REMARK    4  A    between atoms: C_11  and  C_12
REMARK    5  A    between atoms: C_12  and  C_13
REMARK    6  A    between atoms: N_21  and  C_22
REMARK    7  A    between atoms: C_22  and  C_23
REMARK                            x       y       z     vdW  Elec       q    Type
REMARK                         _______ _______ _______ _____ _____    ______ ____
ROOT
ATOM      1  C   UNL     1       3.545   6.015  18.242  0.00  0.00    +0.000 A 
ATOM      2  N   UNL     1       4.294   5.865  19.323  0.00  0.00    +0.000 NA
ATOM      3  C   UNL     1       5.474   5.438  18.770  0.00  0.00    +0.000 A 
ATOM      4  C   UNL     1       6.782   5.576  19.235  0.00  0.00    +0.000 A 
ATOM      5  C   UNL     1       7.819   5.205  18.373  0.00  0.00    +0.000 A 
ATOM      6  C   UNL     1       7.553   4.638  17.120  0.00  0.00    +0.000 A 
ATOM      7  C   UNL     1       6.244   4.419  16.672  0.00  0.00    +0.000 A 
ATOM      8  C   UNL     1       5.236   4.878  17.514  0.00  0.00    +0.000 A 
ATOM      9  N   UNL     1       3.856   4.943  17.404  0.00  0.00    +0.000 N 
ENDROOT
BRANCH   1  10
ATOM     10  C   UNL     1       3.300   7.379  17.645  0.00  0.00    +0.000 C 
BRANCH  10  11
ATOM     11  C   UNL     1       2.150   8.113  18.350  0.00  0.00    +0.000 C 
BRANCH  11  14
ATOM     12  O   UNL     1       1.656  11.697  18.295  0.00  0.00    +0.000 OA
ATOM     13  C   UNL     1       1.407  10.521  18.592  0.00  0.00    +0.000 C 
ATOM     14  N   UNL     1       2.298   9.555  18.240  0.00  0.00    +0.000 N 
ATOM     15  H   UNL     1       3.114   9.910  17.751  0.00  0.00    +0.000 HD
BRANCH  13  16
ATOM     16  C   UNL     1       0.153  10.135  19.347  0.00  0.00    +0.000 C 
BRANCH  16  17
ATOM     17  C   UNL     1      -1.110  10.474  18.597  0.00  0.00    +0.000 A 
ATOM     18  C   UNL     1      -1.425   9.804  17.406  0.00  0.00    +0.000 A 
ATOM     19  C   UNL     1      -2.599  10.100  16.717  0.00  0.00    +0.000 A 
ATOM     20  C   UNL     1      -3.472  11.068  17.209  0.00  0.00    +0.000 A 
ATOM     21  C   UNL     1      -3.169  11.742  18.389  0.00  0.00    +0.000 A 
ATOM     22  C   UNL     1      -1.995  11.446  19.083  0.00  0.00    +0.000 A 
ENDBRANCH  16  17
ENDBRANCH  13  16
ENDBRANCH  11  14
ENDBRANCH  10  11
ENDBRANCH   1  10
BRANCH   9  23
ATOM     23  C   UNL     1       3.024   3.746  17.291  0.00  0.00    +0.000 C 
BRANCH  23  24
ATOM     24  C   UNL     1       2.433   3.266  18.597  0.00  0.00    +0.000 A 
ATOM     25  C   UNL     1       3.240   2.611  19.544  0.00  0.00    +0.000 A 
ATOM     26  C   UNL     1       2.755   2.337  20.829  0.00  0.00    +0.000 A 
ATOM     27  C   UNL     1       1.458   2.702  21.160  0.00  0.00    +0.000 A 
ATOM     28  F   UNL     1       1.012   2.495  22.408  0.00  0.00    +0.000 F 
ATOM     29  C   UNL     1       0.627   3.309  20.228  0.00  0.00    +0.000 A 
ATOM     30  C   UNL     1       1.108   3.587  18.944  0.00  0.00    +0.000 A 
ENDBRANCH  23  24
ENDBRANCH   9  23
TORSDOF 7
ENDMDL
MODEL 6
REMARK VINA RESULT:      -8.5      1.556      2.176
REMARK  Name = 
REMARK  7 active torsions:
REMARK  status: ('A' for Active; 'I' for Inactive)
REMARK    1  A    between atoms: C_2  and  C_3
REMARK    2  A    between atoms: C_3  and  C_4
REMARK    3  A    between atoms: N_10  and  C_11
REMARK    4  A    between atoms: C_11  and  C_12
REMARK    5  A    between atoms: C_12  and  C_13
REMARK    6  A    between atoms: N_21  and  C_22
REMARK    7  A    between atoms: C_22  and  C_23
REMARK                            x       y       z     vdW  Elec       q    Type
REMARK                         _______ _______ _______ _____ _____    ______ ____
ROOT
ATOM      1  C   UNL     1       2.365   5.252  17.747  0.00  0.00    +0.000 A 
ATOM      2  N   UNL     1       1.482   4.267  17.676  0.00  0.00    +0.000 NA
ATOM      3  C   UNL     1       1.644   3.679  18.904  0.00  0.00    +0.000 A 
ATOM      4  C   UNL     1       0.735   2.952  19.674  0.00  0.00    +0.000 A 
ATOM      5  C   UNL     1       1.111   2.622  20.980  0.00  0.00    +0.000 A 
ATOM      6  C   UNL     1       2.386   2.937  21.470  0.00  0.00    +0.000 A 
ATOM      7  C   UNL     1       3.338   3.595  20.681  0.00  0.00    +0.000 A 
ATOM      8  C   UNL     1       2.904   3.987  19.418  0.00  0.00    +0.000 A 
ATOM      9  N   UNL     1       3.482   4.724  18.396  0.00  0.00    +0.000 N 
ENDROOT
BRANCH   1  10
ATOM     10  C   UNL     1       1.934   6.668  18.041  0.00  0.00    +0.000 C 
BRANCH  10  11
ATOM     11  C   UNL     1       2.678   7.251  19.251  0.00  0.00    +0.000 C 
BRANCH  11  14
ATOM     12  O   UNL     1       0.520   8.800  21.708  0.00  0.00    +0.000 OA
ATOM     13  C   UNL     1       1.161   8.716  20.651  0.00  0.00    +0.000 C 
ATOM     14  N   UNL     1       1.765   7.536  20.346  0.00  0.00    +0.000 N 
ATOM     15  H   UNL     1       1.620   6.811  21.041  0.00  0.00    +0.000 HD
BRANCH  13  16
ATOM     16  C   UNL     1       1.276   9.881  19.691  0.00  0.00    +0.000 C 
BRANCH  16  17
ATOM     17  C   UNL     1      -0.050  10.280  19.094  0.00  0.00    +0.000 A 
ATOM     18  C   UNL     1      -0.484   9.707  17.890  0.00  0.00    +0.000 A 
ATOM     19  C   UNL     1      -1.715  10.060  17.342  0.00  0.00    +0.000 A 
ATOM     20  C   UNL     1      -2.528  10.987  17.991  0.00  0.00    +0.000 A 
ATOM     21  C   UNL     1      -2.107  11.565  19.186  0.00  0.00    +0.000 A 
ATOM     22  C   UNL     1      -0.875  11.213  19.738  0.00  0.00    +0.000 A 
ENDBRANCH  16  17
ENDBRANCH  13  16
ENDBRANCH  11  14
ENDBRANCH  10  11
ENDBRANCH   1  10
BRANCH   9  23
ATOM     23  C   UNL     1       4.681   4.274  17.691  0.00  0.00    +0.000 C 
BRANCH  23  24
ATOM     24  C   UNL     1       5.879   5.184  17.845  0.00  0.00    +0.000 A 
ATOM     25  C   UNL     1       6.002   6.337  17.049  0.00  0.00    +0.000 A 
ATOM     26  C   UNL     1       6.999   7.285  17.314  0.00  0.00    +0.000 A 
ATOM     27  C   UNL     1       7.882   7.069  18.363  0.00  0.00    +0.000 A 
ATOM     28  F   UNL     1       8.798   8.004  18.656  0.00  0.00    +0.000 F 
ATOM     29  C   UNL     1       7.809   5.917  19.134  0.00  0.00    +0.000 A 
ATOM     30  C   UNL     1       6.813   4.969  18.874  0.00  0.00    +0.000 A 
ENDBRANCH  23  24
ENDBRANCH   9  23
TORSDOF 7
ENDMDL
MODEL 7
REMARK VINA RESULT:      -8.5      1.440      1.877
REMARK  Name = 
REMARK  7 active torsions:
REMARK  status: ('A' for Active; 'I' for Inactive)
REMARK    1  A    between atoms: C_2  and  C_3
REMARK    2  A    between atoms: C_3  and  C_4
REMARK    3  A    between atoms: N_10  and  C_11
REMARK    4  A    between atoms: C_11  and  C_12
REMARK    5  A    between atoms: C_12  and  C_13
REMARK    6  A    between atoms: N_21  and  C_22
REMARK    7  A    between atoms: C_22  and  C_23
REMARK                            x       y       z     vdW  Elec       q    Type
REMARK                         _______ _______ _______ _____ _____    ______ ____
ROOT
ATOM      1  C   UNL     1       3.141   6.206  18.650  0.00  0.00    +0.000 A 
ATOM      2  N   UNL     1       2.592   5.385  17.768  0.00  0.00    +0.000 NA
ATOM      3  C   UNL     1       2.147   4.379  18.587  0.00  0.00    +0.000 A 
ATOM      4  C   UNL     1       1.084   3.491  18.418  0.00  0.00    +0.000 A 
ATOM      5  C   UNL     1       0.737   2.680  19.503  0.00  0.00    +0.000 A 
ATOM      6  C   UNL     1       1.482   2.698  20.689  0.00  0.00    +0.000 A 
ATOM      7  C   UNL     1       2.601   3.526  20.846  0.00  0.00    +0.000 A 
ATOM      8  C   UNL     1       2.868   4.383  19.782  0.00  0.00    +0.000 A 
ATOM      9  N   UNL     1       3.792   5.396  19.581  0.00  0.00    +0.000 N 
ENDROOT
BRANCH   1  10
ATOM     10  C   UNL     1       2.418   7.446  19.119  0.00  0.00    +0.000 C 
BRANCH  10  11
ATOM     11  C   UNL     1       2.489   8.576  18.081  0.00  0.00    +0.000 C 
BRANCH  11  14
ATOM     12  O   UNL     1      -0.775  10.124  17.888  0.00  0.00    +0.000 OA
ATOM     13  C   UNL     1       0.391   9.979  18.277  0.00  0.00    +0.000 C 
ATOM     14  N   UNL     1       1.160   9.020  17.694  0.00  0.00    +0.000 N 
ATOM     15  H   UNL     1       0.682   8.501  16.964  0.00  0.00    +0.000 HD
BRANCH  13  16
ATOM     16  C   UNL     1       0.984  10.846  19.368  0.00  0.00    +0.000 C 
BRANCH  16  17
ATOM     17  C   UNL     1       0.313  10.648  20.704  0.00  0.00    +0.000 A 
ATOM     18  C   UNL     1       0.256   9.371  21.282  0.00  0.00    +0.000 A 
ATOM     19  C   UNL     1      -0.347   9.184  22.523  0.00  0.00    +0.000 A 
ATOM     20  C   UNL     1      -0.899  10.269  23.202  0.00  0.00    +0.000 A 
ATOM     21  C   UNL     1      -0.851  11.540  22.637  0.00  0.00    +0.000 A 
ATOM     22  C   UNL     1      -0.245  11.732  21.394  0.00  0.00    +0.000 A 
ENDBRANCH  16  17
ENDBRANCH  13  16
ENDBRANCH  11  14
ENDBRANCH  10  11
ENDBRANCH   1  10
BRANCH   9  23
ATOM     23  C   UNL     1       5.232   5.147  19.558  0.00  0.00    +0.000 C 
BRANCH  23  24
ATOM     24  C   UNL     1       5.834   5.065  18.173  0.00  0.00    +0.000 A 
ATOM     25  C   UNL     1       5.553   3.967  17.340  0.00  0.00    +0.000 A 
ATOM     26  C   UNL     1       5.943   3.973  15.995  0.00  0.00    +0.000 A 
ATOM     27  C   UNL     1       6.629   5.069  15.490  0.00  0.00    +0.000 A 
ATOM     28  F   UNL     1       6.950   5.102  14.188  0.00  0.00    +0.000 F 
ATOM     29  C   UNL     1       6.957   6.144  16.304  0.00  0.00    +0.000 A 
ATOM     30  C   UNL     1       6.567   6.143  17.648  0.00  0.00    +0.000 A 
ENDBRANCH  23  24
ENDBRANCH   9  23
TORSDOF 7
ENDMDL
MODEL 8
REMARK VINA RESULT:      -8.5      2.370      3.027
REMARK  Name = 
REMARK  7 active torsions:
REMARK  status: ('A' for Active; 'I' for Inactive)
REMARK    1  A    between atoms: C_2  and  C_3
REMARK    2  A    between atoms: C_3  and  C_4
REMARK    3  A    between atoms: N_10  and  C_11
REMARK    4  A    between atoms: C_11  and  C_12
REMARK    5  A    between atoms: C_12  and  C_13
REMARK    6  A    between atoms: N_21  and  C_22
REMARK    7  A    between atoms: C_22  and  C_23
REMARK                            x       y       z     vdW  Elec       q    Type
REMARK                         _______ _______ _______ _____ _____    ______ ____
ROOT
ATOM      1  C   UNL     1       3.041   5.317  17.772  0.00  0.00    +0.000 A 
ATOM      2  N   UNL     1       1.766   5.060  18.023  0.00  0.00    +0.000 NA
ATOM      3  C   UNL     1       1.872   4.269  19.138  0.00  0.00    +0.000 A 
ATOM      4  C   UNL     1       0.970   4.073  20.184  0.00  0.00    +0.000 A 
ATOM      5  C   UNL     1       1.413   3.347  21.295  0.00  0.00    +0.000 A 
ATOM      6  C   UNL     1       2.688   2.767  21.321  0.00  0.00    +0.000 A 
ATOM      7  C   UNL     1       3.576   2.887  20.244  0.00  0.00    +0.000 A 
ATOM      8  C   UNL     1       3.139   3.687  19.192  0.00  0.00    +0.000 A 
ATOM      9  N   UNL     1       3.731   4.130  18.019  0.00  0.00    +0.000 N 
ENDROOT
BRANCH   1  10
ATOM     10  C   UNL     1       3.664   6.635  18.163  0.00  0.00    +0.000 C 
BRANCH  10  11
ATOM     11  C   UNL     1       2.673   7.800  18.023  0.00  0.00    +0.000 C 
BRANCH  11  14
ATOM     12  O   UNL     1       0.781   9.174  20.783  0.00  0.00    +0.000 OA
ATOM     13  C   UNL     1       1.229   9.118  19.630  0.00  0.00    +0.000 C 
ATOM     14  N   UNL     1       1.937   8.018  19.257  0.00  0.00    +0.000 N 
ATOM     15  H   UNL     1       2.028   7.322  19.991  0.00  0.00    +0.000 HD
BRANCH  13  16
ATOM     16  C   UNL     1       0.995  10.227  18.627  0.00  0.00    +0.000 C 
BRANCH  16  17
ATOM     17  C   UNL     1      -0.467  10.529  18.417  0.00  0.00    +0.000 A 
ATOM     18  C   UNL     1      -1.223   9.766  17.515  0.00  0.00    +0.000 A 
ATOM     19  C   UNL     1      -2.578  10.029  17.329  0.00  0.00    +0.000 A 
ATOM     20  C   UNL     1      -3.195  11.055  18.042  0.00  0.00    +0.000 A 
ATOM     21  C   UNL     1      -2.454  11.822  18.937  0.00  0.00    +0.000 A 
ATOM     22  C   UNL     1      -1.097  11.560  19.128  0.00  0.00    +0.000 A 
ENDBRANCH  16  17
ENDBRANCH  13  16
ENDBRANCH  11  14
ENDBRANCH  10  11
ENDBRANCH   1  10
BRANCH   9  23
ATOM     23  C   UNL     1       4.152   3.212  16.962  0.00  0.00    +0.000 C 
BRANCH  23  24
ATOM     24  C   UNL     1       5.297   3.715  16.112  0.00  0.00    +0.000 A 
ATOM     25  C   UNL     1       5.246   3.599  14.711  0.00  0.00    +0.000 A 
ATOM     26  C   UNL     1       6.202   4.231  13.906  0.00  0.00    +0.000 A 
ATOM     27  C   UNL     1       7.218   4.963  14.504  0.00  0.00    +0.000 A 
ATOM     28  F   UNL     1       8.100   5.619  13.734  0.00  0.00    +0.000 F 
ATOM     29  C   UNL     1       7.316   5.054  15.886  0.00  0.00    +0.000 A 
ATOM     30  C   UNL     1       6.361   4.426  16.693  0.00  0.00    +0.000 A 
ENDBRANCH  23  24
ENDBRANCH   9  23
TORSDOF 7
ENDMDL
MODEL 9
REMARK VINA RESULT:      -8.5      3.735      7.937
REMARK  Name = 
REMARK  7 active torsions:
REMARK  status: ('A' for Active; 'I' for Inactive)
REMARK    1  A    between atoms: C_2  and  C_3
REMARK    2  A    between atoms: C_3  and  C_4
REMARK    3  A    between atoms: N_10  and  C_11
REMARK    4  A    between atoms: C_11  and  C_12
REMARK    5  A    between atoms: C_12  and  C_13
REMARK    6  A    between atoms: N_21  and  C_22
REMARK    7  A    between atoms: C_22  and  C_23
REMARK                            x       y       z     vdW  Elec       q    Type
REMARK                         _______ _______ _______ _____ _____    ______ ____
ROOT
ATOM      1  C   UNL     1       3.947   5.755  18.822  0.00  0.00    +0.000 A 
ATOM      2  N   UNL     1       4.491   4.738  19.473  0.00  0.00    +0.000 NA
ATOM      3  C   UNL     1       3.406   3.917  19.633  0.00  0.00    +0.000 A 
ATOM      4  C   UNL     1       3.345   2.529  19.763  0.00  0.00    +0.000 A 
ATOM      5  C   UNL     1       2.083   1.928  19.729  0.00  0.00    +0.000 A 
ATOM      6  C   UNL     1       0.915   2.699  19.651  0.00  0.00    +0.000 A 
ATOM      7  C   UNL     1       0.956   4.098  19.601  0.00  0.00    +0.000 A 
ATOM      8  C   UNL     1       2.228   4.660  19.549  0.00  0.00    +0.000 A 
ATOM      9  N   UNL     1       2.693   5.957  19.399  0.00  0.00    +0.000 N 
ENDROOT
BRANCH   1  10
ATOM     10  C   UNL     1       4.111   5.904  17.329  0.00  0.00    +0.000 C 
BRANCH  10  11
ATOM     11  C   UNL     1       5.322   6.778  16.972  0.00  0.00    +0.000 C 
BRANCH  11  14
ATOM     12  O   UNL     1       7.968   4.317  17.151  0.00  0.00    +0.000 OA
ATOM     13  C   UNL     1       6.906   4.815  16.755  0.00  0.00    +0.000 C 
ATOM     14  N   UNL     1       6.570   6.062  17.182  0.00  0.00    +0.000 N 
ATOM     15  H   UNL     1       7.254   6.479  17.806  0.00  0.00    +0.000 HD
BRANCH  13  16
ATOM     16  C   UNL     1       5.986   4.083  15.801  0.00  0.00    +0.000 C 
BRANCH  16  17
ATOM     17  C   UNL     1       6.420   4.200  14.362  0.00  0.00    +0.000 A 
ATOM     18  C   UNL     1       7.405   5.130  13.996  0.00  0.00    +0.000 A 
ATOM     19  C   UNL     1       7.823   5.232  12.671  0.00  0.00    +0.000 A 
ATOM     20  C   UNL     1       7.265   4.406  11.697  0.00  0.00    +0.000 A 
ATOM     21  C   UNL     1       6.285   3.481  12.049  0.00  0.00    +0.000 A 
ATOM     22  C   UNL     1       5.865   3.376  13.375  0.00  0.00    +0.000 A 
ENDBRANCH  16  17
ENDBRANCH  13  16
ENDBRANCH  11  14
ENDBRANCH  10  11
ENDBRANCH   1  10
BRANCH   9  23
ATOM     23  C   UNL     1       2.424   7.002  20.386  0.00  0.00    +0.000 C 
BRANCH  23  24
ATOM     24  C   UNL     1       1.696   8.210  19.841  0.00  0.00    +0.000 A 
ATOM     25  C   UNL     1       1.868   8.597  18.499  0.00  0.00    +0.000 A 
ATOM     26  C   UNL     1       1.057   9.589  17.933  0.00  0.00    +0.000 A 
ATOM     27  C   UNL     1       0.087  10.203  18.712  0.00  0.00    +0.000 A 
ATOM     28  F   UNL     1      -0.730  11.109  18.155  0.00  0.00    +0.000 F 
ATOM     29  C   UNL     1      -0.071   9.870  20.051  0.00  0.00    +0.000 A 
ATOM     30  C   UNL     1       0.736   8.878  20.620  0.00  0.00    +0.000 A 
ENDBRANCH  23  24
ENDBRANCH   9  23
TORSDOF 7
ENDMDL
