MODEL 1
REMARK VINA RESULT:      -7.5      0.000      0.000
REMARK  Name = 
REMARK  4 active torsions:
REMARK  status: ('A' for Active; 'I' for Inactive)
REMARK    1  A    between atoms: C_1  and  C_2
REMARK    2  A    between atoms: C_5  and  C_6
REMARK    3  A    between atoms: C_10  and  C_11
REMARK    4  A    between atoms: N_22  and  C_23
REMARK                            x       y       z     vdW  Elec       q    Type
REMARK                         _______ _______ _______ _____ _____    ______ ____
ROOT
ATOM      1  C   UNL     1      -0.086   9.220  21.422  0.00  0.00    +0.000 C 
ATOM      2  O   UNL     1      -0.667   8.272  21.949  0.00  0.00    +0.000 OA
ATOM      3  N   UNL     1      -0.157  10.523  21.926  0.00  0.00    +0.000 N 
ATOM      4  C   UNL     1      -1.032  10.809  23.058  0.00  0.00    +0.000 C 
ATOM      5  C   UNL     1      -2.099  11.832  22.661  0.00  0.00    +0.000 C 
ATOM      6  C   UNL     1      -1.494  13.079  21.981  0.00  0.00    +0.000 C 
ATOM      7  C   UNL     1      -0.475  12.698  20.891  0.00  0.00    +0.000 C 
ATOM      8  C   UNL     1       0.220  13.962  20.385  0.00  0.00    +0.000 C 
ATOM      9  C   UNL     1      -0.787  14.993  19.902  0.00  0.00    +0.000 C 
ATOM     10  C   UNL     1      -1.973  15.205  20.820  0.00  0.00    +0.000 C 
ATOM     11  O   UNL     1      -2.555  16.289  20.857  0.00  0.00    +0.000 OA
ATOM     12  N   UNL     1      -2.458  14.036  21.412  0.00  0.00    +0.000 N 
ATOM     13  C   UNL     1       0.548  11.698  21.432  0.00  0.00    +0.000 C 
ENDROOT
BRANCH   1  18
ATOM     14  C   UNL     1       2.366   7.514  19.039  0.00  0.00    +0.000 A 
ATOM     15  C   UNL     1       2.161   8.301  17.897  0.00  0.00    +0.000 A 
ATOM     16  C   UNL     1       1.316   9.412  17.933  0.00  0.00    +0.000 A 
ATOM     17  C   UNL     1       0.612   9.717  19.098  0.00  0.00    +0.000 A 
ATOM     18  C   UNL     1       0.757   8.914  20.233  0.00  0.00    +0.000 A 
ATOM     19  C   UNL     1       1.688   7.865  20.218  0.00  0.00    +0.000 A 
BRANCH  14  24
ATOM     20  C   UNL     1       6.131   4.565  17.836  0.00  0.00    +0.000 C 
ATOM     21  C   UNL     1       4.865   4.910  18.534  0.00  0.00    +0.000 A 
ATOM     22  C   UNL     1       4.188   4.120  19.441  0.00  0.00    +0.000 A 
ATOM     23  S   UNL     1       2.793   4.933  20.004  0.00  0.00    +0.000 S 
ATOM     24  C   UNL     1       3.192   6.293  19.026  0.00  0.00    +0.000 A 
ATOM     25  N   UNL     1       4.275   6.141  18.285  0.00  0.00    +0.000 NA
ENDBRANCH  14  24
ENDBRANCH   1  18
BRANCH  12  26
ATOM     26  C   UNL     1      -3.862  13.943  21.724  0.00  0.00    +0.000 C 
ATOM     27  C   UNL     1      -4.667  12.745  21.266  0.00  0.00    +0.000 C 
ATOM     28  C   UNL     1      -4.893  14.070  20.619  0.00  0.00    +0.000 C 
ENDBRANCH  12  26
TORSDOF 3
ENDMDL
MODEL 2
REMARK VINA RESULT:      -7.4      2.693      3.247
REMARK  Name = 
REMARK  4 active torsions:
REMARK  status: ('A' for Active; 'I' for Inactive)
REMARK    1  A    between atoms: C_1  and  C_2
REMARK    2  A    between atoms: C_5  and  C_6
REMARK    3  A    between atoms: C_10  and  C_11
REMARK    4  A    between atoms: N_22  and  C_23
REMARK                            x       y       z     vdW  Elec       q    Type
REMARK                         _______ _______ _______ _____ _____    ______ ____
ROOT
ATOM      1  C   UNL     1       0.605  10.319  20.629  0.00  0.00    +0.000 C 
ATOM      2  O   UNL     1       0.831  10.264  21.838  0.00  0.00    +0.000 OA
ATOM      3  N   UNL     1      -0.235  11.282  20.062  0.00  0.00    +0.000 N 
ATOM      4  C   UNL     1      -0.965  12.202  20.930  0.00  0.00    +0.000 C 
ATOM      5  C   UNL     1      -2.473  12.028  20.742  0.00  0.00    +0.000 C 
ATOM      6  C   UNL     1      -2.890  12.075  19.256  0.00  0.00    +0.000 C 
ATOM      7  C   UNL     1      -1.987  11.187  18.380  0.00  0.00    +0.000 C 
ATOM      8  C   UNL     1      -2.328  11.415  16.908  0.00  0.00    +0.000 C 
ATOM      9  C   UNL     1      -3.806  11.183  16.639  0.00  0.00    +0.000 C 
ATOM     10  C   UNL     1      -4.745  11.812  17.647  0.00  0.00    +0.000 C 
ATOM     11  O   UNL     1      -5.880  12.157  17.321  0.00  0.00    +0.000 OA
ATOM     12  N   UNL     1      -4.297  11.746  18.969  0.00  0.00    +0.000 N 
ATOM     13  C   UNL     1      -0.511  11.487  18.646  0.00  0.00    +0.000 C 
ENDROOT
BRANCH   1  18
ATOM     14  C   UNL     1       2.249   7.111  19.359  0.00  0.00    +0.000 A 
ATOM     15  C   UNL     1       2.481   7.484  18.028  0.00  0.00    +0.000 A 
ATOM     16  C   UNL     1       2.194   8.777  17.584  0.00  0.00    +0.000 A 
ATOM     17  C   UNL     1       1.610   9.700  18.452  0.00  0.00    +0.000 A 
ATOM     18  C   UNL     1       1.316   9.334  19.768  0.00  0.00    +0.000 A 
ATOM     19  C   UNL     1       1.705   8.068  20.232  0.00  0.00    +0.000 A 
BRANCH  14  24
ATOM     20  C   UNL     1       1.250   2.894  21.712  0.00  0.00    +0.000 C 
ATOM     21  C   UNL     1       2.082   3.806  20.884  0.00  0.00    +0.000 A 
ATOM     22  C   UNL     1       3.296   3.503  20.299  0.00  0.00    +0.000 A 
ATOM     23  S   UNL     1       3.878   4.849  19.420  0.00  0.00    +0.000 S 
ATOM     24  C   UNL     1       2.468   5.739  19.851  0.00  0.00    +0.000 A 
ATOM     25  N   UNL     1       1.629   5.094  20.641  0.00  0.00    +0.000 NA
ENDBRANCH  14  24
ENDBRANCH   1  18
BRANCH  12  26
ATOM     26  C   UNL     1      -5.267  11.665  20.031  0.00  0.00    +0.000 C 
ATOM     27  C   UNL     1      -6.704  12.074  19.786  0.00  0.00    +0.000 C 
ATOM     28  C   UNL     1      -5.833  12.934  20.639  0.00  0.00    +0.000 C 
ENDBRANCH  12  26
TORSDOF 3
ENDMDL
MODEL 3
REMARK VINA RESULT:      -7.4      0.796      1.086
REMARK  Name = 
REMARK  4 active torsions:
REMARK  status: ('A' for Active; 'I' for Inactive)
REMARK    1  A    between atoms: C_1  and  C_2
REMARK    2  A    between atoms: C_5  and  C_6
REMARK    3  A    between atoms: C_10  and  C_11
REMARK    4  A    between atoms: N_22  and  C_23
REMARK                            x       y       z     vdW  Elec       q    Type
REMARK                         _______ _______ _______ _____ _____    ______ ____
ROOT
ATOM      1  C   UNL     1       0.097   9.202  21.340  0.00  0.00    +0.000 C 
ATOM      2  O   UNL     1      -0.484   8.268  21.892  0.00  0.00    +0.000 OA
ATOM      3  N   UNL     1       0.041  10.515  21.820  0.00  0.00    +0.000 N 
ATOM      4  C   UNL     1      -0.820  10.830  22.955  0.00  0.00    +0.000 C 
ATOM      5  C   UNL     1      -1.884  11.851  22.550  0.00  0.00    +0.000 C 
ATOM      6  C   UNL     1      -1.279  13.080  21.838  0.00  0.00    +0.000 C 
ATOM      7  C   UNL     1      -0.275  12.671  20.745  0.00  0.00    +0.000 C 
ATOM      8  C   UNL     1       0.423  13.920  20.206  0.00  0.00    +0.000 C 
ATOM      9  C   UNL     1      -0.583  14.948  19.714  0.00  0.00    +0.000 C 
ATOM     10  C   UNL     1      -1.758  15.186  20.641  0.00  0.00    +0.000 C 
ATOM     11  O   UNL     1      -2.332  16.274  20.663  0.00  0.00    +0.000 OA
ATOM     12  N   UNL     1      -2.243  14.033  21.261  0.00  0.00    +0.000 N 
ATOM     13  C   UNL     1       0.748  11.675  21.294  0.00  0.00    +0.000 C 
ENDROOT
BRANCH   1  18
ATOM     14  C   UNL     1       2.481   7.412  18.949  0.00  0.00    +0.000 A 
ATOM     15  C   UNL     1       2.299   8.205  17.807  0.00  0.00    +0.000 A 
ATOM     16  C   UNL     1       1.492   9.345  17.846  0.00  0.00    +0.000 A 
ATOM     17  C   UNL     1       0.804   9.674  19.014  0.00  0.00    +0.000 A 
ATOM     18  C   UNL     1       0.925   8.867  20.148  0.00  0.00    +0.000 A 
ATOM     19  C   UNL     1       1.819   7.786  20.130  0.00  0.00    +0.000 A 
BRANCH  14  24
ATOM     20  C   UNL     1       3.699   2.777  20.114  0.00  0.00    +0.000 C 
ATOM     21  C   UNL     1       3.869   4.074  19.407  0.00  0.00    +0.000 A 
ATOM     22  C   UNL     1       4.830   4.372  18.462  0.00  0.00    +0.000 A 
ATOM     23  S   UNL     1       4.630   5.975  17.903  0.00  0.00    +0.000 S 
ATOM     24  C   UNL     1       3.263   6.163  18.934  0.00  0.00    +0.000 A 
ATOM     25  N   UNL     1       2.993   5.112  19.687  0.00  0.00    +0.000 NA
ENDBRANCH  14  24
ENDBRANCH   1  18
BRANCH  12  26
ATOM     26  C   UNL     1      -3.644  13.955  21.590  0.00  0.00    +0.000 C 
ATOM     27  C   UNL     1      -4.429  12.695  21.290  0.00  0.00    +0.000 C 
ATOM     28  C   UNL     1      -4.681  13.925  20.484  0.00  0.00    +0.000 C 
ENDBRANCH  12  26
TORSDOF 3
ENDMDL
MODEL 4
REMARK VINA RESULT:      -7.3      2.335      4.208
REMARK  Name = 
REMARK  4 active torsions:
REMARK  status: ('A' for Active; 'I' for Inactive)
REMARK    1  A    between atoms: C_1  and  C_2
REMARK    2  A    between atoms: C_5  and  C_6
REMARK    3  A    between atoms: C_10  and  C_11
REMARK    4  A    between atoms: N_22  and  C_23
REMARK                            x       y       z     vdW  Elec       q    Type
REMARK                         _______ _______ _______ _____ _____    ______ ____
ROOT
ATOM      1  C   UNL     1      -0.550  13.020  21.666  0.00  0.00    +0.000 C 
ATOM      2  O   UNL     1       0.292  13.716  22.233  0.00  0.00    +0.000 OA
ATOM      3  N   UNL     1      -1.626  13.565  20.958  0.00  0.00    +0.000 N 
ATOM      4  C   UNL     1      -1.836  15.009  20.967  0.00  0.00    +0.000 C 
ATOM      5  C   UNL     1      -3.194  15.346  21.585  0.00  0.00    +0.000 C 
ATOM      6  C   UNL     1      -4.345  14.531  20.956  0.00  0.00    +0.000 C 
ATOM      7  C   UNL     1      -3.995  13.035  20.852  0.00  0.00    +0.000 C 
ATOM      8  C   UNL     1      -5.087  12.314  20.062  0.00  0.00    +0.000 C 
ATOM      9  C   UNL     1      -6.459  12.548  20.672  0.00  0.00    +0.000 C 
ATOM     10  C   UNL     1      -6.750  13.983  21.058  0.00  0.00    +0.000 C 
ATOM     11  O   UNL     1      -7.904  14.413  21.062  0.00  0.00    +0.000 OA
ATOM     12  N   UNL     1      -5.661  14.664  21.605  0.00  0.00    +0.000 N 
ATOM     13  C   UNL     1      -2.630  12.843  20.188  0.00  0.00    +0.000 C 
ENDROOT
BRANCH   1  18
ATOM     14  C   UNL     1       0.567   9.466  20.816  0.00  0.00    +0.000 A 
ATOM     15  C   UNL     1       0.153   8.810  21.983  0.00  0.00    +0.000 A 
ATOM     16  C   UNL     1      -0.554   9.490  22.977  0.00  0.00    +0.000 A 
ATOM     17  C   UNL     1      -0.801  10.857  22.846  0.00  0.00    +0.000 A 
ATOM     18  C   UNL     1      -0.348  11.545  21.718  0.00  0.00    +0.000 A 
ATOM     19  C   UNL     1       0.267  10.831  20.678  0.00  0.00    +0.000 A 
BRANCH  14  24
ATOM     20  C   UNL     1       3.353   5.964  18.741  0.00  0.00    +0.000 C 
ATOM     21  C   UNL     1       2.632   7.264  18.774  0.00  0.00    +0.000 A 
ATOM     22  C   UNL     1       2.502   8.155  17.728  0.00  0.00    +0.000 A 
ATOM     23  S   UNL     1       1.571   9.504  18.214  0.00  0.00    +0.000 S 
ATOM     24  C   UNL     1       1.377   8.805  19.776  0.00  0.00    +0.000 A 
ATOM     25  N   UNL     1       2.005   7.656  19.947  0.00  0.00    +0.000 NA
ENDBRANCH  14  24
ENDBRANCH   1  18
BRANCH  12  26
ATOM     26  C   UNL     1      -5.902  15.699  22.578  0.00  0.00    +0.000 C 
ATOM     27  C   UNL     1      -5.207  15.660  23.922  0.00  0.00    +0.000 C 
ATOM     28  C   UNL     1      -6.670  15.382  23.847  0.00  0.00    +0.000 C 
ENDBRANCH  12  26
TORSDOF 3
ENDMDL
MODEL 5
REMARK VINA RESULT:      -7.3      2.591      3.427
REMARK  Name = 
REMARK  4 active torsions:
REMARK  status: ('A' for Active; 'I' for Inactive)
REMARK    1  A    between atoms: C_1  and  C_2
REMARK    2  A    between atoms: C_5  and  C_6
REMARK    3  A    between atoms: C_10  and  C_11
REMARK    4  A    between atoms: N_22  and  C_23
REMARK                            x       y       z     vdW  Elec       q    Type
REMARK                         _______ _______ _______ _____ _____    ______ ____
ROOT
ATOM      1  C   UNL     1       0.897  10.476  20.402  0.00  0.00    +0.000 C 
ATOM      2  O   UNL     1       1.476  11.126  21.272  0.00  0.00    +0.000 OA
ATOM      3  N   UNL     1       0.065  11.069  19.446  0.00  0.00    +0.000 N 
ATOM      4  C   UNL     1      -0.225  12.497  19.531  0.00  0.00    +0.000 C 
ATOM      5  C   UNL     1      -1.726  12.726  19.717  0.00  0.00    +0.000 C 
ATOM      6  C   UNL     1      -2.571  11.956  18.679  0.00  0.00    +0.000 C 
ATOM      7  C   UNL     1      -2.117  10.491  18.545  0.00  0.00    +0.000 C 
ATOM      8  C   UNL     1      -2.862   9.835  17.383  0.00  0.00    +0.000 C 
ATOM      9  C   UNL     1      -4.367   9.962  17.547  0.00  0.00    +0.000 C 
ATOM     10  C   UNL     1      -4.851  11.337  17.960  0.00  0.00    +0.000 C 
ATOM     11  O   UNL     1      -5.972  11.732  17.641  0.00  0.00    +0.000 OA
ATOM     12  N   UNL     1      -4.030  11.980  18.888  0.00  0.00    +0.000 N 
ATOM     13  C   UNL     1      -0.604  10.412  18.332  0.00  0.00    +0.000 C 
ENDROOT
BRANCH   1  18
ATOM     14  C   UNL     1       2.374   7.062  19.529  0.00  0.00    +0.000 A 
ATOM     15  C   UNL     1       1.737   6.281  20.503  0.00  0.00    +0.000 A 
ATOM     16  C   UNL     1       0.783   6.837  21.359  0.00  0.00    +0.000 A 
ATOM     17  C   UNL     1       0.498   8.201  21.294  0.00  0.00    +0.000 A 
ATOM     18  C   UNL     1       1.162   9.011  20.370  0.00  0.00    +0.000 A 
ATOM     19  C   UNL     1       2.039   8.423  19.445  0.00  0.00    +0.000 A 
BRANCH  14  24
ATOM     20  C   UNL     1       5.174   6.648  15.490  0.00  0.00    +0.000 C 
ATOM     21  C   UNL     1       4.744   6.296  16.869  0.00  0.00    +0.000 A 
ATOM     22  C   UNL     1       5.348   5.379  17.706  0.00  0.00    +0.000 A 
ATOM     23  S   UNL     1       4.526   5.318  19.204  0.00  0.00    +0.000 S 
ATOM     24  C   UNL     1       3.436   6.534  18.655  0.00  0.00    +0.000 A 
ATOM     25  N   UNL     1       3.638   6.933  17.412  0.00  0.00    +0.000 NA
ENDBRANCH  14  24
ENDBRANCH   1  18
BRANCH  12  26
ATOM     26  C   UNL     1      -4.625  12.893  19.832  0.00  0.00    +0.000 C 
ATOM     27  C   UNL     1      -4.335  12.757  21.311  0.00  0.00    +0.000 C 
ATOM     28  C   UNL     1      -5.688  12.400  20.795  0.00  0.00    +0.000 C 
ENDBRANCH  12  26
TORSDOF 3
ENDMDL
MODEL 6
REMARK VINA RESULT:      -7.3      2.437      3.348
REMARK  Name = 
REMARK  4 active torsions:
REMARK  status: ('A' for Active; 'I' for Inactive)
REMARK    1  A    between atoms: C_1  and  C_2
REMARK    2  A    between atoms: C_5  and  C_6
REMARK    3  A    between atoms: C_10  and  C_11
REMARK    4  A    between atoms: N_22  and  C_23
REMARK                            x       y       z     vdW  Elec       q    Type
REMARK                         _______ _______ _______ _____ _____    ______ ____
ROOT
ATOM      1  C   UNL     1       1.380   9.003  20.950  0.00  0.00    +0.000 C 
ATOM      2  O   UNL     1       1.731   9.195  22.114  0.00  0.00    +0.000 OA
ATOM      3  N   UNL     1       0.823  10.009  20.155  0.00  0.00    +0.000 N 
ATOM      4  C   UNL     1       0.542  11.316  20.740  0.00  0.00    +0.000 C 
ATOM      5  C   UNL     1      -0.955  11.624  20.660  0.00  0.00    +0.000 C 
ATOM      6  C   UNL     1      -1.523  11.417  19.240  0.00  0.00    +0.000 C 
ATOM      7  C   UNL     1      -1.070  10.077  18.632  0.00  0.00    +0.000 C 
ATOM      8  C   UNL     1      -1.508  10.010  17.169  0.00  0.00    +0.000 C 
ATOM      9  C   UNL     1      -3.005  10.234  17.029  0.00  0.00    +0.000 C 
ATOM     10  C   UNL     1      -3.557  11.388  17.840  0.00  0.00    +0.000 C 
ATOM     11  O   UNL     1      -4.557  12.000  17.465  0.00  0.00    +0.000 OA
ATOM     12  N   UNL     1      -2.987  11.524  19.107  0.00  0.00    +0.000 N 
ATOM     13  C   UNL     1       0.447   9.914  18.751  0.00  0.00    +0.000 C 
ENDROOT
BRANCH   1  18
ATOM     14  C   UNL     1       2.764   6.123  18.853  0.00  0.00    +0.000 A 
ATOM     15  C   UNL     1       2.171   5.045  19.525  0.00  0.00    +0.000 A 
ATOM     16  C   UNL     1       1.272   5.258  20.573  0.00  0.00    +0.000 A 
ATOM     17  C   UNL     1       1.002   6.556  21.007  0.00  0.00    +0.000 A 
ATOM     18  C   UNL     1       1.624   7.644  20.391  0.00  0.00    +0.000 A 
ATOM     19  C   UNL     1       2.442   7.425  19.272  0.00  0.00    +0.000 A 
BRANCH  14  24
ATOM     20  C   UNL     1       5.665   3.709  15.679  0.00  0.00    +0.000 C 
ATOM     21  C   UNL     1       5.101   4.921  16.329  0.00  0.00    +0.000 A 
ATOM     22  C   UNL     1       5.375   6.232  15.995  0.00  0.00    +0.000 A 
ATOM     23  S   UNL     1       4.484   7.294  16.996  0.00  0.00    +0.000 S 
ATOM     24  C   UNL     1       3.771   5.943  17.792  0.00  0.00    +0.000 A 
ATOM     25  N   UNL     1       4.201   4.766  17.373  0.00  0.00    +0.000 NA
ENDBRANCH  14  24
ENDBRANCH   1  18
BRANCH  12  26
ATOM     26  C   UNL     1      -3.787  12.061  20.179  0.00  0.00    +0.000 C 
ATOM     27  C   UNL     1      -4.969  12.956  19.873  0.00  0.00    +0.000 C 
ATOM     28  C   UNL     1      -3.743  13.546  20.485  0.00  0.00    +0.000 C 
ENDBRANCH  12  26
TORSDOF 3
ENDMDL
MODEL 7
REMARK VINA RESULT:      -7.3      3.780      9.463
REMARK  Name = 
REMARK  4 active torsions:
REMARK  status: ('A' for Active; 'I' for Inactive)
REMARK    1  A    between atoms: C_1  and  C_2
REMARK    2  A    between atoms: C_5  and  C_6
REMARK    3  A    between atoms: C_10  and  C_11
REMARK    4  A    between atoms: N_22  and  C_23
REMARK                            x       y       z     vdW  Elec       q    Type
REMARK                         _______ _______ _______ _____ _____    ______ ____
ROOT
ATOM      1  C   UNL     1       2.052   9.080  18.136  0.00  0.00    +0.000 C 
ATOM      2  O   UNL     1       2.495   9.605  17.114  0.00  0.00    +0.000 OA
ATOM      3  N   UNL     1       2.660   7.975  18.740  0.00  0.00    +0.000 N 
ATOM      4  C   UNL     1       3.803   7.339  18.093  0.00  0.00    +0.000 C 
ATOM      5  C   UNL     1       3.480   5.883  17.753  0.00  0.00    +0.000 C 
ATOM      6  C   UNL     1       2.909   5.109  18.961  0.00  0.00    +0.000 C 
ATOM      7  C   UNL     1       1.801   5.904  19.677  0.00  0.00    +0.000 C 
ATOM      8  C   UNL     1       1.405   5.175  20.961  0.00  0.00    +0.000 C 
ATOM      9  C   UNL     1       0.998   3.738  20.680  0.00  0.00    +0.000 C 
ATOM     10  C   UNL     1       1.919   2.986  19.741  0.00  0.00    +0.000 C 
ATOM     11  O   UNL     1       2.038   1.763  19.821  0.00  0.00    +0.000 OA
ATOM     12  N   UNL     1       2.409   3.752  18.681  0.00  0.00    +0.000 N 
ATOM     13  C   UNL     1       2.270   7.327  19.985  0.00  0.00    +0.000 C 
ENDROOT
BRANCH   1  18
ATOM     14  C   UNL     1      -1.426  10.591  18.606  0.00  0.00    +0.000 A 
ATOM     15  C   UNL     1      -1.434  10.719  20.002  0.00  0.00    +0.000 A 
ATOM     16  C   UNL     1      -0.301  10.407  20.758  0.00  0.00    +0.000 A 
ATOM     17  C   UNL     1       0.839   9.902  20.132  0.00  0.00    +0.000 A 
ATOM     18  C   UNL     1       0.850   9.712  18.748  0.00  0.00    +0.000 A 
ATOM     19  C   UNL     1      -0.254  10.127  17.988  0.00  0.00    +0.000 A 
BRANCH  14  24
ATOM     20  C   UNL     1      -5.962  12.180  17.501  0.00  0.00    +0.000 C 
ATOM     21  C   UNL     1      -4.655  11.537  17.206  0.00  0.00    +0.000 A 
ATOM     22  C   UNL     1      -4.231  11.068  15.979  0.00  0.00    +0.000 A 
ATOM     23  S   UNL     1      -2.651  10.428  16.106  0.00  0.00    +0.000 S 
ATOM     24  C   UNL     1      -2.620  10.839  17.778  0.00  0.00    +0.000 A 
ATOM     25  N   UNL     1      -3.736  11.380  18.233  0.00  0.00    +0.000 NA
ENDBRANCH  14  24
ENDBRANCH   1  18
BRANCH  12  26
ATOM     26  C   UNL     1       2.699   3.103  17.427  0.00  0.00    +0.000 C 
ATOM     27  C   UNL     1       3.484   1.809  17.401  0.00  0.00    +0.000 C 
ATOM     28  C   UNL     1       4.122   3.064  16.906  0.00  0.00    +0.000 C 
ENDBRANCH  12  26
TORSDOF 3
ENDMDL
MODEL 8
REMARK VINA RESULT:      -7.3      2.666      3.498
REMARK  Name = 
REMARK  4 active torsions:
REMARK  status: ('A' for Active; 'I' for Inactive)
REMARK    1  A    between atoms: C_1  and  C_2
REMARK    2  A    between atoms: C_5  and  C_6
REMARK    3  A    between atoms: C_10  and  C_11
REMARK    4  A    between atoms: N_22  and  C_23
REMARK                            x       y       z     vdW  Elec       q    Type
REMARK                         _______ _______ _______ _____ _____    ______ ____
ROOT
ATOM      1  C   UNL     1       1.070  10.083  20.543  0.00  0.00    +0.000 C 
ATOM      2  O   UNL     1       1.482  10.582  21.590  0.00  0.00    +0.000 OA
ATOM      3  N   UNL     1       0.404  10.828  19.564  0.00  0.00    +0.000 N 
ATOM      4  C   UNL     1       0.082  12.228  19.819  0.00  0.00    +0.000 C 
ATOM      5  C   UNL     1      -1.433  12.442  19.779  0.00  0.00    +0.000 C 
ATOM      6  C   UNL     1      -2.076  11.854  18.505  0.00  0.00    +0.000 C 
ATOM      7  C   UNL     1      -1.581  10.423  18.223  0.00  0.00    +0.000 C 
ATOM      8  C   UNL     1      -2.106   9.965  16.862  0.00  0.00    +0.000 C 
ATOM      9  C   UNL     1      -3.620  10.081  16.785  0.00  0.00    +0.000 C 
ATOM     10  C   UNL     1      -4.189  11.380  17.318  0.00  0.00    +0.000 C 
ATOM     11  O   UNL     1      -5.245  11.833  16.878  0.00  0.00    +0.000 OA
ATOM     12  N   UNL     1      -3.549  11.861  18.462  0.00  0.00    +0.000 N 
ATOM     13  C   UNL     1      -0.053  10.361  18.262  0.00  0.00    +0.000 C 
ENDROOT
BRANCH   1  18
ATOM     14  C   UNL     1       2.503   6.825  19.153  0.00  0.00    +0.000 A 
ATOM     15  C   UNL     1       2.005   5.929  20.109  0.00  0.00    +0.000 A 
ATOM     16  C   UNL     1       1.150   6.364  21.124  0.00  0.00    +0.000 A 
ATOM     17  C   UNL     1       0.831   7.718  21.235  0.00  0.00    +0.000 A 
ATOM     18  C   UNL     1       1.360   8.639  20.328  0.00  0.00    +0.000 A 
ATOM     19  C   UNL     1       2.131   8.176  19.251  0.00  0.00    +0.000 A 
BRANCH  14  24
ATOM     20  C   UNL     1       5.142   3.778  16.311  0.00  0.00    +0.000 C 
ATOM     21  C   UNL     1       4.679   5.108  16.787  0.00  0.00    +0.000 A 
ATOM     22  C   UNL     1       5.028   6.334  16.258  0.00  0.00    +0.000 A 
ATOM     23  S   UNL     1       4.239   7.590  17.108  0.00  0.00    +0.000 S 
ATOM     24  C   UNL     1       3.463   6.423  18.109  0.00  0.00    +0.000 A 
ATOM     25  N   UNL     1       3.802   5.171  17.860  0.00  0.00    +0.000 NA
ENDBRANCH  14  24
ENDBRANCH   1  18
BRANCH  12  26
ATOM     26  C   UNL     1      -4.311  12.620  19.421  0.00  0.00    +0.000 C 
ATOM     27  C   UNL     1      -4.251  12.271  20.893  0.00  0.00    +0.000 C 
ATOM     28  C   UNL     1      -5.495  11.984  20.122  0.00  0.00    +0.000 C 
ENDBRANCH  12  26
TORSDOF 3
ENDMDL
MODEL 9
REMARK VINA RESULT:      -7.3      4.088      9.380
REMARK  Name = 
REMARK  4 active torsions:
REMARK  status: ('A' for Active; 'I' for Inactive)
REMARK    1  A    between atoms: C_1  and  C_2
REMARK    2  A    between atoms: C_5  and  C_6
REMARK    3  A    between atoms: C_10  and  C_11
REMARK    4  A    between atoms: N_22  and  C_23
REMARK                            x       y       z     vdW  Elec       q    Type
REMARK                         _______ _______ _______ _____ _____    ______ ____
ROOT
ATOM      1  C   UNL     1       2.232   8.885  18.098  0.00  0.00    +0.000 C 
ATOM      2  O   UNL     1       2.751   9.396  17.106  0.00  0.00    +0.000 OA
ATOM      3  N   UNL     1       2.776   7.771  18.744  0.00  0.00    +0.000 N 
ATOM      4  C   UNL     1       3.945   7.109  18.175  0.00  0.00    +0.000 C 
ATOM      5  C   UNL     1       3.615   5.658  17.819  0.00  0.00    +0.000 C 
ATOM      6  C   UNL     1       2.951   4.901  18.989  0.00  0.00    +0.000 C 
ATOM      7  C   UNL     1       1.816   5.721  19.629  0.00  0.00    +0.000 C 
ATOM      8  C   UNL     1       1.322   5.006  20.887  0.00  0.00    +0.000 C 
ATOM      9  C   UNL     1       0.904   3.577  20.584  0.00  0.00    +0.000 C 
ATOM     10  C   UNL     1       1.869   2.802  19.710  0.00  0.00    +0.000 C 
ATOM     11  O   UNL     1       1.957   1.578  19.801  0.00  0.00    +0.000 OA
ATOM     12  N   UNL     1       2.443   3.553  18.682  0.00  0.00    +0.000 N 
ATOM     13  C   UNL     1       2.292   7.136  19.963  0.00  0.00    +0.000 C 
ENDROOT
BRANCH   1  18
ATOM     14  C   UNL     1      -1.254  10.431  18.345  0.00  0.00    +0.000 A 
ATOM     15  C   UNL     1      -1.330  10.605  19.734  0.00  0.00    +0.000 A 
ATOM     16  C   UNL     1      -0.239  10.312  20.555  0.00  0.00    +0.000 A 
ATOM     17  C   UNL     1       0.927   9.779  20.003  0.00  0.00    +0.000 A 
ATOM     18  C   UNL     1       1.006   9.544  18.629  0.00  0.00    +0.000 A 
ATOM     19  C   UNL     1      -0.056   9.940  17.801  0.00  0.00    +0.000 A 
BRANCH  14  24
ATOM     20  C   UNL     1      -3.939  10.190  14.215  0.00  0.00    +0.000 C 
ATOM     21  C   UNL     1      -3.673  10.582  15.624  0.00  0.00    +0.000 A 
ATOM     22  C   UNL     1      -4.549  11.230  16.472  0.00  0.00    +0.000 A 
ATOM     23  S   UNL     1      -3.825  11.457  18.005  0.00  0.00    +0.000 S 
ATOM     24  C   UNL     1      -2.403  10.659  17.451  0.00  0.00    +0.000 A 
ATOM     25  N   UNL     1      -2.441  10.282  16.185  0.00  0.00    +0.000 NA
ENDBRANCH  14  24
ENDBRANCH   1  18
BRANCH  12  26
ATOM     26  C   UNL     1       2.800   2.893  17.451  0.00  0.00    +0.000 C 
ATOM     27  C   UNL     1       3.732   1.700  17.468  0.00  0.00    +0.000 C 
ATOM     28  C   UNL     1       4.215   3.000  16.918  0.00  0.00    +0.000 C 
ENDBRANCH  12  26
TORSDOF 3
ENDMDL
