MODEL 1
REMARK VINA RESULT:      -9.3      0.000      0.000
REMARK  Name = 
REMARK  4 active torsions:
REMARK  status: ('A' for Active; 'I' for Inactive)
REMARK    1  A    between atoms: C_1  and  C_2
REMARK    2  A    between atoms: C_8  and  C_9
REMARK    3  A    between atoms: N_11  and  C_12
REMARK    4  A    between atoms: C_15  and  C_16
REMARK                            x       y       z     vdW  Elec       q    Type
REMARK                         _______ _______ _______ _____ _____    ______ ____
ROOT
ATOM      1  C   UNL     1       6.616   7.105  17.166  0.00  0.00    +0.000 A 
ATOM      2  C   UNL     1       5.311   7.023  16.677  0.00  0.00    +0.000 A 
ATOM      3  C   UNL     1       4.644   5.800  16.621  0.00  0.00    +0.000 A 
ATOM      4  C   UNL     1       5.214   4.627  17.157  0.00  0.00    +0.000 A 
ATOM      5  C   UNL     1       6.543   4.684  17.559  0.00  0.00    +0.000 A 
ATOM      6  C   UNL     1       7.249   5.914  17.542  0.00  0.00    +0.000 A 
ENDROOT
BRANCH   4   7
ATOM      7  C   UNL     1       4.312   3.514  17.516  0.00  0.00    +0.000 A 
ATOM      8  N   UNL     1       4.227   2.247  17.163  0.00  0.00    +0.000 NA
ATOM      9  N   UNL     1       3.174   1.664  17.907  0.00  0.00    +0.000 NA
ATOM     10  C   UNL     1       2.676   2.566  18.731  0.00  0.00    +0.000 A 
ATOM     11  N   UNL     1       3.400   3.685  18.515  0.00  0.00    +0.000 N 
ATOM     12  C   UNL     1       3.307   4.856  19.311  0.00  0.00    +0.000 C 
ATOM     13  C   UNL     1       2.500   5.898  20.034  0.00  0.00    +0.000 C 
ATOM     14  C   UNL     1       1.376   5.207  20.807  0.00  0.00    +0.000 C 
ATOM     15  C   UNL     1       1.188   3.637  20.787  0.00  0.00    +0.000 C 
ATOM     16  C   UNL     1       1.526   2.508  19.715  0.00  0.00    +0.000 C 
ENDBRANCH   4   7
BRANCH   1  19
ATOM     17  C   UNL     1       8.270   8.610  18.250  0.00  0.00    +0.000 C 
ATOM     18  O   UNL     1       8.720   7.806  19.052  0.00  0.00    +0.000 OA
ATOM     19  N   UNL     1       7.293   8.337  17.293  0.00  0.00    +0.000 N 
ATOM     20  H   UNL     1       7.152   9.062  16.600  0.00  0.00    +0.000 HD
BRANCH  17  28
ATOM     21  C   UNL     1      12.224  12.103  19.848  0.00  0.00    +0.000 C 
ATOM     22  C   UNL     1      11.047  12.642  19.097  0.00  0.00    +0.000 A 
ATOM     23  C   UNL     1      10.886  13.940  18.810  0.00  0.00    +0.000 A 
ATOM     24  C   UNL     1       9.708  14.382  18.067  0.00  0.00    +0.000 A 
ATOM     25  C   UNL     1       8.767  13.516  17.654  0.00  0.00    +0.000 A 
ATOM     26  C   UNL     1       8.905  12.127  17.945  0.00  0.00    +0.000 A 
ATOM     27  N   UNL     1       8.142  11.089  17.668  0.00  0.00    +0.000 NA
ATOM     28  C   UNL     1       8.778  10.001  18.249  0.00  0.00    +0.000 A 
ATOM     29  C   UNL     1       9.952  10.396  18.841  0.00  0.00    +0.000 A 
ATOM     30  N   UNL     1      10.042  11.747  18.661  0.00  0.00    +0.000 N 
ENDBRANCH  17  28
ENDBRANCH   1  19
TORSDOF 3
ENDMDL
MODEL 2
REMARK VINA RESULT:      -9.2      6.742      9.155
REMARK  Name = 
REMARK  4 active torsions:
REMARK  status: ('A' for Active; 'I' for Inactive)
REMARK    1  A    between atoms: C_1  and  C_2
REMARK    2  A    between atoms: C_8  and  C_9
REMARK    3  A    between atoms: N_11  and  C_12
REMARK    4  A    between atoms: C_15  and  C_16
REMARK                            x       y       z     vdW  Elec       q    Type
REMARK                         _______ _______ _______ _____ _____    ______ ____
ROOT
ATOM      1  C   UNL     1       0.941   9.545  20.148  0.00  0.00    +0.000 A 
ATOM      2  C   UNL     1       1.483   8.391  20.714  0.00  0.00    +0.000 A 
ATOM      3  C   UNL     1       2.110   7.432  19.919  0.00  0.00    +0.000 A 
ATOM      4  C   UNL     1       2.322   7.643  18.542  0.00  0.00    +0.000 A 
ATOM      5  C   UNL     1       1.704   8.744  17.958  0.00  0.00    +0.000 A 
ATOM      6  C   UNL     1       0.997   9.679  18.755  0.00  0.00    +0.000 A 
ENDROOT
BRANCH   4   7
ATOM      7  C   UNL     1       3.385   6.868  17.871  0.00  0.00    +0.000 A 
ATOM      8  N   UNL     1       4.547   7.174  17.332  0.00  0.00    +0.000 NA
ATOM      9  N   UNL     1       5.149   5.970  16.896  0.00  0.00    +0.000 NA
ATOM     10  C   UNL     1       4.371   4.956  17.222  0.00  0.00    +0.000 A 
ATOM     11  N   UNL     1       3.312   5.507  17.852  0.00  0.00    +0.000 N 
ATOM     12  C   UNL     1       2.307   4.758  18.518  0.00  0.00    +0.000 C 
ATOM     13  C   UNL     1       1.342   3.607  18.576  0.00  0.00    +0.000 C 
ATOM     14  C   UNL     1       2.047   2.342  18.084  0.00  0.00    +0.000 C 
ATOM     15  C   UNL     1       3.558   2.353  17.618  0.00  0.00    +0.000 C 
ATOM     16  C   UNL     1       4.495   3.468  16.970  0.00  0.00    +0.000 C 
ENDBRANCH   4   7
BRANCH   1  19
ATOM     17  C   UNL     1      -0.424  10.339  22.067  0.00  0.00    +0.000 C 
ATOM     18  O   UNL     1      -0.645   9.248  22.572  0.00  0.00    +0.000 OA
ATOM     19  N   UNL     1       0.355  10.562  20.933  0.00  0.00    +0.000 N 
ATOM     20  H   UNL     1       0.575  11.532  20.744  0.00  0.00    +0.000 HD
BRANCH  17  28
ATOM     21  C   UNL     1      -4.777  12.665  24.523  0.00  0.00    +0.000 C 
ATOM     22  C   UNL     1      -3.572  13.508  24.242  0.00  0.00    +0.000 A 
ATOM     23  C   UNL     1      -3.501  14.812  24.534  0.00  0.00    +0.000 A 
ATOM     24  C   UNL     1      -2.282  15.562  24.231  0.00  0.00    +0.000 A 
ATOM     25  C   UNL     1      -1.215  14.976  23.663  0.00  0.00    +0.000 A 
ATOM     26  C   UNL     1      -1.259  13.589  23.336  0.00  0.00    +0.000 A 
ATOM     27  N   UNL     1      -0.374  12.786  22.779  0.00  0.00    +0.000 NA
ATOM     28  C   UNL     1      -1.006  11.555  22.679  0.00  0.00    +0.000 A 
ATOM     29  C   UNL     1      -2.266  11.621  23.222  0.00  0.00    +0.000 A 
ATOM     30  N   UNL     1      -2.442  12.911  23.636  0.00  0.00    +0.000 N 
ENDBRANCH  17  28
ENDBRANCH   1  19
TORSDOF 3
ENDMDL
MODEL 3
REMARK VINA RESULT:      -9.1      6.592      9.466
REMARK  Name = 
REMARK  4 active torsions:
REMARK  status: ('A' for Active; 'I' for Inactive)
REMARK    1  A    between atoms: C_1  and  C_2
REMARK    2  A    between atoms: C_8  and  C_9
REMARK    3  A    between atoms: N_11  and  C_12
REMARK    4  A    between atoms: C_15  and  C_16
REMARK                            x       y       z     vdW  Elec       q    Type
REMARK                         _______ _______ _______ _____ _____    ______ ____
ROOT
ATOM      1  C   UNL     1       0.656   9.247  19.914  0.00  0.00    +0.000 A 
ATOM      2  C   UNL     1       1.099   9.467  18.609  0.00  0.00    +0.000 A 
ATOM      3  C   UNL     1       2.109   8.681  18.055  0.00  0.00    +0.000 A 
ATOM      4  C   UNL     1       2.638   7.571  18.744  0.00  0.00    +0.000 A 
ATOM      5  C   UNL     1       2.268   7.404  20.074  0.00  0.00    +0.000 A 
ATOM      6  C   UNL     1       1.298   8.253  20.664  0.00  0.00    +0.000 A 
ENDROOT
BRANCH   4   7
ATOM      7  C   UNL     1       3.311   6.517  17.958  0.00  0.00    +0.000 A 
ATOM      8  N   UNL     1       4.310   6.504  17.100  0.00  0.00    +0.000 NA
ATOM      9  N   UNL     1       4.537   5.159  16.724  0.00  0.00    +0.000 NA
ATOM     10  C   UNL     1       3.712   4.378  17.396  0.00  0.00    +0.000 A 
ATOM     11  N   UNL     1       2.991   5.210  18.177  0.00  0.00    +0.000 N 
ATOM     12  C   UNL     1       2.096   4.772  19.188  0.00  0.00    +0.000 C 
ATOM     13  C   UNL     1       0.995   3.872  19.674  0.00  0.00    +0.000 C 
ATOM     14  C   UNL     1       1.292   2.439  19.228  0.00  0.00    +0.000 C 
ATOM     15  C   UNL     1       2.587   2.072  18.398  0.00  0.00    +0.000 C 
ATOM     16  C   UNL     1       3.489   2.881  17.363  0.00  0.00    +0.000 C 
ENDBRANCH   4   7
BRANCH   1  19
ATOM     17  C   UNL     1      -0.249  11.072  21.338  0.00  0.00    +0.000 C 
ATOM     18  O   UNL     1       0.818  11.575  21.656  0.00  0.00    +0.000 OA
ATOM     19  N   UNL     1      -0.407   9.984  20.480  0.00  0.00    +0.000 N 
ATOM     20  H   UNL     1      -1.358   9.797  20.189  0.00  0.00    +0.000 HD
BRANCH  17  28
ATOM     21  C   UNL     1      -4.888  13.872  20.322  0.00  0.00    +0.000 C 
ATOM     22  C   UNL     1      -4.599  13.440  21.726  0.00  0.00    +0.000 A 
ATOM     23  C   UNL     1      -5.400  13.719  22.762  0.00  0.00    +0.000 A 
ATOM     24  C   UNL     1      -5.046  13.253  24.103  0.00  0.00    +0.000 A 
ATOM     25  C   UNL     1      -3.929  12.543  24.332  0.00  0.00    +0.000 A 
ATOM     26  C   UNL     1      -3.053  12.231  23.251  0.00  0.00    +0.000 A 
ATOM     27  N   UNL     1      -1.915  11.569  23.202  0.00  0.00    +0.000 NA
ATOM     28  C   UNL     1      -1.508  11.633  21.877  0.00  0.00    +0.000 A 
ATOM     29  C   UNL     1      -2.440  12.306  21.126  0.00  0.00    +0.000 A 
ATOM     30  N   UNL     1      -3.424  12.698  21.989  0.00  0.00    +0.000 N 
ENDBRANCH  17  28
ENDBRANCH   1  19
TORSDOF 3
ENDMDL
MODEL 4
REMARK VINA RESULT:      -9.0      6.663      9.301
REMARK  Name = 
REMARK  4 active torsions:
REMARK  status: ('A' for Active; 'I' for Inactive)
REMARK    1  A    between atoms: C_1  and  C_2
REMARK    2  A    between atoms: C_8  and  C_9
REMARK    3  A    between atoms: N_11  and  C_12
REMARK    4  A    between atoms: C_15  and  C_16
REMARK                            x       y       z     vdW  Elec       q    Type
REMARK                         _______ _______ _______ _____ _____    ______ ____
ROOT
ATOM      1  C   UNL     1       0.661   9.471  19.489  0.00  0.00    +0.000 A 
ATOM      2  C   UNL     1       1.197   9.520  18.201  0.00  0.00    +0.000 A 
ATOM      3  C   UNL     1       2.189   8.622  17.806  0.00  0.00    +0.000 A 
ATOM      4  C   UNL     1       2.603   7.567  18.644  0.00  0.00    +0.000 A 
ATOM      5  C   UNL     1       2.141   7.570  19.955  0.00  0.00    +0.000 A 
ATOM      6  C   UNL     1       1.191   8.533  20.383  0.00  0.00    +0.000 A 
ENDROOT
BRANCH   4   7
ATOM      7  C   UNL     1       3.256   6.397  18.024  0.00  0.00    +0.000 A 
ATOM      8  N   UNL     1       4.250   6.240  17.174  0.00  0.00    +0.000 NA
ATOM      9  N   UNL     1       4.455   4.850  17.005  0.00  0.00    +0.000 NA
ATOM     10  C   UNL     1       3.622   4.192  17.789  0.00  0.00    +0.000 A 
ATOM     11  N   UNL     1       2.917   5.143  18.439  0.00  0.00    +0.000 N 
ATOM     12  C   UNL     1       2.022   4.876  19.507  0.00  0.00    +0.000 C 
ATOM     13  C   UNL     1       0.910   4.076  20.126  0.00  0.00    +0.000 C 
ATOM     14  C   UNL     1       1.184   2.588  19.900  0.00  0.00    +0.000 C 
ATOM     15  C   UNL     1       2.468   2.081  19.131  0.00  0.00    +0.000 C 
ATOM     16  C   UNL     1       3.376   2.711  17.983  0.00  0.00    +0.000 C 
ENDBRANCH   4   7
BRANCH   1  19
ATOM     17  C   UNL     1      -0.294  11.255  20.932  0.00  0.00    +0.000 C 
ATOM     18  O   UNL     1       0.718  11.507  21.570  0.00  0.00    +0.000 OA
ATOM     19  N   UNL     1      -0.386  10.325  19.898  0.00  0.00    +0.000 N 
ATOM     20  H   UNL     1      -1.246  10.356  19.364  0.00  0.00    +0.000 HD
BRANCH  17  28
ATOM     21  C   UNL     1      -4.159  12.438  24.679  0.00  0.00    +0.000 C 
ATOM     22  C   UNL     1      -4.309  12.981  23.293  0.00  0.00    +0.000 A 
ATOM     23  C   UNL     1      -5.352  13.725  22.901  0.00  0.00    +0.000 A 
ATOM     24  C   UNL     1      -5.418  14.221  21.527  0.00  0.00    +0.000 A 
ATOM     25  C   UNL     1      -4.453  13.954  20.632  0.00  0.00    +0.000 A 
ATOM     26  C   UNL     1      -3.330  13.162  21.015  0.00  0.00    +0.000 A 
ATOM     27  N   UNL     1      -2.270  12.754  20.347  0.00  0.00    +0.000 NA
ATOM     28  C   UNL     1      -1.548  11.977  21.241  0.00  0.00    +0.000 A 
ATOM     29  C   UNL     1      -2.169  11.960  22.466  0.00  0.00    +0.000 A 
ATOM     30  N   UNL     1      -3.308  12.704  22.334  0.00  0.00    +0.000 N 
ENDBRANCH  17  28
ENDBRANCH   1  19
TORSDOF 3
ENDMDL
MODEL 5
REMARK VINA RESULT:      -9.0      6.768      8.959
REMARK  Name = 
REMARK  4 active torsions:
REMARK  status: ('A' for Active; 'I' for Inactive)
REMARK    1  A    between atoms: C_1  and  C_2
REMARK    2  A    between atoms: C_8  and  C_9
REMARK    3  A    between atoms: N_11  and  C_12
REMARK    4  A    between atoms: C_15  and  C_16
REMARK                            x       y       z     vdW  Elec       q    Type
REMARK                         _______ _______ _______ _____ _____    ______ ____
ROOT
ATOM      1  C   UNL     1       0.660   9.670  20.160  0.00  0.00    +0.000 A 
ATOM      2  C   UNL     1       1.289   8.576  20.757  0.00  0.00    +0.000 A 
ATOM      3  C   UNL     1       1.965   7.632  19.985  0.00  0.00    +0.000 A 
ATOM      4  C   UNL     1       2.138   7.805  18.597  0.00  0.00    +0.000 A 
ATOM      5  C   UNL     1       1.438   8.840  17.986  0.00  0.00    +0.000 A 
ATOM      6  C   UNL     1       0.683   9.755  18.763  0.00  0.00    +0.000 A 
ENDROOT
BRANCH   4   7
ATOM      7  C   UNL     1       3.240   7.079  17.933  0.00  0.00    +0.000 A 
ATOM      8  N   UNL     1       4.401   7.433  17.422  0.00  0.00    +0.000 NA
ATOM      9  N   UNL     1       5.051   6.258  16.977  0.00  0.00    +0.000 NA
ATOM     10  C   UNL     1       4.302   5.212  17.271  0.00  0.00    +0.000 A 
ATOM     11  N   UNL     1       3.213   5.716  17.889  0.00  0.00    +0.000 N 
ATOM     12  C   UNL     1       2.222   4.922  18.523  0.00  0.00    +0.000 C 
ATOM     13  C   UNL     1       1.296   3.739  18.543  0.00  0.00    +0.000 C 
ATOM     14  C   UNL     1       2.052   2.507  18.042  0.00  0.00    +0.000 C 
ATOM     15  C   UNL     1       3.570   2.578  17.606  0.00  0.00    +0.000 C 
ATOM     16  C   UNL     1       4.481   3.734  16.995  0.00  0.00    +0.000 C 
ENDBRANCH   4   7
BRANCH   1  19
ATOM     17  C   UNL     1       0.608  11.884  21.288  0.00  0.00    +0.000 C 
ATOM     18  O   UNL     1       1.716  12.267  20.944  0.00  0.00    +0.000 OA
ATOM     19  N   UNL     1       0.021  10.674  20.920  0.00  0.00    +0.000 N 
ATOM     20  H   UNL     1      -0.960  10.582  21.149  0.00  0.00    +0.000 HD
BRANCH  17  28
ATOM     21  C   UNL     1      -4.038  12.417  24.207  0.00  0.00    +0.000 C 
ATOM     22  C   UNL     1      -3.099  13.580  24.127  0.00  0.00    +0.000 A 
ATOM     23  C   UNL     1      -3.337  14.761  24.711  0.00  0.00    +0.000 A 
ATOM     24  C   UNL     1      -2.363  15.845  24.589  0.00  0.00    +0.000 A 
ATOM     25  C   UNL     1      -1.218  15.692  23.902  0.00  0.00    +0.000 A 
ATOM     26  C   UNL     1      -0.935  14.448  23.266  0.00  0.00    +0.000 A 
ATOM     27  N   UNL     1       0.088  14.042  22.541  0.00  0.00    +0.000 NA
ATOM     28  C   UNL     1      -0.222  12.744  22.161  0.00  0.00    +0.000 A 
ATOM     29  C   UNL     1      -1.425  12.364  22.703  0.00  0.00    +0.000 A 
ATOM     30  N   UNL     1      -1.893  13.441  23.402  0.00  0.00    +0.000 N 
ENDBRANCH  17  28
ENDBRANCH   1  19
TORSDOF 3
ENDMDL
MODEL 6
REMARK VINA RESULT:      -8.9      6.390      8.979
REMARK  Name = 
REMARK  4 active torsions:
REMARK  status: ('A' for Active; 'I' for Inactive)
REMARK    1  A    between atoms: C_1  and  C_2
REMARK    2  A    between atoms: C_8  and  C_9
REMARK    3  A    between atoms: N_11  and  C_12
REMARK    4  A    between atoms: C_15  and  C_16
REMARK                            x       y       z     vdW  Elec       q    Type
REMARK                         _______ _______ _______ _____ _____    ______ ____
ROOT
ATOM      1  C   UNL     1       0.980   9.066  20.002  0.00  0.00    +0.000 A 
ATOM      2  C   UNL     1       1.307   9.079  18.645  0.00  0.00    +0.000 A 
ATOM      3  C   UNL     1       2.063   8.051  18.082  0.00  0.00    +0.000 A 
ATOM      4  C   UNL     1       2.427   6.912  18.829  0.00  0.00    +0.000 A 
ATOM      5  C   UNL     1       2.185   6.938  20.198  0.00  0.00    +0.000 A 
ATOM      6  C   UNL     1       1.485   8.021  20.786  0.00  0.00    +0.000 A 
ENDROOT
BRANCH   4   7
ATOM      7  C   UNL     1       2.774   5.678  18.096  0.00  0.00    +0.000 A 
ATOM      8  N   UNL     1       2.104   4.604  17.731  0.00  0.00    +0.000 NA
ATOM      9  N   UNL     1       2.983   3.782  16.987  0.00  0.00    +0.000 NA
ATOM     10  C   UNL     1       4.148   4.390  16.870  0.00  0.00    +0.000 A 
ATOM     11  N   UNL     1       4.004   5.566  17.517  0.00  0.00    +0.000 N 
ATOM     12  C   UNL     1       4.967   6.607  17.495  0.00  0.00    +0.000 C 
ATOM     13  C   UNL     1       6.387   7.092  17.589  0.00  0.00    +0.000 C 
ATOM     14  C   UNL     1       7.285   6.158  16.776  0.00  0.00    +0.000 C 
ATOM     15  C   UNL     1       6.706   4.913  15.991  0.00  0.00    +0.000 C 
ATOM     16  C   UNL     1       5.448   3.962  16.222  0.00  0.00    +0.000 C 
ENDBRANCH   4   7
BRANCH   1  19
ATOM     17  C   UNL     1       0.637  11.237  21.162  0.00  0.00    +0.000 C 
ATOM     18  O   UNL     1       1.804  11.601  21.174  0.00  0.00    +0.000 OA
ATOM     19  N   UNL     1       0.164  10.059  20.586  0.00  0.00    +0.000 N 
ATOM     20  H   UNL     1      -0.843   9.986  20.515  0.00  0.00    +0.000 HD
BRANCH  17  28
ATOM     21  C   UNL     1      -4.648  12.802  21.263  0.00  0.00    +0.000 C 
ATOM     22  C   UNL     1      -3.685  13.453  22.206  0.00  0.00    +0.000 A 
ATOM     23  C   UNL     1      -4.033  14.421  23.063  0.00  0.00    +0.000 A 
ATOM     24  C   UNL     1      -3.030  15.001  23.955  0.00  0.00    +0.000 A 
ATOM     25  C   UNL     1      -1.751  14.588  23.944  0.00  0.00    +0.000 A 
ATOM     26  C   UNL     1      -1.346  13.561  23.041  0.00  0.00    +0.000 A 
ATOM     27  N   UNL     1      -0.179  12.988  22.825  0.00  0.00    +0.000 NA
ATOM     28  C   UNL     1      -0.398  12.087  21.792  0.00  0.00    +0.000 A 
ATOM     29  C   UNL     1      -1.720  12.099  21.422  0.00  0.00    +0.000 A 
ATOM     30  N   UNL     1      -2.333  13.038  22.203  0.00  0.00    +0.000 N 
ENDBRANCH  17  28
ENDBRANCH   1  19
TORSDOF 3
ENDMDL
MODEL 7
REMARK VINA RESULT:      -8.8      6.449      9.023
REMARK  Name = 
REMARK  4 active torsions:
REMARK  status: ('A' for Active; 'I' for Inactive)
REMARK    1  A    between atoms: C_1  and  C_2
REMARK    2  A    between atoms: C_8  and  C_9
REMARK    3  A    between atoms: N_11  and  C_12
REMARK    4  A    between atoms: C_15  and  C_16
REMARK                            x       y       z     vdW  Elec       q    Type
REMARK                         _______ _______ _______ _____ _____    ______ ____
ROOT
ATOM      1  C   UNL     1       1.108   9.247  19.941  0.00  0.00    +0.000 A 
ATOM      2  C   UNL     1       1.499   9.211  18.602  0.00  0.00    +0.000 A 
ATOM      3  C   UNL     1       2.186   8.111  18.088  0.00  0.00    +0.000 A 
ATOM      4  C   UNL     1       2.408   6.955  18.863  0.00  0.00    +0.000 A 
ATOM      5  C   UNL     1       2.103   7.021  20.218  0.00  0.00    +0.000 A 
ATOM      6  C   UNL     1       1.477   8.172  20.760  0.00  0.00    +0.000 A 
ENDROOT
BRANCH   4   7
ATOM      7  C   UNL     1       2.676   5.684  18.161  0.00  0.00    +0.000 A 
ATOM      8  N   UNL     1       1.946   4.633  17.848  0.00  0.00    +0.000 NA
ATOM      9  N   UNL     1       2.764   3.746  17.107  0.00  0.00    +0.000 NA
ATOM     10  C   UNL     1       3.953   4.294  16.940  0.00  0.00    +0.000 A 
ATOM     11  N   UNL     1       3.882   5.495  17.553  0.00  0.00    +0.000 N 
ATOM     12  C   UNL     1       4.893   6.488  17.474  0.00  0.00    +0.000 C 
ATOM     13  C   UNL     1       6.336   6.906  17.515  0.00  0.00    +0.000 C 
ATOM     14  C   UNL     1       7.166   5.906  16.709  0.00  0.00    +0.000 C 
ATOM     15  C   UNL     1       6.508   4.667  15.979  0.00  0.00    +0.000 C 
ATOM     16  C   UNL     1       5.213   3.785  16.273  0.00  0.00    +0.000 C 
ENDBRANCH   4   7
BRANCH   1  19
ATOM     17  C   UNL     1       0.211  10.583  21.836  0.00  0.00    +0.000 C 
ATOM     18  O   UNL     1       0.765   9.975  22.740  0.00  0.00    +0.000 OA
ATOM     19  N   UNL     1       0.358  10.318  20.475  0.00  0.00    +0.000 N 
ATOM     20  H   UNL     1      -0.034  11.015  19.854  0.00  0.00    +0.000 HD
BRANCH  17  28
ATOM     21  C   UNL     1      -4.252  12.294  24.582  0.00  0.00    +0.000 C 
ATOM     22  C   UNL     1      -3.535  13.264  23.696  0.00  0.00    +0.000 A 
ATOM     23  C   UNL     1      -3.934  14.528  23.512  0.00  0.00    +0.000 A 
ATOM     24  C   UNL     1      -3.172  15.413  22.632  0.00  0.00    +0.000 A 
ATOM     25  C   UNL     1      -2.067  14.994  21.993  0.00  0.00    +0.000 A 
ATOM     26  C   UNL     1      -1.615  13.652  22.165  0.00  0.00    +0.000 A 
ATOM     27  N   UNL     1      -0.588  12.997  21.662  0.00  0.00    +0.000 NA
ATOM     28  C   UNL     1      -0.695  11.707  22.162  0.00  0.00    +0.000 A 
ATOM     29  C   UNL     1      -1.775  11.610  23.004  0.00  0.00    +0.000 A 
ATOM     30  N   UNL     1      -2.374  12.839  23.009  0.00  0.00    +0.000 N 
ENDBRANCH  17  28
ENDBRANCH   1  19
TORSDOF 3
ENDMDL
MODEL 8
REMARK VINA RESULT:      -8.8      6.315      8.859
REMARK  Name = 
REMARK  4 active torsions:
REMARK  status: ('A' for Active; 'I' for Inactive)
REMARK    1  A    between atoms: C_1  and  C_2
REMARK    2  A    between atoms: C_8  and  C_9
REMARK    3  A    between atoms: N_11  and  C_12
REMARK    4  A    between atoms: C_15  and  C_16
REMARK                            x       y       z     vdW  Elec       q    Type
REMARK                         _______ _______ _______ _____ _____    ______ ____
ROOT
ATOM      1  C   UNL     1       1.097   8.933  19.902  0.00  0.00    +0.000 A 
ATOM      2  C   UNL     1       1.526   8.959  18.574  0.00  0.00    +0.000 A 
ATOM      3  C   UNL     1       2.282   7.912  18.047  0.00  0.00    +0.000 A 
ATOM      4  C   UNL     1       2.543   6.745  18.793  0.00  0.00    +0.000 A 
ATOM      5  C   UNL     1       2.199   6.753  20.140  0.00  0.00    +0.000 A 
ATOM      6  C   UNL     1       1.499   7.853  20.698  0.00  0.00    +0.000 A 
ENDROOT
BRANCH   4   7
ATOM      7  C   UNL     1       2.895   5.512  18.060  0.00  0.00    +0.000 A 
ATOM      8  N   UNL     1       2.235   4.426  17.712  0.00  0.00    +0.000 NA
ATOM      9  N   UNL     1       3.113   3.613  16.957  0.00  0.00    +0.000 NA
ATOM     10  C   UNL     1       4.267   4.237  16.817  0.00  0.00    +0.000 A 
ATOM     11  N   UNL     1       4.116   5.414  17.460  0.00  0.00    +0.000 N 
ATOM     12  C   UNL     1       5.064   6.469  17.417  0.00  0.00    +0.000 C 
ATOM     13  C   UNL     1       6.478   6.975  17.484  0.00  0.00    +0.000 C 
ATOM     14  C   UNL     1       7.376   6.050  16.661  0.00  0.00    +0.000 C 
ATOM     15  C   UNL     1       6.802   4.793  15.893  0.00  0.00    +0.000 C 
ATOM     16  C   UNL     1       5.562   3.825  16.150  0.00  0.00    +0.000 C 
ENDBRANCH   4   7
BRANCH   1  19
ATOM     17  C   UNL     1       0.336  10.388  21.767  0.00  0.00    +0.000 C 
ATOM     18  O   UNL     1       1.143  10.014  22.605  0.00  0.00    +0.000 OA
ATOM     19  N   UNL     1       0.279   9.946  20.446  0.00  0.00    +0.000 N 
ATOM     20  H   UNL     1      -0.336  10.474  19.840  0.00  0.00    +0.000 HD
BRANCH  17  28
ATOM     21  C   UNL     1      -1.698  15.441  20.916  0.00  0.00    +0.000 C 
ATOM     22  C   UNL     1      -2.307  14.589  21.985  0.00  0.00    +0.000 A 
ATOM     23  C   UNL     1      -3.312  14.998  22.770  0.00  0.00    +0.000 A 
ATOM     24  C   UNL     1      -3.854  14.100  23.789  0.00  0.00    +0.000 A 
ATOM     25  C   UNL     1      -3.371  12.858  23.964  0.00  0.00    +0.000 A 
ATOM     26  C   UNL     1      -2.300  12.392  23.147  0.00  0.00    +0.000 A 
ATOM     27  N   UNL     1      -1.650  11.246  23.116  0.00  0.00    +0.000 NA
ATOM     28  C   UNL     1      -0.680  11.400  22.135  0.00  0.00    +0.000 A 
ATOM     29  C   UNL     1      -0.786  12.638  21.551  0.00  0.00    +0.000 A 
ATOM     30  N   UNL     1      -1.808  13.282  22.191  0.00  0.00    +0.000 N 
ENDBRANCH  17  28
ENDBRANCH   1  19
TORSDOF 3
ENDMDL
MODEL 9
REMARK VINA RESULT:      -8.8      6.571      8.833
REMARK  Name = 
REMARK  4 active torsions:
REMARK  status: ('A' for Active; 'I' for Inactive)
REMARK    1  A    between atoms: C_1  and  C_2
REMARK    2  A    between atoms: C_8  and  C_9
REMARK    3  A    between atoms: N_11  and  C_12
REMARK    4  A    between atoms: C_15  and  C_16
REMARK                            x       y       z     vdW  Elec       q    Type
REMARK                         _______ _______ _______ _____ _____    ______ ____
ROOT
ATOM      1  C   UNL     1       0.939   9.322  19.794  0.00  0.00    +0.000 A 
ATOM      2  C   UNL     1       1.386   9.421  18.476  0.00  0.00    +0.000 A 
ATOM      3  C   UNL     1       2.288   8.493  17.956  0.00  0.00    +0.000 A 
ATOM      4  C   UNL     1       2.691   7.364  18.697  0.00  0.00    +0.000 A 
ATOM      5  C   UNL     1       2.323   7.311  20.037  0.00  0.00    +0.000 A 
ATOM      6  C   UNL     1       1.469   8.299  20.590  0.00  0.00    +0.000 A 
ENDROOT
BRANCH   4   7
ATOM      7  C   UNL     1       3.223   6.198  17.963  0.00  0.00    +0.000 A 
ATOM      8  N   UNL     1       4.153   6.035  17.044  0.00  0.00    +0.000 NA
ATOM      9  N   UNL     1       4.249   4.649  16.772  0.00  0.00    +0.000 NA
ATOM     10  C   UNL     1       3.418   3.996  17.562  0.00  0.00    +0.000 A 
ATOM     11  N   UNL     1       2.821   4.944  18.315  0.00  0.00    +0.000 N 
ATOM     12  C   UNL     1       1.972   4.664  19.417  0.00  0.00    +0.000 C 
ATOM     13  C   UNL     1       0.844   3.899  20.050  0.00  0.00    +0.000 C 
ATOM     14  C   UNL     1       0.998   2.415  19.711  0.00  0.00    +0.000 C 
ATOM     15  C   UNL     1       2.197   1.878  18.832  0.00  0.00    +0.000 C 
ATOM     16  C   UNL     1       3.080   2.524  17.673  0.00  0.00    +0.000 C 
ENDBRANCH   4   7
BRANCH   1  19
ATOM     17  C   UNL     1       0.281  11.385  21.015  0.00  0.00    +0.000 C 
ATOM     18  O   UNL     1       1.403  11.840  21.181  0.00  0.00    +0.000 OA
ATOM     19  N   UNL     1      -0.020  10.209  20.329  0.00  0.00    +0.000 N 
ATOM     20  H   UNL     1      -1.003  10.060  20.137  0.00  0.00    +0.000 HD
BRANCH  17  28
ATOM     21  C   UNL     1      -1.613  14.997  24.723  0.00  0.00    +0.000 C 
ATOM     22  C   UNL     1      -2.587  14.332  23.802  0.00  0.00    +0.000 A 
ATOM     23  C   UNL     1      -3.908  14.549  23.844  0.00  0.00    +0.000 A 
ATOM     24  C   UNL     1      -4.790  13.861  22.902  0.00  0.00    +0.000 A 
ATOM     25  C   UNL     1      -4.313  13.008  21.980  0.00  0.00    +0.000 A 
ATOM     26  C   UNL     1      -2.912  12.752  21.910  0.00  0.00    +0.000 A 
ATOM     27  N   UNL     1      -2.196  11.973  21.124  0.00  0.00    +0.000 NA
ATOM     28  C   UNL     1      -0.888  12.110  21.562  0.00  0.00    +0.000 A 
ATOM     29  C   UNL     1      -0.823  13.014  22.594  0.00  0.00    +0.000 A 
ATOM     30  N   UNL     1      -2.105  13.424  22.830  0.00  0.00    +0.000 N 
ENDBRANCH  17  28
ENDBRANCH   1  19
TORSDOF 3
ENDMDL
