MODEL 1
REMARK VINA RESULT:      -8.4      0.000      0.000
REMARK  Name = 
REMARK  5 active torsions:
REMARK  status: ('A' for Active; 'I' for Inactive)
REMARK    1  A    between atoms: C_1  and  N_2
REMARK    2  A    between atoms: N_2  and  C_3
REMARK    3  A    between atoms: N_2  and  S_4
REMARK    4  A    between atoms: S_4  and  C_7
REMARK    5  A    between atoms: C_11  and  C_12
REMARK                            x       y       z     vdW  Elec       q    Type
REMARK                         _______ _______ _______ _____ _____    ______ ____
ROOT
ATOM      1  C   UNL     1       2.470   7.339  18.619  0.00  0.00    +0.000 A 
ATOM      2  N   UNL     1       2.050   7.254  19.845  0.00  0.00    +0.000 NA
ATOM      3  C   UNL     1       1.375   8.347  20.296  0.00  0.00    +0.000 A 
ATOM      4  S   UNL     1       0.775   8.430  21.887  0.00  0.00    +0.000 S 
ATOM      5  C   UNL     1       0.122   9.980  21.619  0.00  0.00    +0.000 A 
ATOM      6  C   UNL     1       0.334  10.439  20.337  0.00  0.00    +0.000 A 
ATOM      7  C   UNL     1       1.096   9.497  19.584  0.00  0.00    +0.000 A 
ATOM      8  C   UNL     1       1.595   9.581  18.230  0.00  0.00    +0.000 A 
ATOM      9  O   UNL     1       1.453  10.557  17.494  0.00  0.00    +0.000 OA
ATOM     10  N   UNL     1       2.270   8.461  17.825  0.00  0.00    +0.000 N 
ATOM     11  C   UNL     1      -0.159  11.778  19.867  0.00  0.00    +0.000 C 
ATOM     12  C   UNL     1      -1.170  12.390  20.850  0.00  0.00    +0.000 C 
ATOM     13  C   UNL     1      -0.733  12.205  22.310  0.00  0.00    +0.000 C 
ATOM     14  C   UNL     1      -0.628  10.717  22.680  0.00  0.00    +0.000 C 
ATOM     15  H   UNL     1       2.680   8.550  16.905  0.00  0.00    +0.000 HD
ENDROOT
BRANCH   1  20
ATOM     16  C   UNL     1       5.325   5.294  17.233  0.00  0.00    +0.000 A 
ATOM     17  C   UNL     1       4.738   4.033  17.110  0.00  0.00    +0.000 A 
ATOM     18  C   UNL     1       3.374   3.888  17.363  0.00  0.00    +0.000 A 
ATOM     19  C   UNL     1       2.624   4.979  17.814  0.00  0.00    +0.000 A 
ATOM     20  C   UNL     1       3.235   6.226  18.000  0.00  0.00    +0.000 A 
ATOM     21  C   UNL     1       4.575   6.395  17.651  0.00  0.00    +0.000 A 
BRANCH  16  22
ATOM     22  S   UNL     1       7.076   5.511  16.982  0.00  0.00    +0.000 S 
ATOM     23  O   UNL     1       7.255   6.061  15.656  0.00  0.00    +0.000 OA
ATOM     24  O   UNL     1       7.709   4.267  17.371  0.00  0.00    +0.000 OA
BRANCH  22  26
ATOM     25  C   UNL     1       8.237   6.228  19.300  0.00  0.00    +0.000 C 
ATOM     26  N   UNL     1       7.476   6.698  18.132  0.00  0.00    +0.000 NA
ATOM     27  C   UNL     1       7.962   7.987  17.604  0.00  0.00    +0.000 C 
ENDBRANCH  22  26
ENDBRANCH  16  22
ENDBRANCH   1  20
TORSDOF 3
ENDMDL
MODEL 2
REMARK VINA RESULT:      -8.3      2.504      3.375
REMARK  Name = 
REMARK  5 active torsions:
REMARK  status: ('A' for Active; 'I' for Inactive)
REMARK    1  A    between atoms: C_1  and  N_2
REMARK    2  A    between atoms: N_2  and  C_3
REMARK    3  A    between atoms: N_2  and  S_4
REMARK    4  A    between atoms: S_4  and  C_7
REMARK    5  A    between atoms: C_11  and  C_12
REMARK                            x       y       z     vdW  Elec       q    Type
REMARK                         _______ _______ _______ _____ _____    ______ ____
ROOT
ATOM      1  C   UNL     1       2.155   7.892  19.109  0.00  0.00    +0.000 A 
ATOM      2  N   UNL     1       1.833   7.856  20.366  0.00  0.00    +0.000 NA
ATOM      3  C   UNL     1       1.000   8.854  20.771  0.00  0.00    +0.000 A 
ATOM      4  S   UNL     1       0.493   8.988  22.391  0.00  0.00    +0.000 S 
ATOM      5  C   UNL     1      -0.446  10.365  22.042  0.00  0.00    +0.000 A 
ATOM      6  C   UNL     1      -0.399  10.726  20.712  0.00  0.00    +0.000 A 
ATOM      7  C   UNL     1       0.474   9.861  19.987  0.00  0.00    +0.000 A 
ATOM      8  C   UNL     1       0.866   9.897  18.595  0.00  0.00    +0.000 A 
ATOM      9  O   UNL     1       0.505  10.755  17.791  0.00  0.00    +0.000 OA
ATOM     10  N   UNL     1       1.708   8.877  18.239  0.00  0.00    +0.000 N 
ATOM     11  C   UNL     1      -1.154  11.904  20.167  0.00  0.00    +0.000 C 
ATOM     12  C   UNL     1      -2.197  12.425  21.169  0.00  0.00    +0.000 C 
ATOM     13  C   UNL     1      -1.647  12.464  22.601  0.00  0.00    +0.000 C 
ATOM     14  C   UNL     1      -1.251  11.062  23.090  0.00  0.00    +0.000 C 
ATOM     15  H   UNL     1       2.038   8.945  17.285  0.00  0.00    +0.000 HD
ENDROOT
BRANCH   1  20
ATOM     16  C   UNL     1       3.859   4.596  18.410  0.00  0.00    +0.000 A 
ATOM     17  C   UNL     1       4.577   4.888  17.248  0.00  0.00    +0.000 A 
ATOM     18  C   UNL     1       4.598   6.198  16.769  0.00  0.00    +0.000 A 
ATOM     19  C   UNL     1       3.841   7.189  17.404  0.00  0.00    +0.000 A 
ATOM     20  C   UNL     1       3.071   6.874  18.530  0.00  0.00    +0.000 A 
ATOM     21  C   UNL     1       3.128   5.588  19.068  0.00  0.00    +0.000 A 
BRANCH  16  22
ATOM     22  S   UNL     1       3.753   2.924  19.018  0.00  0.00    +0.000 S 
ATOM     23  O   UNL     1       4.889   2.711  19.888  0.00  0.00    +0.000 OA
ATOM     24  O   UNL     1       3.519   2.077  17.867  0.00  0.00    +0.000 OA
BRANCH  22  26
ATOM     25  C   UNL     1       1.157   2.308  19.361  0.00  0.00    +0.000 C 
ATOM     26  N   UNL     1       2.335   2.956  19.957  0.00  0.00    +0.000 NA
ATOM     27  C   UNL     1       2.492   2.663  21.394  0.00  0.00    +0.000 C 
ENDBRANCH  22  26
ENDBRANCH  16  22
ENDBRANCH   1  20
TORSDOF 3
ENDMDL
MODEL 3
REMARK VINA RESULT:      -8.3      2.963      4.093
REMARK  Name = 
REMARK  5 active torsions:
REMARK  status: ('A' for Active; 'I' for Inactive)
REMARK    1  A    between atoms: C_1  and  N_2
REMARK    2  A    between atoms: N_2  and  C_3
REMARK    3  A    between atoms: N_2  and  S_4
REMARK    4  A    between atoms: S_4  and  C_7
REMARK    5  A    between atoms: C_11  and  C_12
REMARK                            x       y       z     vdW  Elec       q    Type
REMARK                         _______ _______ _______ _____ _____    ______ ____
ROOT
ATOM      1  C   UNL     1       1.887   8.111  19.458  0.00  0.00    +0.000 A 
ATOM      2  N   UNL     1       1.185   8.922  18.725  0.00  0.00    +0.000 NA
ATOM      3  C   UNL     1       0.391   9.780  19.423  0.00  0.00    +0.000 A 
ATOM      4  S   UNL     1      -0.623  10.896  18.633  0.00  0.00    +0.000 S 
ATOM      5  C   UNL     1      -1.188  11.516  20.115  0.00  0.00    +0.000 A 
ATOM      6  C   UNL     1      -0.613  10.904  21.209  0.00  0.00    +0.000 A 
ATOM      7  C   UNL     1       0.279   9.870  20.796  0.00  0.00    +0.000 A 
ATOM      8  C   UNL     1       1.049   8.941  21.592  0.00  0.00    +0.000 A 
ATOM      9  O   UNL     1       1.019   8.883  22.820  0.00  0.00    +0.000 OA
ATOM     10  N   UNL     1       1.827   8.096  20.845  0.00  0.00    +0.000 N 
ATOM     11  C   UNL     1      -0.951  11.290  22.620  0.00  0.00    +0.000 C 
ATOM     12  C   UNL     1      -1.727  12.616  22.678  0.00  0.00    +0.000 C 
ATOM     13  C   UNL     1      -2.800  12.700  21.584  0.00  0.00    +0.000 C 
ATOM     14  C   UNL     1      -2.179  12.633  20.180  0.00  0.00    +0.000 C 
ATOM     15  H   UNL     1       2.308   7.400  21.399  0.00  0.00    +0.000 HD
ENDROOT
BRANCH   1  20
ATOM     16  C   UNL     1       3.508   4.820  18.560  0.00  0.00    +0.000 A 
ATOM     17  C   UNL     1       4.270   5.174  17.445  0.00  0.00    +0.000 A 
ATOM     18  C   UNL     1       4.347   6.515  17.068  0.00  0.00    +0.000 A 
ATOM     19  C   UNL     1       3.602   7.481  17.754  0.00  0.00    +0.000 A 
ATOM     20  C   UNL     1       2.788   7.108  18.831  0.00  0.00    +0.000 A 
ATOM     21  C   UNL     1       2.788   5.784  19.270  0.00  0.00    +0.000 A 
BRANCH  16  22
ATOM     22  S   UNL     1       3.331   3.112  19.037  0.00  0.00    +0.000 S 
ATOM     23  O   UNL     1       4.339   2.839  20.037  0.00  0.00    +0.000 OA
ATOM     24  O   UNL     1       3.261   2.344  17.811  0.00  0.00    +0.000 OA
BRANCH  22  26
ATOM     25  C   UNL     1       0.709   2.515  18.968  0.00  0.00    +0.000 C 
ATOM     26  N   UNL     1       1.799   3.086  19.775  0.00  0.00    +0.000 NA
ATOM     27  C   UNL     1       1.756   2.663  21.187  0.00  0.00    +0.000 C 
ENDBRANCH  22  26
ENDBRANCH  16  22
ENDBRANCH   1  20
TORSDOF 3
ENDMDL
MODEL 4
REMARK VINA RESULT:      -8.3      1.039      1.218
REMARK  Name = 
REMARK  5 active torsions:
REMARK  status: ('A' for Active; 'I' for Inactive)
REMARK    1  A    between atoms: C_1  and  N_2
REMARK    2  A    between atoms: N_2  and  C_3
REMARK    3  A    between atoms: N_2  and  S_4
REMARK    4  A    between atoms: S_4  and  C_7
REMARK    5  A    between atoms: C_11  and  C_12
REMARK                            x       y       z     vdW  Elec       q    Type
REMARK                         _______ _______ _______ _____ _____    ______ ____
ROOT
ATOM      1  C   UNL     1       2.365   7.265  18.900  0.00  0.00    +0.000 A 
ATOM      2  N   UNL     1       1.859   7.322  20.095  0.00  0.00    +0.000 NA
ATOM      3  C   UNL     1       1.289   8.515  20.417  0.00  0.00    +0.000 A 
ATOM      4  S   UNL     1       0.601   8.788  21.951  0.00  0.00    +0.000 S 
ATOM      5  C   UNL     1       0.152  10.375  21.529  0.00  0.00    +0.000 A 
ATOM      6  C   UNL     1       0.500  10.708  20.237  0.00  0.00    +0.000 A 
ATOM      7  C   UNL     1       1.193   9.630  19.609  0.00  0.00    +0.000 A 
ATOM      8  C   UNL     1       1.785   9.554  18.292  0.00  0.00    +0.000 A 
ATOM      9  O   UNL     1       1.807  10.480  17.483  0.00  0.00    +0.000 OA
ATOM     10  N   UNL     1       2.350   8.337  18.017  0.00  0.00    +0.000 N 
ATOM     11  C   UNL     1       0.198  12.053  19.640  0.00  0.00    +0.000 C 
ATOM     12  C   UNL     1      -0.796  12.848  20.502  0.00  0.00    +0.000 C 
ATOM     13  C   UNL     1      -0.480  12.728  21.999  0.00  0.00    +0.000 C 
ATOM     14  C   UNL     1      -0.574  11.272  22.479  0.00  0.00    +0.000 C 
ATOM     15  H   UNL     1       2.827   8.308  17.126  0.00  0.00    +0.000 HD
ENDROOT
BRANCH   1  20
ATOM     16  C   UNL     1       4.721   4.950  17.069  0.00  0.00    +0.000 A 
ATOM     17  C   UNL     1       4.493   3.738  17.724  0.00  0.00    +0.000 A 
ATOM     18  C   UNL     1       3.479   3.657  18.679  0.00  0.00    +0.000 A 
ATOM     19  C   UNL     1       2.754   4.801  19.030  0.00  0.00    +0.000 A 
ATOM     20  C   UNL     1       3.033   6.028  18.417  0.00  0.00    +0.000 A 
ATOM     21  C   UNL     1       3.978   6.088  17.392  0.00  0.00    +0.000 A 
BRANCH  16  22
ATOM     22  S   UNL     1       6.048   5.113  15.892  0.00  0.00    +0.000 S 
ATOM     23  O   UNL     1       5.709   6.211  15.012  0.00  0.00    +0.000 OA
ATOM     24  O   UNL     1       6.308   3.787  15.372  0.00  0.00    +0.000 OA
BRANCH  22  26
ATOM     25  C   UNL     1       7.356   6.969  17.334  0.00  0.00    +0.000 C 
ATOM     26  N   UNL     1       7.362   5.573  16.868  0.00  0.00    +0.000 NA
ATOM     27  C   UNL     1       7.773   4.616  17.913  0.00  0.00    +0.000 C 
ENDBRANCH  22  26
ENDBRANCH  16  22
ENDBRANCH   1  20
TORSDOF 3
ENDMDL
MODEL 5
REMARK VINA RESULT:      -8.2      3.017      4.155
REMARK  Name = 
REMARK  5 active torsions:
REMARK  status: ('A' for Active; 'I' for Inactive)
REMARK    1  A    between atoms: C_1  and  N_2
REMARK    2  A    between atoms: N_2  and  C_3
REMARK    3  A    between atoms: N_2  and  S_4
REMARK    4  A    between atoms: S_4  and  C_7
REMARK    5  A    between atoms: C_11  and  C_12
REMARK                            x       y       z     vdW  Elec       q    Type
REMARK                         _______ _______ _______ _____ _____    ______ ____
ROOT
ATOM      1  C   UNL     1       1.565   8.554  19.802  0.00  0.00    +0.000 A 
ATOM      2  N   UNL     1       0.816   9.324  19.072  0.00  0.00    +0.000 NA
ATOM      3  C   UNL     1       0.030  10.187  19.772  0.00  0.00    +0.000 A 
ATOM      4  S   UNL     1      -1.041  11.254  18.988  0.00  0.00    +0.000 S 
ATOM      5  C   UNL     1      -1.562  11.909  20.470  0.00  0.00    +0.000 A 
ATOM      6  C   UNL     1      -0.932  11.346  21.559  0.00  0.00    +0.000 A 
ATOM      7  C   UNL     1      -0.032  10.320  21.145  0.00  0.00    +0.000 A 
ATOM      8  C   UNL     1       0.790   9.435  21.939  0.00  0.00    +0.000 A 
ATOM      9  O   UNL     1       0.809   9.417  23.169  0.00  0.00    +0.000 OA
ATOM     10  N   UNL     1       1.558   8.584  21.190  0.00  0.00    +0.000 N 
ATOM     11  C   UNL     1      -1.224  11.771  22.970  0.00  0.00    +0.000 C 
ATOM     12  C   UNL     1      -2.029  13.080  23.016  0.00  0.00    +0.000 C 
ATOM     13  C   UNL     1      -3.145  13.103  21.962  0.00  0.00    +0.000 C 
ATOM     14  C   UNL     1      -2.577  13.004  20.539  0.00  0.00    +0.000 C 
ATOM     15  H   UNL     1       2.078   7.917  21.746  0.00  0.00    +0.000 HD
ENDROOT
BRANCH   1  20
ATOM     16  C   UNL     1       3.354   5.310  19.068  0.00  0.00    +0.000 A 
ATOM     17  C   UNL     1       3.924   5.577  17.822  0.00  0.00    +0.000 A 
ATOM     18  C   UNL     1       3.824   6.861  17.285  0.00  0.00    +0.000 A 
ATOM     19  C   UNL     1       3.090   7.846  17.954  0.00  0.00    +0.000 A 
ATOM     20  C   UNL     1       2.464   7.551  19.172  0.00  0.00    +0.000 A 
ATOM     21  C   UNL     1       2.648   6.299  19.757  0.00  0.00    +0.000 A 
BRANCH  16  22
ATOM     22  S   UNL     1       3.402   3.669  19.759  0.00  0.00    +0.000 S 
ATOM     23  O   UNL     1       2.602   3.686  20.964  0.00  0.00    +0.000 OA
ATOM     24  O   UNL     1       4.794   3.270  19.787  0.00  0.00    +0.000 OA
BRANCH  22  26
ATOM     25  C   UNL     1       3.391   1.652  17.979  0.00  0.00    +0.000 C 
ATOM     26  N   UNL     1       2.604   2.740  18.578  0.00  0.00    +0.000 NA
ATOM     27  C   UNL     1       1.212   2.353  18.877  0.00  0.00    +0.000 C 
ENDBRANCH  22  26
ENDBRANCH  16  22
ENDBRANCH   1  20
TORSDOF 3
ENDMDL
MODEL 6
REMARK VINA RESULT:      -8.1      1.597      1.903
REMARK  Name = 
REMARK  5 active torsions:
REMARK  status: ('A' for Active; 'I' for Inactive)
REMARK    1  A    between atoms: C_1  and  N_2
REMARK    2  A    between atoms: N_2  and  C_3
REMARK    3  A    between atoms: N_2  and  S_4
REMARK    4  A    between atoms: S_4  and  C_7
REMARK    5  A    between atoms: C_11  and  C_12
REMARK                            x       y       z     vdW  Elec       q    Type
REMARK                         _______ _______ _______ _____ _____    ______ ____
ROOT
ATOM      1  C   UNL     1       1.811   7.353  20.087  0.00  0.00    +0.000 A 
ATOM      2  N   UNL     1       1.253   7.612  21.231  0.00  0.00    +0.000 NA
ATOM      3  C   UNL     1       0.718   8.859  21.336  0.00  0.00    +0.000 A 
ATOM      4  S   UNL     1      -0.029   9.390  22.771  0.00  0.00    +0.000 S 
ATOM      5  C   UNL     1      -0.394  10.906  22.087  0.00  0.00    +0.000 A 
ATOM      6  C   UNL     1       0.026  11.021  20.779  0.00  0.00    +0.000 A 
ATOM      7  C   UNL     1       0.704   9.837  20.362  0.00  0.00    +0.000 A 
ATOM      8  C   UNL     1       1.353   9.537  19.105  0.00  0.00    +0.000 A 
ATOM      9  O   UNL     1       1.449  10.324  18.164  0.00  0.00    +0.000 OA
ATOM     10  N   UNL     1       1.880   8.274  19.051  0.00  0.00    +0.000 N 
ATOM     11  C   UNL     1      -0.193  12.266  19.967  0.00  0.00    +0.000 C 
ATOM     12  C   UNL     1      -1.193  13.218  20.643  0.00  0.00    +0.000 C 
ATOM     13  C   UNL     1      -0.951  13.323  22.155  0.00  0.00    +0.000 C 
ATOM     14  C   UNL     1      -1.126  11.963  22.848  0.00  0.00    +0.000 C 
ATOM     15  H   UNL     1       2.396   8.091  18.200  0.00  0.00    +0.000 HD
ENDROOT
BRANCH   1  20
ATOM     16  C   UNL     1       4.189   4.713  18.808  0.00  0.00    +0.000 A 
ATOM     17  C   UNL     1       3.838   3.611  19.592  0.00  0.00    +0.000 A 
ATOM     18  C   UNL     1       2.740   3.704  20.448  0.00  0.00    +0.000 A 
ATOM     19  C   UNL     1       2.051   4.915  20.576  0.00  0.00    +0.000 A 
ATOM     20  C   UNL     1       2.450   6.034  19.836  0.00  0.00    +0.000 A 
ATOM     21  C   UNL     1       3.484   5.915  18.907  0.00  0.00    +0.000 A 
BRANCH  16  22
ATOM     22  S   UNL     1       5.622   4.658  17.751  0.00  0.00    +0.000 S 
ATOM     23  O   UNL     1       5.307   3.778  16.646  0.00  0.00    +0.000 OA
ATOM     24  O   UNL     1       6.762   4.409  18.608  0.00  0.00    +0.000 OA
BRANCH  22  26
ATOM     25  C   UNL     1       6.990   6.954  17.446  0.00  0.00    +0.000 C 
ATOM     26  N   UNL     1       5.724   6.255  17.174  0.00  0.00    +0.000 NA
ATOM     27  C   UNL     1       5.209   6.497  15.813  0.00  0.00    +0.000 C 
ENDBRANCH  22  26
ENDBRANCH  16  22
ENDBRANCH   1  20
TORSDOF 3
ENDMDL
MODEL 7
REMARK VINA RESULT:      -8.1      1.385      1.888
REMARK  Name = 
REMARK  5 active torsions:
REMARK  status: ('A' for Active; 'I' for Inactive)
REMARK    1  A    between atoms: C_1  and  N_2
REMARK    2  A    between atoms: N_2  and  C_3
REMARK    3  A    between atoms: N_2  and  S_4
REMARK    4  A    between atoms: S_4  and  C_7
REMARK    5  A    between atoms: C_11  and  C_12
REMARK                            x       y       z     vdW  Elec       q    Type
REMARK                         _______ _______ _______ _____ _____    ______ ____
ROOT
ATOM      1  C   UNL     1       2.666   7.211  18.883  0.00  0.00    +0.000 A 
ATOM      2  N   UNL     1       2.146   7.242  20.073  0.00  0.00    +0.000 NA
ATOM      3  C   UNL     1       1.438   8.369  20.358  0.00  0.00    +0.000 A 
ATOM      4  S   UNL     1       0.708   8.602  21.878  0.00  0.00    +0.000 S 
ATOM      5  C   UNL     1       0.080  10.113  21.408  0.00  0.00    +0.000 A 
ATOM      6  C   UNL     1       0.399  10.448  20.109  0.00  0.00    +0.000 A 
ATOM      7  C   UNL     1       1.219   9.442  19.517  0.00  0.00    +0.000 A 
ATOM      8  C   UNL     1       1.828   9.398  18.206  0.00  0.00    +0.000 A 
ATOM      9  O   UNL     1       1.749  10.297  17.370  0.00  0.00    +0.000 OA
ATOM     10  N   UNL     1       2.534   8.248  17.970  0.00  0.00    +0.000 N 
ATOM     11  C   UNL     1      -0.053  11.731  19.471  0.00  0.00    +0.000 C 
ATOM     12  C   UNL     1      -1.141  12.428  20.303  0.00  0.00    +0.000 C 
ATOM     13  C   UNL     1      -0.827  12.389  21.805  0.00  0.00    +0.000 C 
ATOM     14  C   UNL     1      -0.754  10.945  22.327  0.00  0.00    +0.000 C 
ATOM     15  H   UNL     1       3.019   8.251  17.083  0.00  0.00    +0.000 HD
ENDROOT
BRANCH   1  20
ATOM     16  C   UNL     1       5.439   5.157  17.349  0.00  0.00    +0.000 A 
ATOM     17  C   UNL     1       5.167   3.887  17.859  0.00  0.00    +0.000 A 
ATOM     18  C   UNL     1       4.004   3.684  18.604  0.00  0.00    +0.000 A 
ATOM     19  C   UNL     1       3.165   4.763  18.900  0.00  0.00    +0.000 A 
ATOM     20  C   UNL     1       3.479   6.048  18.441  0.00  0.00    +0.000 A 
ATOM     21  C   UNL     1       4.587   6.232  17.613  0.00  0.00    +0.000 A 
BRANCH  16  22
ATOM     22  S   UNL     1       6.944   5.474  16.449  0.00  0.00    +0.000 S 
ATOM     23  O   UNL     1       7.868   4.407  16.768  0.00  0.00    +0.000 OA
ATOM     24  O   UNL     1       7.288   6.860  16.688  0.00  0.00    +0.000 OA
BRANCH  22  26
ATOM     25  C   UNL     1       7.538   5.189  13.841  0.00  0.00    +0.000 C 
ATOM     26  N   UNL     1       6.454   5.315  14.828  0.00  0.00    +0.000 NA
ATOM     27  C   UNL     1       5.326   4.401  14.569  0.00  0.00    +0.000 C 
ENDBRANCH  22  26
ENDBRANCH  16  22
ENDBRANCH   1  20
TORSDOF 3
ENDMDL
MODEL 8
REMARK VINA RESULT:      -8.1      2.704      3.504
REMARK  Name = 
REMARK  5 active torsions:
REMARK  status: ('A' for Active; 'I' for Inactive)
REMARK    1  A    between atoms: C_1  and  N_2
REMARK    2  A    between atoms: N_2  and  C_3
REMARK    3  A    between atoms: N_2  and  S_4
REMARK    4  A    between atoms: S_4  and  C_7
REMARK    5  A    between atoms: C_11  and  C_12
REMARK                            x       y       z     vdW  Elec       q    Type
REMARK                         _______ _______ _______ _____ _____    ______ ____
ROOT
ATOM      1  C   UNL     1       2.008   7.905  19.180  0.00  0.00    +0.000 A 
ATOM      2  N   UNL     1       1.457   7.813  20.353  0.00  0.00    +0.000 NA
ATOM      3  C   UNL     1       0.836   8.945  20.783  0.00  0.00    +0.000 A 
ATOM      4  S   UNL     1       0.083   9.025  22.308  0.00  0.00    +0.000 S 
ATOM      5  C   UNL     1      -0.404  10.635  22.046  0.00  0.00    +0.000 A 
ATOM      6  C   UNL     1      -0.020  11.120  20.814  0.00  0.00    +0.000 A 
ATOM      7  C   UNL     1       0.731  10.140  20.099  0.00  0.00    +0.000 A 
ATOM      8  C   UNL     1       1.374  10.229  18.807  0.00  0.00    +0.000 A 
ATOM      9  O   UNL     1       1.393  11.240  18.106  0.00  0.00    +0.000 OA
ATOM     10  N   UNL     1       1.989   9.068  18.422  0.00  0.00    +0.000 N 
ATOM     11  C   UNL     1      -0.346  12.513  20.358  0.00  0.00    +0.000 C 
ATOM     12  C   UNL     1      -1.397  13.178  21.262  0.00  0.00    +0.000 C 
ATOM     13  C   UNL     1      -1.132  12.901  22.748  0.00  0.00    +0.000 C 
ATOM     14  C   UNL     1      -1.194  11.398  23.060  0.00  0.00    +0.000 C 
ATOM     15  H   UNL     1       2.498   9.153  17.553  0.00  0.00    +0.000 HD
ENDROOT
BRANCH   1  20
ATOM     16  C   UNL     1       2.891   4.384  18.138  0.00  0.00    +0.000 A 
ATOM     17  C   UNL     1       3.934   4.608  17.237  0.00  0.00    +0.000 A 
ATOM     18  C   UNL     1       4.427   5.903  17.070  0.00  0.00    +0.000 A 
ATOM     19  C   UNL     1       3.825   6.974  17.740  0.00  0.00    +0.000 A 
ATOM     20  C   UNL     1       2.735   6.750  18.591  0.00  0.00    +0.000 A 
ATOM     21  C   UNL     1       2.307   5.445  18.835  0.00  0.00    +0.000 A 
BRANCH  16  22
ATOM     22  S   UNL     1       2.189   2.758  18.332  0.00  0.00    +0.000 S 
ATOM     23  O   UNL     1       2.886   1.878  17.419  0.00  0.00    +0.000 OA
ATOM     24  O   UNL     1       0.751   2.916  18.273  0.00  0.00    +0.000 OA
BRANCH  22  26
ATOM     25  C   UNL     1       4.036   2.536  20.275  0.00  0.00    +0.000 C 
ATOM     26  N   UNL     1       2.619   2.352  19.927  0.00  0.00    +0.000 NA
ATOM     27  C   UNL     1       1.698   2.798  20.990  0.00  0.00    +0.000 C 
ENDBRANCH  22  26
ENDBRANCH  16  22
ENDBRANCH   1  20
TORSDOF 3
ENDMDL
MODEL 9
REMARK VINA RESULT:      -8.1      2.137      2.838
REMARK  Name = 
REMARK  5 active torsions:
REMARK  status: ('A' for Active; 'I' for Inactive)
REMARK    1  A    between atoms: C_1  and  N_2
REMARK    2  A    between atoms: N_2  and  C_3
REMARK    3  A    between atoms: N_2  and  S_4
REMARK    4  A    between atoms: S_4  and  C_7
REMARK    5  A    between atoms: C_11  and  C_12
REMARK                            x       y       z     vdW  Elec       q    Type
REMARK                         _______ _______ _______ _____ _____    ______ ____
ROOT
ATOM      1  C   UNL     1       1.772   8.062  19.739  0.00  0.00    +0.000 A 
ATOM      2  N   UNL     1       1.144   8.861  18.931  0.00  0.00    +0.000 NA
ATOM      3  C   UNL     1       0.448   9.859  19.542  0.00  0.00    +0.000 A 
ATOM      4  S   UNL     1      -0.463  10.987  18.649  0.00  0.00    +0.000 S 
ATOM      5  C   UNL     1      -0.943  11.804  20.063  0.00  0.00    +0.000 A 
ATOM      6  C   UNL     1      -0.416  11.250  21.210  0.00  0.00    +0.000 A 
ATOM      7  C   UNL     1       0.364  10.097  20.900  0.00  0.00    +0.000 A 
ATOM      8  C   UNL     1       1.050   9.179  21.782  0.00  0.00    +0.000 A 
ATOM      9  O   UNL     1       1.032   9.248  23.010  0.00  0.00    +0.000 OA
ATOM     10  N   UNL     1       1.730   8.192  21.120  0.00  0.00    +0.000 N 
ATOM     11  C   UNL     1      -0.695  11.806  22.577  0.00  0.00    +0.000 C 
ATOM     12  C   UNL     1      -1.336  13.202  22.505  0.00  0.00    +0.000 C 
ATOM     13  C   UNL     1      -2.411  13.282  21.412  0.00  0.00    +0.000 C 
ATOM     14  C   UNL     1      -1.819  13.014  20.020  0.00  0.00    +0.000 C 
ATOM     15  H   UNL     1       2.149   7.510  21.739  0.00  0.00    +0.000 HD
ENDROOT
BRANCH   1  20
ATOM     16  C   UNL     1       4.369   6.068  17.856  0.00  0.00    +0.000 A 
ATOM     17  C   UNL     1       4.240   4.808  18.443  0.00  0.00    +0.000 A 
ATOM     18  C   UNL     1       3.217   4.585  19.366  0.00  0.00    +0.000 A 
ATOM     19  C   UNL     1       2.383   5.639  19.756  0.00  0.00    +0.000 A 
ATOM     20  C   UNL     1       2.561   6.917  19.212  0.00  0.00    +0.000 A 
ATOM     21  C   UNL     1       3.518   7.116  18.217  0.00  0.00    +0.000 A 
BRANCH  16  22
ATOM     22  S   UNL     1       5.700   6.412  16.723  0.00  0.00    +0.000 S 
ATOM     23  O   UNL     1       6.607   7.321  17.390  0.00  0.00    +0.000 OA
ATOM     24  O   UNL     1       5.090   6.756  15.456  0.00  0.00    +0.000 OA
BRANCH  22  26
ATOM     25  C   UNL     1       6.701   4.449  15.181  0.00  0.00    +0.000 C 
ATOM     26  N   UNL     1       6.456   4.898  16.561  0.00  0.00    +0.000 NA
ATOM     27  C   UNL     1       7.588   4.627  17.468  0.00  0.00    +0.000 C 
ENDBRANCH  22  26
ENDBRANCH  16  22
ENDBRANCH   1  20
TORSDOF 3
ENDMDL
