MODEL 1
REMARK VINA RESULT:      -9.2      0.000      0.000
REMARK  Name = 
REMARK  7 active torsions:
REMARK  status: ('A' for Active; 'I' for Inactive)
REMARK    1  A    between atoms: C_1  and  O_2
REMARK    2  A    between atoms: O_2  and  C_3
REMARK    3  A    between atoms: C_8  and  C_9
REMARK    4  A    between atoms: N_11  and  C_12
REMARK    5  A    between atoms: C_16  and  C_17
REMARK    6  A    between atoms: N_21  and  C_22
REMARK    7  A    between atoms: C_24  and  C_25
REMARK                            x       y       z     vdW  Elec       q    Type
REMARK                         _______ _______ _______ _____ _____    ______ ____
ROOT
ATOM      1  C   UNL     1       2.116   8.276  18.496  0.00  0.00    +0.000 C 
ATOM      2  O   UNL     1       2.448   8.484  17.324  0.00  0.00    +0.000 OA
ATOM      3  N   UNL     1       2.131   7.025  19.093  0.00  0.00    +0.000 N 
ATOM      4  H   UNL     1       1.671   6.927  19.986  0.00  0.00    +0.000 HD
ENDROOT
BRANCH   1  10
ATOM      5  C   UNL     1      -1.043  12.033  22.756  0.00  0.00    +0.000 A 
ATOM      6  C   UNL     1      -1.106  10.706  23.175  0.00  0.00    +0.000 A 
ATOM      7  C   UNL     1      -0.494   9.701  22.420  0.00  0.00    +0.000 A 
ATOM      8  C   UNL     1       0.197  10.024  21.238  0.00  0.00    +0.000 A 
ATOM      9  C   UNL     1       0.846   9.068  20.435  0.00  0.00    +0.000 A 
ATOM     10  C   UNL     1       1.551   9.429  19.265  0.00  0.00    +0.000 A 
ATOM     11  C   UNL     1       1.583  10.794  18.956  0.00  0.00    +0.000 A 
ATOM     12  C   UNL     1       2.232  11.478  17.796  0.00  0.00    +0.000 C 
ATOM     13  N   UNL     1       0.938  11.723  19.728  0.00  0.00    +0.000 NA
ATOM     14  C   UNL     1       0.265  11.357  20.824  0.00  0.00    +0.000 A 
ATOM     15  C   UNL     1      -0.365  12.338  21.576  0.00  0.00    +0.000 A 
BRANCH   5  17
ATOM     16  C   UNL     1      -3.075  12.972  23.546  0.00  0.00    +0.000 C 
ATOM     17  O   UNL     1      -1.650  12.943  23.577  0.00  0.00    +0.000 OA
ENDBRANCH   5  17
ENDBRANCH   1  10
BRANCH   3  18
ATOM     18  C   UNL     1       2.584   5.810  18.517  0.00  0.00    +0.000 A 
ATOM     19  C   UNL     1       1.736   4.807  18.026  0.00  0.00    +0.000 A 
ATOM     20  C   UNL     1       2.257   3.659  17.446  0.00  0.00    +0.000 A 
ATOM     21  C   UNL     1       3.635   3.493  17.346  0.00  0.00    +0.000 A 
ATOM     22  C   UNL     1       4.508   4.497  17.779  0.00  0.00    +0.000 A 
ATOM     23  C   UNL     1       3.965   5.637  18.399  0.00  0.00    +0.000 A 
BRANCH  22  24
ATOM     24  C   UNL     1       5.948   4.404  17.535  0.00  0.00    +0.000 A 
ATOM     25  N   UNL     1       6.914   4.314  18.428  0.00  0.00    +0.000 NA
ATOM     26  N   UNL     1       8.099   4.322  17.728  0.00  0.00    +0.000 NA
ATOM     27  N   UNL     1       7.879   4.443  16.426  0.00  0.00    +0.000 NA
ATOM     28  N   UNL     1       6.548   4.505  16.301  0.00  0.00    +0.000 N 
ATOM     29  C   UNL     1       5.945   4.781  15.024  0.00  0.00    +0.000 C 
ENDBRANCH  22  24
ENDBRANCH   3  18
TORSDOF 4
ENDMDL
MODEL 2
REMARK VINA RESULT:      -9.0      1.121      1.176
REMARK  Name = 
REMARK  7 active torsions:
REMARK  status: ('A' for Active; 'I' for Inactive)
REMARK    1  A    between atoms: C_1  and  O_2
REMARK    2  A    between atoms: O_2  and  C_3
REMARK    3  A    between atoms: C_8  and  C_9
REMARK    4  A    between atoms: N_11  and  C_12
REMARK    5  A    between atoms: C_16  and  C_17
REMARK    6  A    between atoms: N_21  and  C_22
REMARK    7  A    between atoms: C_24  and  C_25
REMARK                            x       y       z     vdW  Elec       q    Type
REMARK                         _______ _______ _______ _____ _____    ______ ____
ROOT
ATOM      1  C   UNL     1       1.737   7.236  19.944  0.00  0.00    +0.000 C 
ATOM      2  O   UNL     1       2.106   6.586  20.928  0.00  0.00    +0.000 OA
ATOM      3  N   UNL     1       1.911   6.820  18.633  0.00  0.00    +0.000 N 
ATOM      4  H   UNL     1       1.746   7.496  17.902  0.00  0.00    +0.000 HD
ENDROOT
BRANCH   1  10
ATOM      5  C   UNL     1      -1.373  12.402  22.370  0.00  0.00    +0.000 A 
ATOM      6  C   UNL     1      -1.438  11.352  23.284  0.00  0.00    +0.000 A 
ATOM      7  C   UNL     1      -0.837  10.125  22.989  0.00  0.00    +0.000 A 
ATOM      8  C   UNL     1      -0.153   9.946  21.773  0.00  0.00    +0.000 A 
ATOM      9  C   UNL     1       0.486   8.744  21.414  0.00  0.00    +0.000 A 
ATOM     10  C   UNL     1       1.183   8.604  20.193  0.00  0.00    +0.000 A 
ATOM     11  C   UNL     1       1.219   9.732  19.366  0.00  0.00    +0.000 A 
ATOM     12  C   UNL     1       1.861   9.892  18.026  0.00  0.00    +0.000 C 
ATOM     13  N   UNL     1       0.584  10.896  19.707  0.00  0.00    +0.000 NA
ATOM     14  C   UNL     1      -0.083  11.003  20.861  0.00  0.00    +0.000 A 
ATOM     15  C   UNL     1      -0.703  12.206  21.163  0.00  0.00    +0.000 A 
BRANCH   5  17
ATOM     16  C   UNL     1      -1.247  14.365  23.698  0.00  0.00    +0.000 C 
ATOM     17  O   UNL     1      -1.970  13.568  22.764  0.00  0.00    +0.000 OA
ENDBRANCH   5  17
ENDBRANCH   1  10
BRANCH   3  18
ATOM     18  C   UNL     1       2.455   5.585  18.195  0.00  0.00    +0.000 A 
ATOM     19  C   UNL     1       1.690   4.454  17.880  0.00  0.00    +0.000 A 
ATOM     20  C   UNL     1       2.295   3.291  17.426  0.00  0.00    +0.000 A 
ATOM     21  C   UNL     1       3.679   3.238  17.280  0.00  0.00    +0.000 A 
ATOM     22  C   UNL     1       4.467   4.364  17.537  0.00  0.00    +0.000 A 
ATOM     23  C   UNL     1       3.842   5.522  18.032  0.00  0.00    +0.000 A 
BRANCH  22  24
ATOM     24  C   UNL     1       5.899   4.369  17.235  0.00  0.00    +0.000 A 
ATOM     25  N   UNL     1       6.904   4.382  18.089  0.00  0.00    +0.000 NA
ATOM     26  N   UNL     1       8.056   4.453  17.340  0.00  0.00    +0.000 NA
ATOM     27  N   UNL     1       7.777   4.511  16.045  0.00  0.00    +0.000 NA
ATOM     28  N   UNL     1       6.440   4.471  15.974  0.00  0.00    +0.000 N 
ATOM     29  C   UNL     1       5.769   4.656  14.716  0.00  0.00    +0.000 C 
ENDBRANCH  22  24
ENDBRANCH   3  18
TORSDOF 4
ENDMDL
MODEL 3
REMARK VINA RESULT:      -9.0      1.138      1.145
REMARK  Name = 
REMARK  7 active torsions:
REMARK  status: ('A' for Active; 'I' for Inactive)
REMARK    1  A    between atoms: C_1  and  O_2
REMARK    2  A    between atoms: O_2  and  C_3
REMARK    3  A    between atoms: C_8  and  C_9
REMARK    4  A    between atoms: N_11  and  C_12
REMARK    5  A    between atoms: C_16  and  C_17
REMARK    6  A    between atoms: N_21  and  C_22
REMARK    7  A    between atoms: C_24  and  C_25
REMARK                            x       y       z     vdW  Elec       q    Type
REMARK                         _______ _______ _______ _____ _____    ______ ____
ROOT
ATOM      1  C   UNL     1       2.172   7.667  19.333  0.00  0.00    +0.000 C 
ATOM      2  O   UNL     1       2.421   7.590  18.126  0.00  0.00    +0.000 OA
ATOM      3  N   UNL     1       2.422   6.648  20.240  0.00  0.00    +0.000 N 
ATOM      4  H   UNL     1       2.018   6.732  21.161  0.00  0.00    +0.000 HD
ENDROOT
BRANCH   1  10
ATOM      5  C   UNL     1      -1.477  11.906  22.643  0.00  0.00    +0.000 A 
ATOM      6  C   UNL     1      -1.332  10.739  23.390  0.00  0.00    +0.000 A 
ATOM      7  C   UNL     1      -0.583   9.672  22.888  0.00  0.00    +0.000 A 
ATOM      8  C   UNL     1       0.038   9.772  21.629  0.00  0.00    +0.000 A 
ATOM      9  C   UNL     1       0.817   8.744  21.066  0.00  0.00    +0.000 A 
ATOM     10  C   UNL     1       1.446   8.886  19.809  0.00  0.00    +0.000 A 
ATOM     11  C   UNL     1       1.266  10.113  19.160  0.00  0.00    +0.000 A 
ATOM     12  C   UNL     1       1.790  10.557  17.833  0.00  0.00    +0.000 C 
ATOM     13  N   UNL     1       0.495  11.107  19.700  0.00  0.00    +0.000 NA
ATOM     14  C   UNL     1      -0.102  10.947  20.885  0.00  0.00    +0.000 A 
ATOM     15  C   UNL     1      -0.867  11.987  21.392  0.00  0.00    +0.000 A 
BRANCH   5  17
ATOM     16  C   UNL     1      -3.520  12.551  23.665  0.00  0.00    +0.000 C 
ATOM     17  O   UNL     1      -2.207  12.901  23.233  0.00  0.00    +0.000 OA
ENDBRANCH   5  17
ENDBRANCH   1  10
BRANCH   3  18
ATOM     18  C   UNL     1       3.055   5.407  19.975  0.00  0.00    +0.000 A 
ATOM     19  C   UNL     1       2.520   4.159  20.324  0.00  0.00    +0.000 A 
ATOM     20  C   UNL     1       3.185   2.985  20.001  0.00  0.00    +0.000 A 
ATOM     21  C   UNL     1       4.400   3.038  19.323  0.00  0.00    +0.000 A 
ATOM     22  C   UNL     1       4.936   4.264  18.915  0.00  0.00    +0.000 A 
ATOM     23  C   UNL     1       4.269   5.445  19.283  0.00  0.00    +0.000 A 
BRANCH  22  24
ATOM     24  C   UNL     1       6.127   4.322  18.066  0.00  0.00    +0.000 A 
ATOM     25  N   UNL     1       7.380   4.490  18.442  0.00  0.00    +0.000 NA
ATOM     26  N   UNL     1       8.132   4.548  17.291  0.00  0.00    +0.000 NA
ATOM     27  N   UNL     1       7.363   4.446  16.217  0.00  0.00    +0.000 NA
ATOM     28  N   UNL     1       6.117   4.317  16.690  0.00  0.00    +0.000 N 
ATOM     29  C   UNL     1       4.991   4.322  15.796  0.00  0.00    +0.000 C 
ENDBRANCH  22  24
ENDBRANCH   3  18
TORSDOF 4
ENDMDL
MODEL 4
REMARK VINA RESULT:      -8.9      0.860      1.349
REMARK  Name = 
REMARK  7 active torsions:
REMARK  status: ('A' for Active; 'I' for Inactive)
REMARK    1  A    between atoms: C_1  and  O_2
REMARK    2  A    between atoms: O_2  and  C_3
REMARK    3  A    between atoms: C_8  and  C_9
REMARK    4  A    between atoms: N_11  and  C_12
REMARK    5  A    between atoms: C_16  and  C_17
REMARK    6  A    between atoms: N_21  and  C_22
REMARK    7  A    between atoms: C_24  and  C_25
REMARK                            x       y       z     vdW  Elec       q    Type
REMARK                         _______ _______ _______ _____ _____    ______ ____
ROOT
ATOM      1  C   UNL     1       2.008   8.656  18.400  0.00  0.00    +0.000 C 
ATOM      2  O   UNL     1       2.062   8.825  17.178  0.00  0.00    +0.000 OA
ATOM      3  N   UNL     1       2.281   7.449  19.027  0.00  0.00    +0.000 N 
ATOM      4  H   UNL     1       2.032   7.361  20.001  0.00  0.00    +0.000 HD
ENDROOT
BRANCH   1  10
ATOM      5  C   UNL     1      -1.039  12.343  22.801  0.00  0.00    +0.000 A 
ATOM      6  C   UNL     1      -1.220  10.999  23.120  0.00  0.00    +0.000 A 
ATOM      7  C   UNL     1      -0.653  10.004  22.317  0.00  0.00    +0.000 A 
ATOM      8  C   UNL     1       0.110  10.354  21.189  0.00  0.00    +0.000 A 
ATOM      9  C   UNL     1       0.720   9.408  20.343  0.00  0.00    +0.000 A 
ATOM     10  C   UNL     1       1.499   9.793  19.229  0.00  0.00    +0.000 A 
ATOM     11  C   UNL     1       1.647  11.170  19.022  0.00  0.00    +0.000 A 
ATOM     12  C   UNL     1       2.394  11.880  17.940  0.00  0.00    +0.000 C 
ATOM     13  N   UNL     1       1.041  12.090  19.834  0.00  0.00    +0.000 NA
ATOM     14  C   UNL     1       0.296  11.703  20.876  0.00  0.00    +0.000 A 
ATOM     15  C   UNL     1      -0.290  12.675  21.672  0.00  0.00    +0.000 A 
BRANCH   5  17
ATOM     16  C   UNL     1      -3.030  13.357  23.603  0.00  0.00    +0.000 C 
ATOM     17  O   UNL     1      -1.611  13.239  23.663  0.00  0.00    +0.000 OA
ENDBRANCH   5  17
ENDBRANCH   1  10
BRANCH   3  18
ATOM     18  C   UNL     1       2.728   6.252  18.412  0.00  0.00    +0.000 A 
ATOM     19  C   UNL     1       2.035   5.034  18.463  0.00  0.00    +0.000 A 
ATOM     20  C   UNL     1       2.522   3.912  17.807  0.00  0.00    +0.000 A 
ATOM     21  C   UNL     1       3.712   3.988  17.089  0.00  0.00    +0.000 A 
ATOM     22  C   UNL     1       4.401   5.200  16.976  0.00  0.00    +0.000 A 
ATOM     23  C   UNL     1       3.914   6.317  17.677  0.00  0.00    +0.000 A 
BRANCH  22  24
ATOM     24  C   UNL     1       5.563   5.328  16.096  0.00  0.00    +0.000 A 
ATOM     25  N   UNL     1       5.571   5.562  14.798  0.00  0.00    +0.000 NA
ATOM     26  N   UNL     1       6.887   5.526  14.399  0.00  0.00    +0.000 NA
ATOM     27  N   UNL     1       7.685   5.248  15.421  0.00  0.00    +0.000 NA
ATOM     28  N   UNL     1       6.869   5.113  16.474  0.00  0.00    +0.000 N 
ATOM     29  C   UNL     1       7.379   4.668  17.743  0.00  0.00    +0.000 C 
ENDBRANCH  22  24
ENDBRANCH   3  18
TORSDOF 4
ENDMDL
MODEL 5
REMARK VINA RESULT:      -8.8      1.505      1.810
REMARK  Name = 
REMARK  7 active torsions:
REMARK  status: ('A' for Active; 'I' for Inactive)
REMARK    1  A    between atoms: C_1  and  O_2
REMARK    2  A    between atoms: O_2  and  C_3
REMARK    3  A    between atoms: C_8  and  C_9
REMARK    4  A    between atoms: N_11  and  C_12
REMARK    5  A    between atoms: C_16  and  C_17
REMARK    6  A    between atoms: N_21  and  C_22
REMARK    7  A    between atoms: C_24  and  C_25
REMARK                            x       y       z     vdW  Elec       q    Type
REMARK                         _______ _______ _______ _____ _____    ______ ____
ROOT
ATOM      1  C   UNL     1       2.217   6.851  19.596  0.00  0.00    +0.000 C 
ATOM      2  O   UNL     1       2.433   6.070  20.529  0.00  0.00    +0.000 OA
ATOM      3  N   UNL     1       2.648   6.639  18.295  0.00  0.00    +0.000 N 
ATOM      4  H   UNL     1       2.585   7.413  17.650  0.00  0.00    +0.000 HD
ENDROOT
BRANCH   1  10
ATOM      5  C   UNL     1      -1.161  11.637  22.410  0.00  0.00    +0.000 A 
ATOM      6  C   UNL     1      -1.058  10.564  23.292  0.00  0.00    +0.000 A 
ATOM      7  C   UNL     1      -0.370   9.407  22.914  0.00  0.00    +0.000 A 
ATOM      8  C   UNL     1       0.231   9.323  21.646  0.00  0.00    +0.000 A 
ATOM      9  C   UNL     1       0.949   8.196  21.202  0.00  0.00    +0.000 A 
ATOM     10  C   UNL     1       1.560   8.153  19.929  0.00  0.00    +0.000 A 
ATOM     11  C   UNL     1       1.427   9.300  19.138  0.00  0.00    +0.000 A 
ATOM     12  C   UNL     1       1.947   9.554  17.759  0.00  0.00    +0.000 C 
ATOM     13  N   UNL     1       0.715  10.390  19.562  0.00  0.00    +0.000 NA
ATOM     14  C   UNL     1       0.133  10.404  20.766  0.00  0.00    +0.000 A 
ATOM     15  C   UNL     1      -0.571  11.536  21.151  0.00  0.00    +0.000 A 
BRANCH   5  17
ATOM     16  C   UNL     1      -3.234  12.773  22.632  0.00  0.00    +0.000 C 
ATOM     17  O   UNL     1      -1.831  12.732  22.884  0.00  0.00    +0.000 OA
ENDBRANCH   5  17
ENDBRANCH   1  10
BRANCH   3  18
ATOM     18  C   UNL     1       3.323   5.496  17.796  0.00  0.00    +0.000 A 
ATOM     19  C   UNL     1       2.905   4.176  18.012  0.00  0.00    +0.000 A 
ATOM     20  C   UNL     1       3.603   3.110  17.462  0.00  0.00    +0.000 A 
ATOM     21  C   UNL     1       4.734   3.346  16.685  0.00  0.00    +0.000 A 
ATOM     22  C   UNL     1       5.149   4.652  16.408  0.00  0.00    +0.000 A 
ATOM     23  C   UNL     1       4.453   5.719  17.004  0.00  0.00    +0.000 A 
BRANCH  22  24
ATOM     24  C   UNL     1       6.238   4.915  15.466  0.00  0.00    +0.000 A 
ATOM     25  N   UNL     1       7.327   5.629  15.670  0.00  0.00    +0.000 NA
ATOM     26  N   UNL     1       8.015   5.648  14.478  0.00  0.00    +0.000 NA
ATOM     27  N   UNL     1       7.356   4.982  13.540  0.00  0.00    +0.000 NA
ATOM     28  N   UNL     1       6.247   4.535  14.144  0.00  0.00    +0.000 N 
ATOM     29  C   UNL     1       5.215   3.880  13.385  0.00  0.00    +0.000 C 
ENDBRANCH  22  24
ENDBRANCH   3  18
TORSDOF 4
ENDMDL
MODEL 6
REMARK VINA RESULT:      -8.7      1.341      1.736
REMARK  Name = 
REMARK  7 active torsions:
REMARK  status: ('A' for Active; 'I' for Inactive)
REMARK    1  A    between atoms: C_1  and  O_2
REMARK    2  A    between atoms: O_2  and  C_3
REMARK    3  A    between atoms: C_8  and  C_9
REMARK    4  A    between atoms: N_11  and  C_12
REMARK    5  A    between atoms: C_16  and  C_17
REMARK    6  A    between atoms: N_21  and  C_22
REMARK    7  A    between atoms: C_24  and  C_25
REMARK                            x       y       z     vdW  Elec       q    Type
REMARK                         _______ _______ _______ _____ _____    ______ ____
ROOT
ATOM      1  C   UNL     1       1.831   7.163  19.868  0.00  0.00    +0.000 C 
ATOM      2  O   UNL     1       2.112   6.476  20.855  0.00  0.00    +0.000 OA
ATOM      3  N   UNL     1       2.116   6.794  18.562  0.00  0.00    +0.000 N 
ATOM      4  H   UNL     1       2.017   7.497  17.845  0.00  0.00    +0.000 HD
ENDROOT
BRANCH   1  10
ATOM      5  C   UNL     1      -1.323  12.295  22.308  0.00  0.00    +0.000 A 
ATOM      6  C   UNL     1      -1.367  11.247  23.225  0.00  0.00    +0.000 A 
ATOM      7  C   UNL     1      -0.752  10.028  22.928  0.00  0.00    +0.000 A 
ATOM      8  C   UNL     1      -0.077   9.854  21.706  0.00  0.00    +0.000 A 
ATOM      9  C   UNL     1       0.574   8.659  21.345  0.00  0.00    +0.000 A 
ATOM     10  C   UNL     1       1.262   8.524  20.118  0.00  0.00    +0.000 A 
ATOM     11  C   UNL     1       1.275   9.651  19.288  0.00  0.00    +0.000 A 
ATOM     12  C   UNL     1       1.904   9.816  17.941  0.00  0.00    +0.000 C 
ATOM     13  N   UNL     1       0.629  10.808  19.631  0.00  0.00    +0.000 NA
ATOM     14  C   UNL     1      -0.029  10.909  20.791  0.00  0.00    +0.000 A 
ATOM     15  C   UNL     1      -0.662  12.105  21.096  0.00  0.00    +0.000 A 
BRANCH   5  17
ATOM     16  C   UNL     1      -1.184  14.295  23.581  0.00  0.00    +0.000 C 
ATOM     17  O   UNL     1      -1.931  13.455  22.704  0.00  0.00    +0.000 OA
ENDBRANCH   5  17
ENDBRANCH   1  10
BRANCH   3  18
ATOM     18  C   UNL     1       2.693   5.573  18.128  0.00  0.00    +0.000 A 
ATOM     19  C   UNL     1       2.139   4.308  18.374  0.00  0.00    +0.000 A 
ATOM     20  C   UNL     1       2.747   3.160  17.887  0.00  0.00    +0.000 A 
ATOM     21  C   UNL     1       3.921   3.255  17.145  0.00  0.00    +0.000 A 
ATOM     22  C   UNL     1       4.471   4.504  16.838  0.00  0.00    +0.000 A 
ATOM     23  C   UNL     1       3.864   5.655  17.371  0.00  0.00    +0.000 A 
BRANCH  22  24
ATOM     24  C   UNL     1       5.612   4.624  15.928  0.00  0.00    +0.000 A 
ATOM     25  N   UNL     1       5.596   4.620  14.610  0.00  0.00    +0.000 NA
ATOM     26  N   UNL     1       6.908   4.685  14.200  0.00  0.00    +0.000 NA
ATOM     27  N   UNL     1       7.729   4.702  15.241  0.00  0.00    +0.000 NA
ATOM     28  N   UNL     1       6.932   4.652  16.315  0.00  0.00    +0.000 N 
ATOM     29  C   UNL     1       7.489   4.511  17.634  0.00  0.00    +0.000 C 
ENDBRANCH  22  24
ENDBRANCH   3  18
TORSDOF 4
ENDMDL
MODEL 7
REMARK VINA RESULT:      -8.6      3.200      9.725
REMARK  Name = 
REMARK  7 active torsions:
REMARK  status: ('A' for Active; 'I' for Inactive)
REMARK    1  A    between atoms: C_1  and  O_2
REMARK    2  A    between atoms: O_2  and  C_3
REMARK    3  A    between atoms: C_8  and  C_9
REMARK    4  A    between atoms: N_11  and  C_12
REMARK    5  A    between atoms: C_16  and  C_17
REMARK    6  A    between atoms: N_21  and  C_22
REMARK    7  A    between atoms: C_24  and  C_25
REMARK                            x       y       z     vdW  Elec       q    Type
REMARK                         _______ _______ _______ _____ _____    ______ ____
ROOT
ATOM      1  C   UNL     1       1.705   8.258  19.625  0.00  0.00    +0.000 C 
ATOM      2  O   UNL     1       1.460   8.190  20.834  0.00  0.00    +0.000 OA
ATOM      3  N   UNL     1       1.237   9.266  18.797  0.00  0.00    +0.000 N 
ATOM      4  H   UNL     1       1.334   9.136  17.801  0.00  0.00    +0.000 HD
ENDROOT
BRANCH   1  10
ATOM      5  C   UNL     1       5.378   4.481  15.819  0.00  0.00    +0.000 A 
ATOM      6  C   UNL     1       5.534   5.812  15.437  0.00  0.00    +0.000 A 
ATOM      7  C   UNL     1       4.843   6.822  16.113  0.00  0.00    +0.000 A 
ATOM      8  C   UNL     1       3.993   6.503  17.188  0.00  0.00    +0.000 A 
ATOM      9  C   UNL     1       3.276   7.467  17.921  0.00  0.00    +0.000 A 
ATOM     10  C   UNL     1       2.448   7.114  19.010  0.00  0.00    +0.000 A 
ATOM     11  C   UNL     1       2.392   5.753  19.331  0.00  0.00    +0.000 A 
ATOM     12  C   UNL     1       1.610   5.075  20.410  0.00  0.00    +0.000 C 
ATOM     13  N   UNL     1       3.077   4.813  18.609  0.00  0.00    +0.000 NA
ATOM     14  C   UNL     1       3.845   5.167  17.573  0.00  0.00    +0.000 A 
ATOM     15  C   UNL     1       4.523   4.178  16.877  0.00  0.00    +0.000 A 
BRANCH   5  17
ATOM     16  C   UNL     1       6.248   3.813  13.714  0.00  0.00    +0.000 C 
ATOM     17  O   UNL     1       6.117   3.572  15.112  0.00  0.00    +0.000 OA
ENDBRANCH   5  17
ENDBRANCH   1  10
BRANCH   3  18
ATOM     18  C   UNL     1       0.482  10.404  19.181  0.00  0.00    +0.000 A 
ATOM     19  C   UNL     1       1.002  11.487  19.904  0.00  0.00    +0.000 A 
ATOM     20  C   UNL     1       0.206  12.581  20.215  0.00  0.00    +0.000 A 
ATOM     21  C   UNL     1      -1.125  12.611  19.808  0.00  0.00    +0.000 A 
ATOM     22  C   UNL     1      -1.660  11.571  19.041  0.00  0.00    +0.000 A 
ATOM     23  C   UNL     1      -0.852  10.454  18.768  0.00  0.00    +0.000 A 
BRANCH  22  24
ATOM     24  C   UNL     1      -3.006  11.666  18.475  0.00  0.00    +0.000 A 
ATOM     25  N   UNL     1      -4.127  11.965  19.102  0.00  0.00    +0.000 NA
ATOM     26  N   UNL     1      -5.137  11.861  18.174  0.00  0.00    +0.000 NA
ATOM     27  N   UNL     1      -4.663  11.478  16.997  0.00  0.00    +0.000 NA
ATOM     28  N   UNL     1      -3.343  11.345  17.180  0.00  0.00    +0.000 N 
ATOM     29  C   UNL     1      -2.512  10.801  16.140  0.00  0.00    +0.000 C 
ENDBRANCH  22  24
ENDBRANCH   3  18
TORSDOF 4
ENDMDL
MODEL 8
REMARK VINA RESULT:      -8.5      1.518      2.469
REMARK  Name = 
REMARK  7 active torsions:
REMARK  status: ('A' for Active; 'I' for Inactive)
REMARK    1  A    between atoms: C_1  and  O_2
REMARK    2  A    between atoms: O_2  and  C_3
REMARK    3  A    between atoms: C_8  and  C_9
REMARK    4  A    between atoms: N_11  and  C_12
REMARK    5  A    between atoms: C_16  and  C_17
REMARK    6  A    between atoms: N_21  and  C_22
REMARK    7  A    between atoms: C_24  and  C_25
REMARK                            x       y       z     vdW  Elec       q    Type
REMARK                         _______ _______ _______ _____ _____    ______ ____
ROOT
ATOM      1  C   UNL     1       1.990   8.384  18.442  0.00  0.00    +0.000 C 
ATOM      2  O   UNL     1       2.187   8.548  17.233  0.00  0.00    +0.000 OA
ATOM      3  N   UNL     1       2.122   7.164  19.087  0.00  0.00    +0.000 N 
ATOM      4  H   UNL     1       1.764   7.092  20.028  0.00  0.00    +0.000 HD
ENDROOT
BRANCH   1  10
ATOM      5  C   UNL     1       0.322  14.324  20.486  0.00  0.00    +0.000 A 
ATOM      6  C   UNL     1       0.776  14.399  19.171  0.00  0.00    +0.000 A 
ATOM      7  C   UNL     1       1.193  13.242  18.505  0.00  0.00    +0.000 A 
ATOM      8  C   UNL     1       1.149  11.996  19.154  0.00  0.00    +0.000 A 
ATOM      9  C   UNL     1       1.541  10.790  18.543  0.00  0.00    +0.000 A 
ATOM     10  C   UNL     1       1.463   9.550  19.217  0.00  0.00    +0.000 A 
ATOM     11  C   UNL     1       0.957   9.584  20.522  0.00  0.00    +0.000 A 
ATOM     12  C   UNL     1       0.763   8.455  21.482  0.00  0.00    +0.000 C 
ATOM     13  N   UNL     1       0.590  10.758  21.122  0.00  0.00    +0.000 NA
ATOM     14  C   UNL     1       0.686  11.923  20.471  0.00  0.00    +0.000 A 
ATOM     15  C   UNL     1       0.295  13.084  21.121  0.00  0.00    +0.000 A 
BRANCH   5  17
ATOM     16  C   UNL     1      -0.762  16.412  20.169  0.00  0.00    +0.000 C 
ATOM     17  O   UNL     1      -0.088  15.506  21.039  0.00  0.00    +0.000 OA
ENDBRANCH   5  17
ENDBRANCH   1  10
BRANCH   3  18
ATOM     18  C   UNL     1       2.561   5.941  18.518  0.00  0.00    +0.000 A 
ATOM     19  C   UNL     1       1.703   4.945  18.032  0.00  0.00    +0.000 A 
ATOM     20  C   UNL     1       2.211   3.788  17.459  0.00  0.00    +0.000 A 
ATOM     21  C   UNL     1       3.588   3.606  17.361  0.00  0.00    +0.000 A 
ATOM     22  C   UNL     1       4.471   4.603  17.790  0.00  0.00    +0.000 A 
ATOM     23  C   UNL     1       3.941   5.751  18.403  0.00  0.00    +0.000 A 
BRANCH  22  24
ATOM     24  C   UNL     1       5.910   4.491  17.548  0.00  0.00    +0.000 A 
ATOM     25  N   UNL     1       6.872   4.367  18.441  0.00  0.00    +0.000 NA
ATOM     26  N   UNL     1       8.059   4.372  17.745  0.00  0.00    +0.000 NA
ATOM     27  N   UNL     1       7.846   4.523  16.446  0.00  0.00    +0.000 NA
ATOM     28  N   UNL     1       6.516   4.609  16.318  0.00  0.00    +0.000 N 
ATOM     29  C   UNL     1       5.922   4.921  15.046  0.00  0.00    +0.000 C 
ENDBRANCH  22  24
ENDBRANCH   3  18
TORSDOF 4
ENDMDL
MODEL 9
REMARK VINA RESULT:      -8.5      3.128      9.911
REMARK  Name = 
REMARK  7 active torsions:
REMARK  status: ('A' for Active; 'I' for Inactive)
REMARK    1  A    between atoms: C_1  and  O_2
REMARK    2  A    between atoms: O_2  and  C_3
REMARK    3  A    between atoms: C_8  and  C_9
REMARK    4  A    between atoms: N_11  and  C_12
REMARK    5  A    between atoms: C_16  and  C_17
REMARK    6  A    between atoms: N_21  and  C_22
REMARK    7  A    between atoms: C_24  and  C_25
REMARK                            x       y       z     vdW  Elec       q    Type
REMARK                         _______ _______ _______ _____ _____    ______ ____
ROOT
ATOM      1  C   UNL     1       1.718   8.250  19.694  0.00  0.00    +0.000 C 
ATOM      2  O   UNL     1       1.484   8.205  20.907  0.00  0.00    +0.000 OA
ATOM      3  N   UNL     1       1.232   9.237  18.850  0.00  0.00    +0.000 N 
ATOM      4  H   UNL     1       1.321   9.088  17.856  0.00  0.00    +0.000 HD
ENDROOT
BRANCH   1  10
ATOM      5  C   UNL     1       5.390   4.432  15.930  0.00  0.00    +0.000 A 
ATOM      6  C   UNL     1       5.530   5.756  15.520  0.00  0.00    +0.000 A 
ATOM      7  C   UNL     1       4.835   6.773  16.182  0.00  0.00    +0.000 A 
ATOM      8  C   UNL     1       4.000   6.467  17.271  0.00  0.00    +0.000 A 
ATOM      9  C   UNL     1       3.280   7.440  17.991  0.00  0.00    +0.000 A 
ATOM     10  C   UNL     1       2.466   7.101  19.095  0.00  0.00    +0.000 A 
ATOM     11  C   UNL     1       2.427   5.746  19.445  0.00  0.00    +0.000 A 
ATOM     12  C   UNL     1       1.661   5.084  20.545  0.00  0.00    +0.000 C 
ATOM     13  N   UNL     1       3.113   4.798  18.735  0.00  0.00    +0.000 NA
ATOM     14  C   UNL     1       3.867   5.139  17.685  0.00  0.00    +0.000 A 
ATOM     15  C   UNL     1       4.549   4.142  17.003  0.00  0.00    +0.000 A 
BRANCH   5  17
ATOM     16  C   UNL     1       6.295   3.760  13.841  0.00  0.00    +0.000 C 
ATOM     17  O   UNL     1       6.132   3.515  15.236  0.00  0.00    +0.000 OA
ENDBRANCH   5  17
ENDBRANCH   1  10
BRANCH   3  18
ATOM     18  C   UNL     1       0.470  10.376  19.218  0.00  0.00    +0.000 A 
ATOM     19  C   UNL     1       0.977  11.462  19.946  0.00  0.00    +0.000 A 
ATOM     20  C   UNL     1       0.175  12.555  20.240  0.00  0.00    +0.000 A 
ATOM     21  C   UNL     1      -1.149  12.583  19.812  0.00  0.00    +0.000 A 
ATOM     22  C   UNL     1      -1.671  11.540  19.040  0.00  0.00    +0.000 A 
ATOM     23  C   UNL     1      -0.857  10.422  18.783  0.00  0.00    +0.000 A 
BRANCH  22  24
ATOM     24  C   UNL     1      -3.008  11.631  18.451  0.00  0.00    +0.000 A 
ATOM     25  N   UNL     1      -3.354  11.419  17.197  0.00  0.00    +0.000 NA
ATOM     26  N   UNL     1      -4.699  11.694  17.107  0.00  0.00    +0.000 NA
ATOM     27  N   UNL     1      -5.179  12.097  18.276  0.00  0.00    +0.000 NA
ATOM     28  N   UNL     1      -4.133  12.071  19.110  0.00  0.00    +0.000 N 
ATOM     29  C   UNL     1      -4.252  12.585  20.448  0.00  0.00    +0.000 C 
ENDBRANCH  22  24
ENDBRANCH   3  18
TORSDOF 4
ENDMDL
