MODEL 1
REMARK VINA RESULT:      -8.4      0.000      0.000
REMARK  Name = 
REMARK  4 active torsions:
REMARK  status: ('A' for Active; 'I' for Inactive)
REMARK    1  A    between atoms: C_1  and  N_2
REMARK    2  A    between atoms: C_6  and  C_7
REMARK    3  A    between atoms: C_11  and  N_12
REMARK    4  A    between atoms: C_13  and  C_15
REMARK                            x       y       z     vdW  Elec       q    Type
REMARK                         _______ _______ _______ _____ _____    ______ ____
ROOT
ATOM      1  N   UNL     1       1.312   8.930  19.104  0.00  0.00    +0.000 N 
ATOM      2  C   UNL     1       2.172   8.245  18.260  0.00  0.00    +0.000 C 
ATOM      3  O   UNL     1       2.610   8.635  17.180  0.00  0.00    +0.000 OA
ATOM      4  H   UNL     1       1.101   8.450  19.975  0.00  0.00    +0.000 HD
ENDROOT
BRANCH   2   5
ATOM      5  C   UNL     1       2.598   6.882  18.821  0.00  0.00    +0.000 C 
ATOM      6  C   UNL     1       1.941   6.580  20.174  0.00  0.00    +0.000 C 
ATOM      7  C   UNL     1       1.873   5.102  20.056  0.00  0.00    +0.000 A 
ATOM      8  C   UNL     1       1.664   4.131  21.021  0.00  0.00    +0.000 A 
ATOM      9  C   UNL     1       1.595   2.796  20.604  0.00  0.00    +0.000 A 
ATOM     10  C   UNL     1       1.711   2.459  19.246  0.00  0.00    +0.000 A 
ATOM     11  C   UNL     1       1.920   3.447  18.287  0.00  0.00    +0.000 A 
ATOM     12  C   UNL     1       2.014   4.750  18.722  0.00  0.00    +0.000 A 
ATOM     13  O   UNL     1       2.244   5.820  17.897  0.00  0.00    +0.000 OA
ENDBRANCH   2   5
BRANCH   1  18
ATOM     14  C   UNL     1      -1.366  11.375  18.293  0.00  0.00    +0.000 A 
ATOM     15  C   UNL     1      -0.673  12.583  18.467  0.00  0.00    +0.000 A 
ATOM     16  C   UNL     1       0.674  12.595  18.819  0.00  0.00    +0.000 A 
ATOM     17  C   UNL     1       1.354  11.395  19.020  0.00  0.00    +0.000 A 
ATOM     18  C   UNL     1       0.690  10.176  18.884  0.00  0.00    +0.000 A 
ATOM     19  C   UNL     1      -0.670  10.175  18.512  0.00  0.00    +0.000 A 
BRANCH  14  25
ATOM     20  C   UNL     1      -2.823  10.819  15.491  0.00  0.00    +0.000 C 
ATOM     21  N   UNL     1      -3.408  11.215  16.742  0.00  0.00    +0.000 N 
ATOM     22  C   UNL     1      -4.728  11.520  16.910  0.00  0.00    +0.000 A 
ATOM     23  N   UNL     1      -4.940  11.897  18.144  0.00  0.00    +0.000 NA
ATOM     24  N   UNL     1      -3.733  11.864  18.793  0.00  0.00    +0.000 NA
ATOM     25  C   UNL     1      -2.794  11.454  17.951  0.00  0.00    +0.000 A 
ENDBRANCH  14  25
ENDBRANCH   1  18
TORSDOF 3
ENDMDL
MODEL 2
REMARK VINA RESULT:      -8.1      4.478      6.978
REMARK  Name = 
REMARK  4 active torsions:
REMARK  status: ('A' for Active; 'I' for Inactive)
REMARK    1  A    between atoms: C_1  and  N_2
REMARK    2  A    between atoms: C_6  and  C_7
REMARK    3  A    between atoms: C_11  and  N_12
REMARK    4  A    between atoms: C_13  and  C_15
REMARK                            x       y       z     vdW  Elec       q    Type
REMARK                         _______ _______ _______ _____ _____    ______ ____
ROOT
ATOM      1  N   UNL     1       4.583   4.469  17.936  0.00  0.00    +0.000 N 
ATOM      2  C   UNL     1       5.852   4.997  17.752  0.00  0.00    +0.000 C 
ATOM      3  O   UNL     1       6.426   5.802  18.481  0.00  0.00    +0.000 OA
ATOM      4  H   UNL     1       4.305   3.781  17.240  0.00  0.00    +0.000 HD
ENDROOT
BRANCH   2   5
ATOM      5  C   UNL     1       6.554   4.441  16.507  0.00  0.00    +0.000 C 
ATOM      6  C   UNL     1       5.583   3.714  15.568  0.00  0.00    +0.000 C 
ATOM      7  C   UNL     1       6.265   4.005  14.282  0.00  0.00    +0.000 A 
ATOM      8  C   UNL     1       6.120   3.423  13.034  0.00  0.00    +0.000 A 
ATOM      9  C   UNL     1       6.869   3.947  11.975  0.00  0.00    +0.000 A 
ATOM     10  C   UNL     1       7.724   5.044  12.170  0.00  0.00    +0.000 A 
ATOM     11  C   UNL     1       7.859   5.619  13.432  0.00  0.00    +0.000 A 
ATOM     12  C   UNL     1       7.134   5.070  14.466  0.00  0.00    +0.000 A 
ATOM     13  O   UNL     1       7.189   5.514  15.761  0.00  0.00    +0.000 OA
ENDBRANCH   2   5
BRANCH   1  18
ATOM     14  C   UNL     1       2.252   6.521  19.977  0.00  0.00    +0.000 A 
ATOM     15  C   UNL     1       1.751   5.546  20.853  0.00  0.00    +0.000 A 
ATOM     16  C   UNL     1       2.198   4.228  20.795  0.00  0.00    +0.000 A 
ATOM     17  C   UNL     1       3.147   3.854  19.844  0.00  0.00    +0.000 A 
ATOM     18  C   UNL     1       3.646   4.790  18.939  0.00  0.00    +0.000 A 
ATOM     19  C   UNL     1       3.199   6.125  19.018  0.00  0.00    +0.000 A 
BRANCH  14  25
ATOM     20  C   UNL     1       1.898   8.762  17.713  0.00  0.00    +0.000 C 
ATOM     21  N   UNL     1       1.559   8.836  19.107  0.00  0.00    +0.000 N 
ATOM     22  C   UNL     1       1.099   9.962  19.727  0.00  0.00    +0.000 A 
ATOM     23  N   UNL     1       0.936   9.727  21.003  0.00  0.00    +0.000 NA
ATOM     24  N   UNL     1       1.321   8.431  21.231  0.00  0.00    +0.000 NA
ATOM     25  C   UNL     1       1.704   7.880  20.087  0.00  0.00    +0.000 A 
ENDBRANCH  14  25
ENDBRANCH   1  18
TORSDOF 3
ENDMDL
MODEL 3
REMARK VINA RESULT:      -8.1      0.623      1.239
REMARK  Name = 
REMARK  4 active torsions:
REMARK  status: ('A' for Active; 'I' for Inactive)
REMARK    1  A    between atoms: C_1  and  N_2
REMARK    2  A    between atoms: C_6  and  C_7
REMARK    3  A    between atoms: C_11  and  N_12
REMARK    4  A    between atoms: C_13  and  C_15
REMARK                            x       y       z     vdW  Elec       q    Type
REMARK                         _______ _______ _______ _____ _____    ______ ____
ROOT
ATOM      1  N   UNL     1       1.271   8.824  19.324  0.00  0.00    +0.000 N 
ATOM      2  C   UNL     1       2.121   8.163  18.451  0.00  0.00    +0.000 C 
ATOM      3  O   UNL     1       2.532   8.578  17.370  0.00  0.00    +0.000 OA
ATOM      4  H   UNL     1       1.083   8.325  20.191  0.00  0.00    +0.000 HD
ENDROOT
BRANCH   2   5
ATOM      5  C   UNL     1       2.574   6.796  18.979  0.00  0.00    +0.000 C 
ATOM      6  C   UNL     1       1.918   6.445  20.320  0.00  0.00    +0.000 C 
ATOM      7  C   UNL     1       1.882   4.969  20.164  0.00  0.00    +0.000 A 
ATOM      8  C   UNL     1       1.690   3.969  21.103  0.00  0.00    +0.000 A 
ATOM      9  C   UNL     1       1.652   2.644  20.651  0.00  0.00    +0.000 A 
ATOM     10  C   UNL     1       1.782   2.345  19.285  0.00  0.00    +0.000 A 
ATOM     11  C   UNL     1       1.974   3.362  18.353  0.00  0.00    +0.000 A 
ATOM     12  C   UNL     1       2.037   4.656  18.822  0.00  0.00    +0.000 A 
ATOM     13  O   UNL     1       2.248   5.751  18.025  0.00  0.00    +0.000 OA
ENDBRANCH   2   5
BRANCH   1  18
ATOM     14  C   UNL     1      -1.268  11.279  18.169  0.00  0.00    +0.000 A 
ATOM     15  C   UNL     1      -0.765  12.458  18.741  0.00  0.00    +0.000 A 
ATOM     16  C   UNL     1       0.418  12.453  19.476  0.00  0.00    +0.000 A 
ATOM     17  C   UNL     1       1.115  11.261  19.668  0.00  0.00    +0.000 A 
ATOM     18  C   UNL     1       0.629  10.065  19.139  0.00  0.00    +0.000 A 
ATOM     19  C   UNL     1      -0.560  10.085  18.383  0.00  0.00    +0.000 A 
BRANCH  14  25
ATOM     20  C   UNL     1      -4.187  12.061  19.240  0.00  0.00    +0.000 C 
ATOM     21  N   UNL     1      -3.789  11.703  17.907  0.00  0.00    +0.000 N 
ATOM     22  C   UNL     1      -4.653  11.543  16.863  0.00  0.00    +0.000 A 
ATOM     23  N   UNL     1      -3.995  11.162  15.799  0.00  0.00    +0.000 NA
ATOM     24  N   UNL     1      -2.677  11.045  16.157  0.00  0.00    +0.000 NA
ATOM     25  C   UNL     1      -2.539  11.369  17.435  0.00  0.00    +0.000 A 
ENDBRANCH  14  25
ENDBRANCH   1  18
TORSDOF 3
ENDMDL
MODEL 4
REMARK VINA RESULT:      -8.1      3.951      8.498
REMARK  Name = 
REMARK  4 active torsions:
REMARK  status: ('A' for Active; 'I' for Inactive)
REMARK    1  A    between atoms: C_1  and  N_2
REMARK    2  A    between atoms: C_6  and  C_7
REMARK    3  A    between atoms: C_11  and  N_12
REMARK    4  A    between atoms: C_13  and  C_15
REMARK                            x       y       z     vdW  Elec       q    Type
REMARK                         _______ _______ _______ _____ _____    ______ ____
ROOT
ATOM      1  N   UNL     1       2.255   7.119  19.094  0.00  0.00    +0.000 N 
ATOM      2  C   UNL     1       1.943   8.364  18.570  0.00  0.00    +0.000 C 
ATOM      3  O   UNL     1       1.898   8.671  17.381  0.00  0.00    +0.000 OA
ATOM      4  H   UNL     1       2.195   7.059  20.108  0.00  0.00    +0.000 HD
ENDROOT
BRANCH   2   5
ATOM      5  C   UNL     1       1.600   9.398  19.650  0.00  0.00    +0.000 C 
ATOM      6  C   UNL     1       0.454  10.325  19.225  0.00  0.00    +0.000 C 
ATOM      7  C   UNL     1      -0.123  10.586  20.567  0.00  0.00    +0.000 A 
ATOM      8  C   UNL     1      -1.002  11.568  20.993  0.00  0.00    +0.000 A 
ATOM      9  C   UNL     1      -1.422  11.537  22.328  0.00  0.00    +0.000 A 
ATOM     10  C   UNL     1      -0.981  10.528  23.199  0.00  0.00    +0.000 A 
ATOM     11  C   UNL     1      -0.096   9.547  22.755  0.00  0.00    +0.000 A 
ATOM     12  C   UNL     1       0.327   9.613  21.446  0.00  0.00    +0.000 A 
ATOM     13  O   UNL     1       1.214   8.734  20.882  0.00  0.00    +0.000 OA
ENDBRANCH   2   5
BRANCH   1  18
ATOM     14  C   UNL     1       4.306   4.933  16.898  0.00  0.00    +0.000 A 
ATOM     15  C   UNL     1       3.604   3.723  17.012  0.00  0.00    +0.000 A 
ATOM     16  C   UNL     1       2.447   3.632  17.781  0.00  0.00    +0.000 A 
ATOM     17  C   UNL     1       1.975   4.750  18.467  0.00  0.00    +0.000 A 
ATOM     18  C   UNL     1       2.663   5.962  18.400  0.00  0.00    +0.000 A 
ATOM     19  C   UNL     1       3.824   6.047  17.606  0.00  0.00    +0.000 A 
BRANCH  14  25
ATOM     20  C   UNL     1       7.360   4.690  17.841  0.00  0.00    +0.000 C 
ATOM     21  N   UNL     1       6.843   4.831  16.507  0.00  0.00    +0.000 N 
ATOM     22  C   UNL     1       7.618   4.984  15.395  0.00  0.00    +0.000 A 
ATOM     23  N   UNL     1       6.856   5.143  14.344  0.00  0.00    +0.000 NA
ATOM     24  N   UNL     1       5.555   5.120  14.778  0.00  0.00    +0.000 NA
ATOM     25  C   UNL     1       5.535   4.933  16.091  0.00  0.00    +0.000 A 
ENDBRANCH  14  25
ENDBRANCH   1  18
TORSDOF 3
ENDMDL
MODEL 5
REMARK VINA RESULT:      -8.1      4.528      6.884
REMARK  Name = 
REMARK  4 active torsions:
REMARK  status: ('A' for Active; 'I' for Inactive)
REMARK    1  A    between atoms: C_1  and  N_2
REMARK    2  A    between atoms: C_6  and  C_7
REMARK    3  A    between atoms: C_11  and  N_12
REMARK    4  A    between atoms: C_13  and  C_15
REMARK                            x       y       z     vdW  Elec       q    Type
REMARK                         _______ _______ _______ _____ _____    ______ ____
ROOT
ATOM      1  N   UNL     1       4.598   4.787  17.756  0.00  0.00    +0.000 N 
ATOM      2  C   UNL     1       5.951   5.073  17.666  0.00  0.00    +0.000 C 
ATOM      3  O   UNL     1       6.623   5.712  18.472  0.00  0.00    +0.000 OA
ATOM      4  H   UNL     1       4.236   4.205  17.004  0.00  0.00    +0.000 HD
ENDROOT
BRANCH   2   5
ATOM      5  C   UNL     1       6.608   4.465  16.420  0.00  0.00    +0.000 C 
ATOM      6  C   UNL     1       5.596   3.736  15.527  0.00  0.00    +0.000 C 
ATOM      7  C   UNL     1       6.253   3.974  14.217  0.00  0.00    +0.000 A 
ATOM      8  C   UNL     1       6.062   3.360  12.990  0.00  0.00    +0.000 A 
ATOM      9  C   UNL     1       6.798   3.835  11.898  0.00  0.00    +0.000 A 
ATOM     10  C   UNL     1       7.684   4.914  12.041  0.00  0.00    +0.000 A 
ATOM     11  C   UNL     1       7.865   5.521  13.282  0.00  0.00    +0.000 A 
ATOM     12  C   UNL     1       7.153   5.020  14.349  0.00  0.00    +0.000 A 
ATOM     13  O   UNL     1       7.250   5.499  15.629  0.00  0.00    +0.000 OA
ENDBRANCH   2   5
BRANCH   1  18
ATOM     14  C   UNL     1       2.268   7.049  19.563  0.00  0.00    +0.000 A 
ATOM     15  C   UNL     1       1.820   6.196  20.582  0.00  0.00    +0.000 A 
ATOM     16  C   UNL     1       2.303   4.895  20.696  0.00  0.00    +0.000 A 
ATOM     17  C   UNL     1       3.235   4.414  19.777  0.00  0.00    +0.000 A 
ATOM     18  C   UNL     1       3.681   5.224  18.734  0.00  0.00    +0.000 A 
ATOM     19  C   UNL     1       3.198   6.545  18.638  0.00  0.00    +0.000 A 
BRANCH  14  25
ATOM     20  C   UNL     1       1.158   8.902  21.931  0.00  0.00    +0.000 C 
ATOM     21  N   UNL     1       1.207   9.183  20.523  0.00  0.00    +0.000 N 
ATOM     22  C   UNL     1       0.676  10.298  19.943  0.00  0.00    +0.000 A 
ATOM     23  N   UNL     1       0.831  10.237  18.646  0.00  0.00    +0.000 NA
ATOM     24  N   UNL     1       1.452   9.047  18.366  0.00  0.00    +0.000 NA
ATOM     25  C   UNL     1       1.684   8.397  19.498  0.00  0.00    +0.000 A 
ENDBRANCH  14  25
ENDBRANCH   1  18
TORSDOF 3
ENDMDL
MODEL 6
REMARK VINA RESULT:      -7.9      3.892      8.591
REMARK  Name = 
REMARK  4 active torsions:
REMARK  status: ('A' for Active; 'I' for Inactive)
REMARK    1  A    between atoms: C_1  and  N_2
REMARK    2  A    between atoms: C_6  and  C_7
REMARK    3  A    between atoms: C_11  and  N_12
REMARK    4  A    between atoms: C_13  and  C_15
REMARK                            x       y       z     vdW  Elec       q    Type
REMARK                         _______ _______ _______ _____ _____    ______ ____
ROOT
ATOM      1  N   UNL     1       2.119   7.229  19.586  0.00  0.00    +0.000 N 
ATOM      2  C   UNL     1       1.772   8.391  18.914  0.00  0.00    +0.000 C 
ATOM      3  O   UNL     1       1.735   8.554  17.697  0.00  0.00    +0.000 OA
ATOM      4  H   UNL     1       2.045   7.286  20.599  0.00  0.00    +0.000 HD
ENDROOT
BRANCH   2   5
ATOM      5  C   UNL     1       1.375   9.531  19.861  0.00  0.00    +0.000 C 
ATOM      6  C   UNL     1       0.231  10.383  19.297  0.00  0.00    +0.000 C 
ATOM      7  C   UNL     1      -0.398  10.780  20.582  0.00  0.00    +0.000 A 
ATOM      8  C   UNL     1      -1.307  11.785  20.866  0.00  0.00    +0.000 A 
ATOM      9  C   UNL     1      -1.774  11.895  22.181  0.00  0.00    +0.000 A 
ATOM     10  C   UNL     1      -1.348  10.997  23.174  0.00  0.00    +0.000 A 
ATOM     11  C   UNL     1      -0.433   9.990  22.872  0.00  0.00    +0.000 A 
ATOM     12  C   UNL     1       0.035   9.918  21.579  0.00  0.00    +0.000 A 
ATOM     13  O   UNL     1       0.955   9.000  21.146  0.00  0.00    +0.000 OA
ENDBRANCH   2   5
BRANCH   1  18
ATOM     14  C   UNL     1       4.415   4.813  17.942  0.00  0.00    +0.000 A 
ATOM     15  C   UNL     1       3.627   3.653  17.965  0.00  0.00    +0.000 A 
ATOM     16  C   UNL     1       2.337   3.669  18.489  0.00  0.00    +0.000 A 
ATOM     17  C   UNL     1       1.814   4.848  19.018  0.00  0.00    +0.000 A 
ATOM     18  C   UNL     1       2.579   6.014  19.038  0.00  0.00    +0.000 A 
ATOM     19  C   UNL     1       3.877   5.990  18.490  0.00  0.00    +0.000 A 
BRANCH  14  25
ATOM     20  C   UNL     1       5.403   4.906  14.893  0.00  0.00    +0.000 C 
ATOM     21  N   UNL     1       6.189   4.738  16.085  0.00  0.00    +0.000 N 
ATOM     22  C   UNL     1       7.530   4.488  16.092  0.00  0.00    +0.000 A 
ATOM     23  N   UNL     1       7.944   4.330  17.322  0.00  0.00    +0.000 NA
ATOM     24  N   UNL     1       6.849   4.454  18.138  0.00  0.00    +0.000 NA
ATOM     25  C   UNL     1       5.776   4.700  17.398  0.00  0.00    +0.000 A 
ENDBRANCH  14  25
ENDBRANCH   1  18
TORSDOF 3
ENDMDL
MODEL 7
REMARK VINA RESULT:      -7.9      3.614      8.661
REMARK  Name = 
REMARK  4 active torsions:
REMARK  status: ('A' for Active; 'I' for Inactive)
REMARK    1  A    between atoms: C_1  and  N_2
REMARK    2  A    between atoms: C_6  and  C_7
REMARK    3  A    between atoms: C_11  and  N_12
REMARK    4  A    between atoms: C_13  and  C_15
REMARK                            x       y       z     vdW  Elec       q    Type
REMARK                         _______ _______ _______ _____ _____    ______ ____
ROOT
ATOM      1  N   UNL     1       1.891   7.689  20.012  0.00  0.00    +0.000 N 
ATOM      2  C   UNL     1       1.611   8.634  19.038  0.00  0.00    +0.000 C 
ATOM      3  O   UNL     1       1.726   8.494  17.822  0.00  0.00    +0.000 OA
ATOM      4  H   UNL     1       1.688   7.988  20.963  0.00  0.00    +0.000 HD
ENDROOT
BRANCH   2   5
ATOM      5  C   UNL     1       1.076   9.949  19.618  0.00  0.00    +0.000 C 
ATOM      6  C   UNL     1      -0.231  10.392  18.948  0.00  0.00    +0.000 C 
ATOM      7  C   UNL     1      -0.843  11.090  20.107  0.00  0.00    +0.000 A 
ATOM      8  C   UNL     1      -1.896  11.988  20.162  0.00  0.00    +0.000 A 
ATOM      9  C   UNL     1      -2.296  12.451  21.421  0.00  0.00    +0.000 A 
ATOM     10  C   UNL     1      -1.662  12.001  22.590  0.00  0.00    +0.000 A 
ATOM     11  C   UNL     1      -0.604  11.097  22.517  0.00  0.00    +0.000 A 
ATOM     12  C   UNL     1      -0.208  10.676  21.268  0.00  0.00    +0.000 A 
ATOM     13  O   UNL     1       0.832   9.812  21.043  0.00  0.00    +0.000 OA
ENDBRANCH   2   5
BRANCH   1  18
ATOM     14  C   UNL     1       4.330   5.056  19.046  0.00  0.00    +0.000 A 
ATOM     15  C   UNL     1       3.657   3.908  19.489  0.00  0.00    +0.000 A 
ATOM     16  C   UNL     1       2.396   3.993  20.074  0.00  0.00    +0.000 A 
ATOM     17  C   UNL     1       1.787   5.236  20.243  0.00  0.00    +0.000 A 
ATOM     18  C   UNL     1       2.439   6.401  19.841  0.00  0.00    +0.000 A 
ATOM     19  C   UNL     1       3.708   6.302  19.235  0.00  0.00    +0.000 A 
BRANCH  14  25
ATOM     20  C   UNL     1       5.179   4.530  16.000  0.00  0.00    +0.000 C 
ATOM     21  N   UNL     1       6.023   4.650  17.157  0.00  0.00    +0.000 N 
ATOM     22  C   UNL     1       7.373   4.456  17.147  0.00  0.00    +0.000 A 
ATOM     23  N   UNL     1       7.846   4.581  18.360  0.00  0.00    +0.000 NA
ATOM     24  N   UNL     1       6.784   4.837  19.187  0.00  0.00    +0.000 NA
ATOM     25  C   UNL     1       5.670   4.879  18.468  0.00  0.00    +0.000 A 
ENDBRANCH  14  25
ENDBRANCH   1  18
TORSDOF 3
ENDMDL
MODEL 8
REMARK VINA RESULT:      -7.9      2.856      4.188
REMARK  Name = 
REMARK  4 active torsions:
REMARK  status: ('A' for Active; 'I' for Inactive)
REMARK    1  A    between atoms: C_1  and  N_2
REMARK    2  A    between atoms: C_6  and  C_7
REMARK    3  A    between atoms: C_11  and  N_12
REMARK    4  A    between atoms: C_13  and  C_15
REMARK                            x       y       z     vdW  Elec       q    Type
REMARK                         _______ _______ _______ _____ _____    ______ ____
ROOT
ATOM      1  N   UNL     1       2.445   7.038  19.905  0.00  0.00    +0.000 N 
ATOM      2  C   UNL     1       2.226   5.673  20.016  0.00  0.00    +0.000 C 
ATOM      3  O   UNL     1       1.267   5.123  20.553  0.00  0.00    +0.000 OA
ATOM      4  H   UNL     1       3.281   7.291  19.385  0.00  0.00    +0.000 HD
ENDROOT
BRANCH   2   5
ATOM      5  C   UNL     1       3.321   4.836  19.344  0.00  0.00    +0.000 C 
ATOM      6  C   UNL     1       3.111   4.712  17.829  0.00  0.00    +0.000 C 
ATOM      7  C   UNL     1       4.535   4.612  17.421  0.00  0.00    +0.000 A 
ATOM      8  C   UNL     1       5.101   4.188  16.230  0.00  0.00    +0.000 A 
ATOM      9  C   UNL     1       6.495   4.253  16.107  0.00  0.00    +0.000 A 
ATOM     10  C   UNL     1       7.287   4.754  17.153  0.00  0.00    +0.000 A 
ATOM     11  C   UNL     1       6.702   5.177  18.344  0.00  0.00    +0.000 A 
ATOM     12  C   UNL     1       5.333   5.078  18.454  0.00  0.00    +0.000 A 
ATOM     13  O   UNL     1       4.626   5.430  19.574  0.00  0.00    +0.000 OA
ENDBRANCH   2   5
BRANCH   1  18
ATOM     14  C   UNL     1       0.407  10.143  20.016  0.00  0.00    +0.000 A 
ATOM     15  C   UNL     1       0.093  10.196  21.382  0.00  0.00    +0.000 A 
ATOM     16  C   UNL     1       0.571   9.234  22.268  0.00  0.00    +0.000 A 
ATOM     17  C   UNL     1       1.365   8.187  21.800  0.00  0.00    +0.000 A 
ATOM     18  C   UNL     1       1.674   8.088  20.444  0.00  0.00    +0.000 A 
ATOM     19  C   UNL     1       1.198   9.075  19.559  0.00  0.00    +0.000 A 
BRANCH  14  25
ATOM     20  C   UNL     1       1.466  13.110  19.420  0.00  0.00    +0.000 C 
ATOM     21  N   UNL     1       0.297  12.455  18.900  0.00  0.00    +0.000 N 
ATOM     22  C   UNL     1      -0.634  13.060  18.107  0.00  0.00    +0.000 A 
ATOM     23  N   UNL     1      -1.603  12.221  17.846  0.00  0.00    +0.000 NA
ATOM     24  N   UNL     1      -1.316  11.051  18.500  0.00  0.00    +0.000 NA
ATOM     25  C   UNL     1      -0.165  11.181  19.146  0.00  0.00    +0.000 A 
ENDBRANCH  14  25
ENDBRANCH   1  18
TORSDOF 3
ENDMDL
MODEL 9
REMARK VINA RESULT:      -7.9      1.056      1.213
REMARK  Name = 
REMARK  4 active torsions:
REMARK  status: ('A' for Active; 'I' for Inactive)
REMARK    1  A    between atoms: C_1  and  N_2
REMARK    2  A    between atoms: C_6  and  C_7
REMARK    3  A    between atoms: C_11  and  N_12
REMARK    4  A    between atoms: C_13  and  C_15
REMARK                            x       y       z     vdW  Elec       q    Type
REMARK                         _______ _______ _______ _____ _____    ______ ____
ROOT
ATOM      1  N   UNL     1       1.401   8.804  18.833  0.00  0.00    +0.000 N 
ATOM      2  C   UNL     1       1.640   8.101  20.005  0.00  0.00    +0.000 C 
ATOM      3  O   UNL     1       1.303   8.428  21.140  0.00  0.00    +0.000 OA
ATOM      4  H   UNL     1       1.726   8.340  17.988  0.00  0.00    +0.000 HD
ENDROOT
BRANCH   2   5
ATOM      5  C   UNL     1       2.374   6.776  19.766  0.00  0.00    +0.000 C 
ATOM      6  C   UNL     1       1.852   5.651  20.670  0.00  0.00    +0.000 C 
ATOM      7  C   UNL     1       2.103   4.507  19.759  0.00  0.00    +0.000 A 
ATOM      8  C   UNL     1       2.149   3.146  20.015  0.00  0.00    +0.000 A 
ATOM      9  C   UNL     1       2.356   2.282  18.933  0.00  0.00    +0.000 A 
ATOM     10  C   UNL     1       2.489   2.782  17.628  0.00  0.00    +0.000 A 
ATOM     11  C   UNL     1       2.440   4.154  17.387  0.00  0.00    +0.000 A 
ATOM     12  C   UNL     1       2.264   4.987  18.469  0.00  0.00    +0.000 A 
ATOM     13  O   UNL     1       2.224   6.354  18.385  0.00  0.00    +0.000 OA
ENDBRANCH   2   5
BRANCH   1  18
ATOM     14  C   UNL     1      -1.252  11.339  18.248  0.00  0.00    +0.000 A 
ATOM     15  C   UNL     1      -0.519  12.523  18.424  0.00  0.00    +0.000 A 
ATOM     16  C   UNL     1       0.845  12.490  18.702  0.00  0.00    +0.000 A 
ATOM     17  C   UNL     1       1.503  11.268  18.828  0.00  0.00    +0.000 A 
ATOM     18  C   UNL     1       0.801  10.071  18.688  0.00  0.00    +0.000 A 
ATOM     19  C   UNL     1      -0.576  10.115  18.390  0.00  0.00    +0.000 A 
BRANCH  14  25
ATOM     20  C   UNL     1      -2.878  10.847  15.530  0.00  0.00    +0.000 C 
ATOM     21  N   UNL     1      -3.381  11.253  16.813  0.00  0.00    +0.000 N 
ATOM     22  C   UNL     1      -4.679  11.597  17.056  0.00  0.00    +0.000 A 
ATOM     23  N   UNL     1      -4.810  11.972  18.302  0.00  0.00    +0.000 NA
ATOM     24  N   UNL     1      -3.571  11.897  18.882  0.00  0.00    +0.000 NA
ATOM     25  C   UNL     1      -2.693  11.464  17.987  0.00  0.00    +0.000 A 
ENDBRANCH  14  25
ENDBRANCH   1  18
TORSDOF 3
ENDMDL
