MODEL 1
REMARK VINA RESULT:      -9.2      0.000      0.000
REMARK  Name = 
REMARK  3 active torsions:
REMARK  status: ('A' for Active; 'I' for Inactive)
REMARK    1  A    between atoms: C_2  and  C_3
REMARK    2  A    between atoms: C_3  and  C_4
REMARK    3  A    between atoms: C_16  and  C_17
REMARK                            x       y       z     vdW  Elec       q    Type
REMARK                         _______ _______ _______ _____ _____    ______ ____
ROOT
ATOM      1  O   UNL     1       4.773   2.233  17.173  0.00  0.00    +0.000 OA
ATOM      2  C   UNL     1       4.199   3.272  17.523  0.00  0.00    +0.000 C 
ATOM      3  N   UNL     1       3.662   3.303  18.778  0.00  0.00    +0.000 N 
ATOM      4  C   UNL     1       3.044   4.372  19.350  0.00  0.00    +0.000 A 
ATOM      5  N   UNL     1       2.930   5.581  18.881  0.00  0.00    +0.000 NA
ATOM      6  C   UNL     1       2.178   6.353  19.739  0.00  0.00    +0.000 A 
ATOM      7  C   UNL     1       1.734   5.692  20.870  0.00  0.00    +0.000 A 
ATOM      8  S   UNL     1       2.312   4.071  20.858  0.00  0.00    +0.000 S 
ATOM      9  H   UNL     1       3.740   2.453  19.317  0.00  0.00    +0.000 HD
ENDROOT
BRANCH   6  10
ATOM     10  C   UNL     1       1.901   7.745  19.417  0.00  0.00    +0.000 A 
ATOM     11  C   UNL     1       2.217   8.240  18.141  0.00  0.00    +0.000 A 
ATOM     12  C   UNL     1       1.939   9.564  17.795  0.00  0.00    +0.000 A 
ATOM     13  C   UNL     1       1.355  10.407  18.736  0.00  0.00    +0.000 A 
ATOM     14  C   UNL     1       1.018   9.929  20.007  0.00  0.00    +0.000 A 
ATOM     15  C   UNL     1       1.281   8.595  20.340  0.00  0.00    +0.000 A 
ATOM     16  C   UNL     1       0.276  10.827  20.955  0.00  0.00    +0.000 C 
ATOM     17  C   UNL     1       0.718  12.268  20.773  0.00  0.00    +0.000 C 
ATOM     18  C   UNL     1       0.681  12.682  19.319  0.00  0.00    +0.000 C 
ATOM     19  O   UNL     1       0.412  13.828  18.970  0.00  0.00    +0.000 OA
ATOM     20  N   UNL     1       1.081  11.738  18.409  0.00  0.00    +0.000 N 
ATOM     21  H   UNL     1       1.188  12.059  17.455  0.00  0.00    +0.000 HD
ENDBRANCH   6  10
BRANCH   2  22
ATOM     22  C   UNL     1       4.078   4.457  16.570  0.00  0.00    +0.000 C 
BRANCH  22  23
ATOM     23  C   UNL     1       5.366   4.834  15.897  0.00  0.00    +0.000 A 
ATOM     24  C   UNL     1       6.392   5.606  16.410  0.00  0.00    +0.000 A 
ATOM     25  N   UNL     1       7.376   5.707  15.468  0.00  0.00    +0.000 N 
ATOM     26  C   UNL     1       7.021   5.019  14.334  0.00  0.00    +0.000 A 
ATOM     27  C   UNL     1       7.713   4.853  13.129  0.00  0.00    +0.000 A 
ATOM     28  C   UNL     1       7.099   4.092  12.131  0.00  0.00    +0.000 A 
ATOM     29  C   UNL     1       5.847   3.518  12.331  0.00  0.00    +0.000 A 
ATOM     30  C   UNL     1       5.170   3.691  13.547  0.00  0.00    +0.000 A 
ATOM     31  C   UNL     1       5.765   4.457  14.571  0.00  0.00    +0.000 A 
ATOM     32  H   UNL     1       8.241   6.214  15.581  0.00  0.00    +0.000 HD
ENDBRANCH  22  23
ENDBRANCH   2  22
TORSDOF 3
ENDMDL
MODEL 2
REMARK VINA RESULT:      -8.8      4.473      9.878
REMARK  Name = 
REMARK  3 active torsions:
REMARK  status: ('A' for Active; 'I' for Inactive)
REMARK    1  A    between atoms: C_2  and  C_3
REMARK    2  A    between atoms: C_3  and  C_4
REMARK    3  A    between atoms: C_16  and  C_17
REMARK                            x       y       z     vdW  Elec       q    Type
REMARK                         _______ _______ _______ _____ _____    ______ ____
ROOT
ATOM      1  O   UNL     1      -4.513  14.712  20.613  0.00  0.00    +0.000 OA
ATOM      2  C   UNL     1      -3.550  13.944  20.496  0.00  0.00    +0.000 C 
ATOM      3  N   UNL     1      -2.300  14.493  20.506  0.00  0.00    +0.000 N 
ATOM      4  C   UNL     1      -1.129  13.803  20.442  0.00  0.00    +0.000 A 
ATOM      5  N   UNL     1      -0.954  12.513  20.465  0.00  0.00    +0.000 NA
ATOM      6  C   UNL     1       0.383  12.213  20.317  0.00  0.00    +0.000 A 
ATOM      7  C   UNL     1       1.209  13.314  20.189  0.00  0.00    +0.000 A 
ATOM      8  S   UNL     1       0.274  14.756  20.292  0.00  0.00    +0.000 S 
ATOM      9  H   UNL     1      -2.256  15.500  20.568  0.00  0.00    +0.000 HD
ENDROOT
BRANCH   6  10
ATOM     10  C   UNL     1       0.822  10.826  20.296  0.00  0.00    +0.000 A 
ATOM     11  C   UNL     1       0.836  10.083  21.488  0.00  0.00    +0.000 A 
ATOM     12  C   UNL     1       1.228   8.742  21.493  0.00  0.00    +0.000 A 
ATOM     13  C   UNL     1       1.626   8.142  20.301  0.00  0.00    +0.000 A 
ATOM     14  C   UNL     1       1.604   8.862  19.102  0.00  0.00    +0.000 A 
ATOM     15  C   UNL     1       1.191  10.199  19.101  0.00  0.00    +0.000 A 
ATOM     16  C   UNL     1       1.918   8.152  17.816  0.00  0.00    +0.000 C 
ATOM     17  C   UNL     1       2.971   7.082  18.046  0.00  0.00    +0.000 C 
ATOM     18  C   UNL     1       2.609   6.189  19.212  0.00  0.00    +0.000 C 
ATOM     19  O   UNL     1       2.909   4.999  19.245  0.00  0.00    +0.000 OA
ATOM     20  N   UNL     1       2.032   6.805  20.293  0.00  0.00    +0.000 N 
ATOM     21  H   UNL     1       1.920   6.234  21.121  0.00  0.00    +0.000 HD
ENDBRANCH   6  10
BRANCH   2  22
ATOM     22  C   UNL     1      -3.765  12.444  20.321  0.00  0.00    +0.000 C 
BRANCH  22  23
ATOM     23  C   UNL     1      -4.252  12.051  18.957  0.00  0.00    +0.000 A 
ATOM     24  C   UNL     1      -5.459  12.376  18.365  0.00  0.00    +0.000 A 
ATOM     25  N   UNL     1      -5.502  11.813  17.122  0.00  0.00    +0.000 N 
ATOM     26  C   UNL     1      -4.346  11.113  16.877  0.00  0.00    +0.000 A 
ATOM     27  C   UNL     1      -3.960  10.383  15.747  0.00  0.00    +0.000 A 
ATOM     28  C   UNL     1      -2.709   9.761  15.777  0.00  0.00    +0.000 A 
ATOM     29  C   UNL     1      -1.878   9.869  16.888  0.00  0.00    +0.000 A 
ATOM     30  C   UNL     1      -2.279  10.608  18.010  0.00  0.00    +0.000 A 
ATOM     31  C   UNL     1      -3.539  11.244  18.009  0.00  0.00    +0.000 A 
ATOM     32  H   UNL     1      -6.270  11.893  16.473  0.00  0.00    +0.000 HD
ENDBRANCH  22  23
ENDBRANCH   2  22
TORSDOF 3
ENDMDL
MODEL 3
REMARK VINA RESULT:      -8.5      1.448      2.545
REMARK  Name = 
REMARK  3 active torsions:
REMARK  status: ('A' for Active; 'I' for Inactive)
REMARK    1  A    between atoms: C_2  and  C_3
REMARK    2  A    between atoms: C_3  and  C_4
REMARK    3  A    between atoms: C_16  and  C_17
REMARK                            x       y       z     vdW  Elec       q    Type
REMARK                         _______ _______ _______ _____ _____    ______ ____
ROOT
ATOM      1  O   UNL     1       3.844   1.142  17.779  0.00  0.00    +0.000 OA
ATOM      2  C   UNL     1       3.441   2.282  18.041  0.00  0.00    +0.000 C 
ATOM      3  N   UNL     1       3.047   2.532  19.324  0.00  0.00    +0.000 N 
ATOM      4  C   UNL     1       2.628   3.734  19.805  0.00  0.00    +0.000 A 
ATOM      5  N   UNL     1       2.614   4.884  19.195  0.00  0.00    +0.000 NA
ATOM      6  C   UNL     1       2.056   5.846  20.009  0.00  0.00    +0.000 A 
ATOM      7  C   UNL     1       1.656   5.388  21.251  0.00  0.00    +0.000 A 
ATOM      8  S   UNL     1       2.028   3.713  21.399  0.00  0.00    +0.000 S 
ATOM      9  H   UNL     1       3.077   1.749  19.960  0.00  0.00    +0.000 HD
ENDROOT
BRANCH   6  10
ATOM     10  C   UNL     1       1.919   7.215  19.534  0.00  0.00    +0.000 A 
ATOM     11  C   UNL     1       2.333   7.544  18.233  0.00  0.00    +0.000 A 
ATOM     12  C   UNL     1       2.189   8.844  17.742  0.00  0.00    +0.000 A 
ATOM     13  C   UNL     1       1.643   9.828  18.562  0.00  0.00    +0.000 A 
ATOM     14  C   UNL     1       1.211   9.515  19.855  0.00  0.00    +0.000 A 
ATOM     15  C   UNL     1       1.339   8.206  20.333  0.00  0.00    +0.000 A 
ATOM     16  C   UNL     1       0.512  10.566  20.668  0.00  0.00    +0.000 C 
ATOM     17  C   UNL     1       1.088  11.938  20.365  0.00  0.00    +0.000 C 
ATOM     18  C   UNL     1       1.150  12.199  18.877  0.00  0.00    +0.000 C 
ATOM     19  O   UNL     1       1.001  13.321  18.400  0.00  0.00    +0.000 OA
ATOM     20  N   UNL     1       1.503  11.135  18.088  0.00  0.00    +0.000 N 
ATOM     21  H   UNL     1       1.679  11.344  17.114  0.00  0.00    +0.000 HD
ENDBRANCH   6  10
BRANCH   2  22
ATOM     22  C   UNL     1       3.367   3.352  16.956  0.00  0.00    +0.000 C 
BRANCH  22  23
ATOM     23  C   UNL     1       4.697   3.939  16.584  0.00  0.00    +0.000 A 
ATOM     24  C   UNL     1       5.294   3.957  15.337  0.00  0.00    +0.000 A 
ATOM     25  N   UNL     1       6.502   4.586  15.440  0.00  0.00    +0.000 N 
ATOM     26  C   UNL     1       6.723   4.983  16.735  0.00  0.00    +0.000 A 
ATOM     27  C   UNL     1       7.816   5.653  17.296  0.00  0.00    +0.000 A 
ATOM     28  C   UNL     1       7.771   5.931  18.664  0.00  0.00    +0.000 A 
ATOM     29  C   UNL     1       6.676   5.558  19.438  0.00  0.00    +0.000 A 
ATOM     30  C   UNL     1       5.587   4.891  18.859  0.00  0.00    +0.000 A 
ATOM     31  C   UNL     1       5.608   4.595  17.479  0.00  0.00    +0.000 A 
ATOM     32  H   UNL     1       7.146   4.737  14.677  0.00  0.00    +0.000 HD
ENDBRANCH  22  23
ENDBRANCH   2  22
TORSDOF 3
ENDMDL
MODEL 4
REMARK VINA RESULT:      -8.3      2.299      8.455
REMARK  Name = 
REMARK  3 active torsions:
REMARK  status: ('A' for Active; 'I' for Inactive)
REMARK    1  A    between atoms: C_2  and  C_3
REMARK    2  A    between atoms: C_3  and  C_4
REMARK    3  A    between atoms: C_16  and  C_17
REMARK                            x       y       z     vdW  Elec       q    Type
REMARK                         _______ _______ _______ _____ _____    ______ ____
ROOT
ATOM      1  O   UNL     1      -0.186   8.519  21.732  0.00  0.00    +0.000 OA
ATOM      2  C   UNL     1       0.685   7.992  21.028  0.00  0.00    +0.000 C 
ATOM      3  N   UNL     1       0.932   6.663  21.221  0.00  0.00    +0.000 N 
ATOM      4  C   UNL     1       1.811   5.908  20.508  0.00  0.00    +0.000 A 
ATOM      5  N   UNL     1       2.501   6.252  19.458  0.00  0.00    +0.000 NA
ATOM      6  C   UNL     1       3.322   5.217  19.069  0.00  0.00    +0.000 A 
ATOM      7  C   UNL     1       3.227   4.081  19.853  0.00  0.00    +0.000 A 
ATOM      8  S   UNL     1       2.048   4.323  21.083  0.00  0.00    +0.000 S 
ATOM      9  H   UNL     1       0.409   6.215  21.959  0.00  0.00    +0.000 HD
ENDROOT
BRANCH   6  10
ATOM     10  C   UNL     1       4.203   5.374  17.922  0.00  0.00    +0.000 A 
ATOM     11  C   UNL     1       4.786   6.625  17.659  0.00  0.00    +0.000 A 
ATOM     12  C   UNL     1       5.656   6.799  16.580  0.00  0.00    +0.000 A 
ATOM     13  C   UNL     1       5.934   5.719  15.746  0.00  0.00    +0.000 A 
ATOM     14  C   UNL     1       5.375   4.462  16.001  0.00  0.00    +0.000 A 
ATOM     15  C   UNL     1       4.521   4.290  17.096  0.00  0.00    +0.000 A 
ATOM     16  C   UNL     1       5.793   3.291  15.159  0.00  0.00    +0.000 C 
ATOM     17  C   UNL     1       6.059   3.734  13.731  0.00  0.00    +0.000 C 
ATOM     18  C   UNL     1       6.980   4.932  13.684  0.00  0.00    +0.000 C 
ATOM     19  O   UNL     1       7.780   5.109  12.769  0.00  0.00    +0.000 OA
ATOM     20  N   UNL     1       6.793   5.881  14.657  0.00  0.00    +0.000 N 
ATOM     21  H   UNL     1       7.313   6.741  14.541  0.00  0.00    +0.000 HD
ENDBRANCH   6  10
BRANCH   2  22
ATOM     22  C   UNL     1       1.464   8.812  20.005  0.00  0.00    +0.000 C 
BRANCH  22  23
ATOM     23  C   UNL     1       0.849  10.146  19.694  0.00  0.00    +0.000 A 
ATOM     24  C   UNL     1       1.176  11.374  20.238  0.00  0.00    +0.000 A 
ATOM     25  N   UNL     1       0.371  12.327  19.682  0.00  0.00    +0.000 N 
ATOM     26  C   UNL     1      -0.491  11.754  18.781  0.00  0.00    +0.000 A 
ATOM     27  C   UNL     1      -1.483  12.341  17.987  0.00  0.00    +0.000 A 
ATOM     28  C   UNL     1      -2.222  11.501  17.150  0.00  0.00    +0.000 A 
ATOM     29  C   UNL     1      -1.976  10.132  17.106  0.00  0.00    +0.000 A 
ATOM     30  C   UNL     1      -0.975   9.561  17.905  0.00  0.00    +0.000 A 
ATOM     31  C   UNL     1      -0.216  10.385  18.762  0.00  0.00    +0.000 A 
ATOM     32  H   UNL     1       0.399  13.312  19.901  0.00  0.00    +0.000 HD
ENDBRANCH  22  23
ENDBRANCH   2  22
TORSDOF 3
ENDMDL
MODEL 5
REMARK VINA RESULT:      -8.2      1.990      8.709
REMARK  Name = 
REMARK  3 active torsions:
REMARK  status: ('A' for Active; 'I' for Inactive)
REMARK    1  A    between atoms: C_2  and  C_3
REMARK    2  A    between atoms: C_3  and  C_4
REMARK    3  A    between atoms: C_16  and  C_17
REMARK                            x       y       z     vdW  Elec       q    Type
REMARK                         _______ _______ _______ _____ _____    ______ ____
ROOT
ATOM      1  O   UNL     1      -0.046   8.343  21.633  0.00  0.00    +0.000 OA
ATOM      2  C   UNL     1       0.860   7.816  20.974  0.00  0.00    +0.000 C 
ATOM      3  N   UNL     1       1.106   6.491  21.187  0.00  0.00    +0.000 N 
ATOM      4  C   UNL     1       2.022   5.737  20.521  0.00  0.00    +0.000 A 
ATOM      5  N   UNL     1       2.757   6.078  19.502  0.00  0.00    +0.000 NA
ATOM      6  C   UNL     1       3.601   5.045  19.158  0.00  0.00    +0.000 A 
ATOM      7  C   UNL     1       3.477   3.914  19.944  0.00  0.00    +0.000 A 
ATOM      8  S   UNL     1       2.241   4.156  21.117  0.00  0.00    +0.000 S 
ATOM      9  H   UNL     1       0.552   6.044  21.903  0.00  0.00    +0.000 HD
ENDROOT
BRANCH   6  10
ATOM     10  C   UNL     1       4.534   5.201  18.052  0.00  0.00    +0.000 A 
ATOM     11  C   UNL     1       5.430   6.282  18.044  0.00  0.00    +0.000 A 
ATOM     12  C   UNL     1       6.353   6.442  17.009  0.00  0.00    +0.000 A 
ATOM     13  C   UNL     1       6.372   5.524  15.962  0.00  0.00    +0.000 A 
ATOM     14  C   UNL     1       5.497   4.431  15.960  0.00  0.00    +0.000 A 
ATOM     15  C   UNL     1       4.589   4.266  17.012  0.00  0.00    +0.000 A 
ATOM     16  C   UNL     1       5.627   3.391  14.884  0.00  0.00    +0.000 C 
ATOM     17  C   UNL     1       6.049   4.035  13.575  0.00  0.00    +0.000 C 
ATOM     18  C   UNL     1       7.251   4.934  13.760  0.00  0.00    +0.000 C 
ATOM     19  O   UNL     1       8.102   5.081  12.887  0.00  0.00    +0.000 OA
ATOM     20  N   UNL     1       7.282   5.676  14.913  0.00  0.00    +0.000 N 
ATOM     21  H   UNL     1       8.011   6.376  14.970  0.00  0.00    +0.000 HD
ENDBRANCH   6  10
BRANCH   2  22
ATOM     22  C   UNL     1       1.681   8.635  19.982  0.00  0.00    +0.000 C 
BRANCH  22  23
ATOM     23  C   UNL     1       0.895   9.695  19.267  0.00  0.00    +0.000 A 
ATOM     24  C   UNL     1       0.244   9.589  18.052  0.00  0.00    +0.000 A 
ATOM     25  N   UNL     1      -0.344  10.789  17.765  0.00  0.00    +0.000 N 
ATOM     26  C   UNL     1      -0.090  11.694  18.765  0.00  0.00    +0.000 A 
ATOM     27  C   UNL     1      -0.486  13.030  18.890  0.00  0.00    +0.000 A 
ATOM     28  C   UNL     1      -0.074  13.723  20.031  0.00  0.00    +0.000 A 
ATOM     29  C   UNL     1       0.699  13.102  21.009  0.00  0.00    +0.000 A 
ATOM     30  C   UNL     1       1.083  11.761  20.869  0.00  0.00    +0.000 A 
ATOM     31  C   UNL     1       0.684  11.039  19.725  0.00  0.00    +0.000 A 
ATOM     32  H   UNL     1      -0.885  10.988  16.936  0.00  0.00    +0.000 HD
ENDBRANCH  22  23
ENDBRANCH   2  22
TORSDOF 3
ENDMDL
MODEL 6
REMARK VINA RESULT:      -8.2      6.522      9.619
REMARK  Name = 
REMARK  3 active torsions:
REMARK  status: ('A' for Active; 'I' for Inactive)
REMARK    1  A    between atoms: C_2  and  C_3
REMARK    2  A    between atoms: C_3  and  C_4
REMARK    3  A    between atoms: C_16  and  C_17
REMARK                            x       y       z     vdW  Elec       q    Type
REMARK                         _______ _______ _______ _____ _____    ______ ____
ROOT
ATOM      1  O   UNL     1       1.366  10.006  17.706  0.00  0.00    +0.000 OA
ATOM      2  C   UNL     1       0.724  10.412  18.683  0.00  0.00    +0.000 C 
ATOM      3  N   UNL     1       0.921   9.776  19.875  0.00  0.00    +0.000 N 
ATOM      4  C   UNL     1       0.346  10.115  21.060  0.00  0.00    +0.000 A 
ATOM      5  N   UNL     1      -0.405  11.146  21.324  0.00  0.00    +0.000 NA
ATOM      6  C   UNL     1      -0.837  11.096  22.631  0.00  0.00    +0.000 A 
ATOM      7  C   UNL     1      -0.387  10.001  23.345  0.00  0.00    +0.000 A 
ATOM      8  S   UNL     1       0.633   9.037  22.347  0.00  0.00    +0.000 S 
ATOM      9  H   UNL     1       1.553   8.988  19.861  0.00  0.00    +0.000 HD
ENDROOT
BRANCH   6  10
ATOM     10  C   UNL     1      -1.707  12.139  23.153  0.00  0.00    +0.000 A 
ATOM     11  C   UNL     1      -3.031  11.830  23.504  0.00  0.00    +0.000 A 
ATOM     12  C   UNL     1      -3.880  12.805  24.032  0.00  0.00    +0.000 A 
ATOM     13  C   UNL     1      -3.409  14.105  24.196  0.00  0.00    +0.000 A 
ATOM     14  C   UNL     1      -2.088  14.428  23.867  0.00  0.00    +0.000 A 
ATOM     15  C   UNL     1      -1.237  13.441  23.358  0.00  0.00    +0.000 A 
ATOM     16  C   UNL     1      -1.573  15.806  24.173  0.00  0.00    +0.000 C 
ATOM     17  C   UNL     1      -2.677  16.834  24.000  0.00  0.00    +0.000 C 
ATOM     18  C   UNL     1      -3.934  16.429  24.738  0.00  0.00    +0.000 C 
ATOM     19  O   UNL     1      -4.693  17.251  25.242  0.00  0.00    +0.000 OA
ATOM     20  N   UNL     1      -4.250  15.094  24.712  0.00  0.00    +0.000 N 
ATOM     21  H   UNL     1      -5.158  14.847  25.085  0.00  0.00    +0.000 HD
ENDBRANCH   6  10
BRANCH   2  22
ATOM     22  C   UNL     1      -0.267  11.563  18.543  0.00  0.00    +0.000 C 
BRANCH  22  23
ATOM     23  C   UNL     1      -1.640  11.138  18.111  0.00  0.00    +0.000 A 
ATOM     24  C   UNL     1      -1.973  10.266  17.091  0.00  0.00    +0.000 A 
ATOM     25  N   UNL     1      -3.334  10.161  17.032  0.00  0.00    +0.000 N 
ATOM     26  C   UNL     1      -3.914  10.953  17.993  0.00  0.00    +0.000 A 
ATOM     27  C   UNL     1      -5.265  11.156  18.294  0.00  0.00    +0.000 A 
ATOM     28  C   UNL     1      -5.569  12.033  19.338  0.00  0.00    +0.000 A 
ATOM     29  C   UNL     1      -4.563  12.675  20.054  0.00  0.00    +0.000 A 
ATOM     30  C   UNL     1      -3.214  12.456  19.742  0.00  0.00    +0.000 A 
ATOM     31  C   UNL     1      -2.878  11.578  18.689  0.00  0.00    +0.000 A 
ATOM     32  H   UNL     1      -3.845   9.588  16.378  0.00  0.00    +0.000 HD
ENDBRANCH  22  23
ENDBRANCH   2  22
TORSDOF 3
ENDMDL
MODEL 7
REMARK VINA RESULT:      -8.0      4.628      9.664
REMARK  Name = 
REMARK  3 active torsions:
REMARK  status: ('A' for Active; 'I' for Inactive)
REMARK    1  A    between atoms: C_2  and  C_3
REMARK    2  A    between atoms: C_3  and  C_4
REMARK    3  A    between atoms: C_16  and  C_17
REMARK                            x       y       z     vdW  Elec       q    Type
REMARK                         _______ _______ _______ _____ _____    ______ ____
ROOT
ATOM      1  O   UNL     1      -4.403  14.112  21.190  0.00  0.00    +0.000 OA
ATOM      2  C   UNL     1      -3.429  13.446  20.818  0.00  0.00    +0.000 C 
ATOM      3  N   UNL     1      -2.205  14.050  20.845  0.00  0.00    +0.000 N 
ATOM      4  C   UNL     1      -1.021  13.460  20.524  0.00  0.00    +0.000 A 
ATOM      5  N   UNL     1      -0.798  12.211  20.235  0.00  0.00    +0.000 NA
ATOM      6  C   UNL     1       0.528  12.030  19.908  0.00  0.00    +0.000 A 
ATOM      7  C   UNL     1       1.297  13.177  19.964  0.00  0.00    +0.000 A 
ATOM      8  S   UNL     1       0.325  14.503  20.475  0.00  0.00    +0.000 S 
ATOM      9  H   UNL     1      -2.192  15.018  21.132  0.00  0.00    +0.000 HD
ENDROOT
BRANCH   6  10
ATOM     10  C   UNL     1       1.014  10.710  19.532  0.00  0.00    +0.000 A 
ATOM     11  C   UNL     1       1.481  10.487  18.227  0.00  0.00    +0.000 A 
ATOM     12  C   UNL     1       1.978   9.238  17.846  0.00  0.00    +0.000 A 
ATOM     13  C   UNL     1       1.993   8.198  18.771  0.00  0.00    +0.000 A 
ATOM     14  C   UNL     1       1.546   8.405  20.081  0.00  0.00    +0.000 A 
ATOM     15  C   UNL     1       1.069   9.665  20.461  0.00  0.00    +0.000 A 
ATOM     16  C   UNL     1       1.692   7.301  21.088  0.00  0.00    +0.000 C 
ATOM     17  C   UNL     1       1.504   5.950  20.422  0.00  0.00    +0.000 C 
ATOM     18  C   UNL     1       2.360   5.818  19.182  0.00  0.00    +0.000 C 
ATOM     19  O   UNL     1       2.840   4.745  18.826  0.00  0.00    +0.000 OA
ATOM     20  N   UNL     1       2.475   6.940  18.402  0.00  0.00    +0.000 N 
ATOM     21  H   UNL     1       2.930   6.812  17.507  0.00  0.00    +0.000 HD
ENDBRANCH   6  10
BRANCH   2  22
ATOM     22  C   UNL     1      -3.605  12.014  20.323  0.00  0.00    +0.000 C 
BRANCH  22  23
ATOM     23  C   UNL     1      -4.081  11.911  18.904  0.00  0.00    +0.000 A 
ATOM     24  C   UNL     1      -5.195  12.507  18.341  0.00  0.00    +0.000 A 
ATOM     25  N   UNL     1      -5.263  12.149  17.024  0.00  0.00    +0.000 N 
ATOM     26  C   UNL     1      -4.217  11.321  16.701  0.00  0.00    +0.000 A 
ATOM     27  C   UNL     1      -3.893  10.716  15.482  0.00  0.00    +0.000 A 
ATOM     28  C   UNL     1      -2.754   9.908  15.444  0.00  0.00    +0.000 A 
ATOM     29  C   UNL     1      -1.970   9.717  16.578  0.00  0.00    +0.000 A 
ATOM     30  C   UNL     1      -2.307  10.334  17.791  0.00  0.00    +0.000 A 
ATOM     31  C   UNL     1      -3.454  11.153  17.859  0.00  0.00    +0.000 A 
ATOM     32  H   UNL     1      -5.979  12.446  16.378  0.00  0.00    +0.000 HD
ENDBRANCH  22  23
ENDBRANCH   2  22
TORSDOF 3
ENDMDL
MODEL 8
REMARK VINA RESULT:      -7.9      0.930      1.665
REMARK  Name = 
REMARK  3 active torsions:
REMARK  status: ('A' for Active; 'I' for Inactive)
REMARK    1  A    between atoms: C_2  and  C_3
REMARK    2  A    between atoms: C_3  and  C_4
REMARK    3  A    between atoms: C_16  and  C_17
REMARK                            x       y       z     vdW  Elec       q    Type
REMARK                         _______ _______ _______ _____ _____    ______ ____
ROOT
ATOM      1  O   UNL     1       5.065   1.923  16.751  0.00  0.00    +0.000 OA
ATOM      2  C   UNL     1       4.432   2.817  17.325  0.00  0.00    +0.000 C 
ATOM      3  N   UNL     1       3.912   2.531  18.555  0.00  0.00    +0.000 N 
ATOM      4  C   UNL     1       3.237   3.403  19.353  0.00  0.00    +0.000 A 
ATOM      5  N   UNL     1       3.042   4.677  19.169  0.00  0.00    +0.000 NA
ATOM      6  C   UNL     1       2.256   5.187  20.178  0.00  0.00    +0.000 A 
ATOM      7  C   UNL     1       1.869   4.262  21.131  0.00  0.00    +0.000 A 
ATOM      8  S   UNL     1       2.546   2.725  20.754  0.00  0.00    +0.000 S 
ATOM      9  H   UNL     1       4.050   1.589  18.889  0.00  0.00    +0.000 HD
ENDROOT
BRANCH   6  10
ATOM     10  C   UNL     1       1.889   6.596  20.177  0.00  0.00    +0.000 A 
ATOM     11  C   UNL     1       1.320   7.167  21.327  0.00  0.00    +0.000 A 
ATOM     12  C   UNL     1       0.982   8.522  21.363  0.00  0.00    +0.000 A 
ATOM     13  C   UNL     1       1.199   9.310  20.237  0.00  0.00    +0.000 A 
ATOM     14  C   UNL     1       1.779   8.763  19.087  0.00  0.00    +0.000 A 
ATOM     15  C   UNL     1       2.134   7.409  19.065  0.00  0.00    +0.000 A 
ATOM     16  C   UNL     1       2.116   9.665  17.935  0.00  0.00    +0.000 C 
ATOM     17  C   UNL     1       1.088  10.777  17.817  0.00  0.00    +0.000 C 
ATOM     18  C   UNL     1       0.862  11.469  19.143  0.00  0.00    +0.000 C 
ATOM     19  O   UNL     1       0.592  12.664  19.223  0.00  0.00    +0.000 OA
ATOM     20  N   UNL     1       0.856  10.664  20.254  0.00  0.00    +0.000 N 
ATOM     21  H   UNL     1       0.568  11.106  21.118  0.00  0.00    +0.000 HD
ENDBRANCH   6  10
BRANCH   2  22
ATOM     22  C   UNL     1       4.225   4.176  16.664  0.00  0.00    +0.000 C 
BRANCH  22  23
ATOM     23  C   UNL     1       5.444   4.710  15.969  0.00  0.00    +0.000 A 
ATOM     24  C   UNL     1       6.390   5.582  16.474  0.00  0.00    +0.000 A 
ATOM     25  N   UNL     1       7.331   5.812  15.511  0.00  0.00    +0.000 N 
ATOM     26  C   UNL     1       7.025   5.112  14.370  0.00  0.00    +0.000 A 
ATOM     27  C   UNL     1       7.698   5.050  13.145  0.00  0.00    +0.000 A 
ATOM     28  C   UNL     1       7.147   4.246  12.145  0.00  0.00    +0.000 A 
ATOM     29  C   UNL     1       5.974   3.530  12.362  0.00  0.00    +0.000 A 
ATOM     30  C   UNL     1       5.314   3.600  13.597  0.00  0.00    +0.000 A 
ATOM     31  C   UNL     1       5.847   4.408  14.625  0.00  0.00    +0.000 A 
ATOM     32  H   UNL     1       8.136   6.412  15.615  0.00  0.00    +0.000 HD
ENDBRANCH  22  23
ENDBRANCH   2  22
TORSDOF 3
ENDMDL
MODEL 9
REMARK VINA RESULT:      -7.9      2.828      9.211
REMARK  Name = 
REMARK  3 active torsions:
REMARK  status: ('A' for Active; 'I' for Inactive)
REMARK    1  A    between atoms: C_2  and  C_3
REMARK    2  A    between atoms: C_3  and  C_4
REMARK    3  A    between atoms: C_16  and  C_17
REMARK                            x       y       z     vdW  Elec       q    Type
REMARK                         _______ _______ _______ _____ _____    ______ ____
ROOT
ATOM      1  O   UNL     1      -2.044  13.329  20.213  0.00  0.00    +0.000 OA
ATOM      2  C   UNL     1      -1.260  12.380  20.080  0.00  0.00    +0.000 C 
ATOM      3  N   UNL     1      -1.115  11.530  21.137  0.00  0.00    +0.000 N 
ATOM      4  C   UNL     1      -0.342  10.410  21.154  0.00  0.00    +0.000 A 
ATOM      5  N   UNL     1       0.315   9.871  20.168  0.00  0.00    +0.000 NA
ATOM      6  C   UNL     1       1.024   8.776  20.612  0.00  0.00    +0.000 A 
ATOM      7  C   UNL     1       0.877   8.503  21.959  0.00  0.00    +0.000 A 
ATOM      8  S   UNL     1      -0.209   9.637  22.666  0.00  0.00    +0.000 S 
ATOM      9  H   UNL     1      -1.632  11.763  21.972  0.00  0.00    +0.000 HD
ENDROOT
BRANCH   6  10
ATOM     10  C   UNL     1       1.851   8.017  19.686  0.00  0.00    +0.000 A 
ATOM     11  C   UNL     1       2.203   8.577  18.447  0.00  0.00    +0.000 A 
ATOM     12  C   UNL     1       3.017   7.882  17.550  0.00  0.00    +0.000 A 
ATOM     13  C   UNL     1       3.470   6.609  17.884  0.00  0.00    +0.000 A 
ATOM     14  C   UNL     1       3.142   6.040  19.120  0.00  0.00    +0.000 A 
ATOM     15  C   UNL     1       2.344   6.751  20.022  0.00  0.00    +0.000 A 
ATOM     16  C   UNL     1       3.749   4.720  19.502  0.00  0.00    +0.000 C 
ATOM     17  C   UNL     1       3.917   3.841  18.276  0.00  0.00    +0.000 C 
ATOM     18  C   UNL     1       4.614   4.578  17.155  0.00  0.00    +0.000 C 
ATOM     19  O   UNL     1       5.360   4.011  16.361  0.00  0.00    +0.000 OA
ATOM     20  N   UNL     1       4.275   5.897  16.992  0.00  0.00    +0.000 N 
ATOM     21  H   UNL     1       4.635   6.347  16.161  0.00  0.00    +0.000 HD
ENDBRANCH   6  10
BRANCH   2  22
ATOM     22  C   UNL     1      -0.473  12.194  18.787  0.00  0.00    +0.000 C 
BRANCH  22  23
ATOM     23  C   UNL     1       0.790  13.003  18.718  0.00  0.00    +0.000 A 
ATOM     24  C   UNL     1       2.092  12.537  18.703  0.00  0.00    +0.000 A 
ATOM     25  N   UNL     1       2.938  13.608  18.639  0.00  0.00    +0.000 N 
ATOM     26  C   UNL     1       2.222  14.779  18.617  0.00  0.00    +0.000 A 
ATOM     27  C   UNL     1       2.668  16.104  18.558  0.00  0.00    +0.000 A 
ATOM     28  C   UNL     1       1.701  17.112  18.551  0.00  0.00    +0.000 A 
ATOM     29  C   UNL     1       0.344  16.807  18.597  0.00  0.00    +0.000 A 
ATOM     30  C   UNL     1      -0.086  15.473  18.652  0.00  0.00    +0.000 A 
ATOM     31  C   UNL     1       0.870  14.435  18.663  0.00  0.00    +0.000 A 
ATOM     32  H   UNL     1       3.945  13.552  18.614  0.00  0.00    +0.000 HD
ENDBRANCH  22  23
ENDBRANCH   2  22
TORSDOF 3
ENDMDL
