MODEL 1
REMARK VINA RESULT:      -8.8      0.000      0.000
REMARK  Name = 
REMARK  4 active torsions:
REMARK  status: ('A' for Active; 'I' for Inactive)
REMARK    1  A    between atoms: C_2  and  C_22
REMARK    2  A    between atoms: N_3  and  C_4
REMARK    3  A    between atoms: C_7  and  O_8
REMARK    4  A    between atoms: O_8  and  C_9
REMARK                            x       y       z     vdW  Elec       q    Type
REMARK                         _______ _______ _______ _____ _____    ______ ____
ROOT
ATOM      1  C   UNL     1       1.919   8.266  19.296  0.00  0.00    +0.000 A 
ATOM      2  C   UNL     1       1.617   8.680  18.000  0.00  0.00    +0.000 A 
ATOM      3  C   UNL     1       0.695   9.684  17.759  0.00  0.00    +0.000 A 
ATOM      4  C   UNL     1      -0.041  10.232  18.807  0.00  0.00    +0.000 A 
ATOM      5  C   UNL     1       0.218   9.835  20.136  0.00  0.00    +0.000 A 
ATOM      6  C   UNL     1      -0.452  10.427  21.224  0.00  0.00    +0.000 A 
ATOM      7  C   UNL     1      -0.163  10.017  22.512  0.00  0.00    +0.000 A 
ATOM      8  N   UNL     1       0.733   9.059  22.799  0.00  0.00    +0.000 NA
ATOM      9  C   UNL     1       1.377   8.498  21.745  0.00  0.00    +0.000 A 
ATOM     10  C   UNL     1       1.200   8.833  20.393  0.00  0.00    +0.000 A 
ENDROOT
BRANCH   1  13
ATOM     11  O   UNL     1       1.864   5.323  19.082  0.00  0.00    +0.000 OA
ATOM     12  C   UNL     1       2.870   5.959  19.370  0.00  0.00    +0.000 C 
ATOM     13  N   UNL     1       2.979   7.335  19.508  0.00  0.00    +0.000 N 
ATOM     14  H   UNL     1       3.911   7.699  19.627  0.00  0.00    +0.000 HD
BRANCH  12  15
ATOM     15  C   UNL     1       4.157   5.230  19.547  0.00  0.00    +0.000 C 
ATOM     16  C   UNL     1       4.292   3.793  19.085  0.00  0.00    +0.000 C 
ATOM     17  C   UNL     1       5.035   4.880  18.348  0.00  0.00    +0.000 C 
ATOM     18  C   UNL     1       6.533   4.998  18.522  0.00  0.00    +0.000 C 
ATOM     19  C   UNL     1       7.020   6.359  18.007  0.00  0.00    +0.000 C 
ATOM     20  N   UNL     1       6.607   6.625  16.622  0.00  0.00    +0.000 NA
ATOM     21  C   UNL     1       5.142   6.558  16.496  0.00  0.00    +0.000 C 
ATOM     22  C   UNL     1       4.604   5.189  16.923  0.00  0.00    +0.000 C 
ATOM     23  H   UNL     1       7.013   5.912  16.017  0.00  0.00    +0.000 HD
ENDBRANCH  12  15
ENDBRANCH   1  13
BRANCH   4  24
ATOM     24  O   UNL     1      -1.016  11.187  18.586  0.00  0.00    +0.000 OA
BRANCH  24  25
ATOM     25  C   UNL     1      -2.030  10.933  17.688  0.00  0.00    +0.000 A 
ATOM     26  C   UNL     1      -1.965   9.928  16.708  0.00  0.00    +0.000 A 
ATOM     27  C   UNL     1      -2.990   9.794  15.769  0.00  0.00    +0.000 A 
ATOM     28  C   UNL     1      -4.118  10.607  15.855  0.00  0.00    +0.000 A 
ATOM     29  C   UNL     1      -4.211  11.543  16.877  0.00  0.00    +0.000 A 
ATOM     30  F   UNL     1      -5.309  12.301  16.976  0.00  0.00    +0.000 F 
ATOM     31  C   UNL     1      -3.176  11.718  17.796  0.00  0.00    +0.000 A 
ENDBRANCH  24  25
ENDBRANCH   4  24
TORSDOF 4
ENDMDL
MODEL 2
REMARK VINA RESULT:      -8.7      1.562      2.021
REMARK  Name = 
REMARK  4 active torsions:
REMARK  status: ('A' for Active; 'I' for Inactive)
REMARK    1  A    between atoms: C_2  and  C_22
REMARK    2  A    between atoms: N_3  and  C_4
REMARK    3  A    between atoms: C_7  and  O_8
REMARK    4  A    between atoms: O_8  and  C_9
REMARK                            x       y       z     vdW  Elec       q    Type
REMARK                         _______ _______ _______ _____ _____    ______ ____
ROOT
ATOM      1  C   UNL     1       1.535   8.217  19.804  0.00  0.00    +0.000 A 
ATOM      2  C   UNL     1       1.443   8.545  18.452  0.00  0.00    +0.000 A 
ATOM      3  C   UNL     1       0.827   9.712  18.033  0.00  0.00    +0.000 A 
ATOM      4  C   UNL     1       0.182  10.538  18.950  0.00  0.00    +0.000 A 
ATOM      5  C   UNL     1       0.234  10.240  20.328  0.00  0.00    +0.000 A 
ATOM      6  C   UNL     1      -0.341  11.097  21.288  0.00  0.00    +0.000 A 
ATOM      7  C   UNL     1      -0.260  10.774  22.630  0.00  0.00    +0.000 A 
ATOM      8  N   UNL     1       0.338   9.663  23.088  0.00  0.00    +0.000 NA
ATOM      9  C   UNL     1       0.894   8.847  22.157  0.00  0.00    +0.000 A 
ATOM     10  C   UNL     1       0.906   9.063  20.770  0.00  0.00    +0.000 A 
ENDROOT
BRANCH   1  13
ATOM     11  O   UNL     1       0.602   5.511  20.525  0.00  0.00    +0.000 OA
ATOM     12  C   UNL     1       1.783   5.836  20.510  0.00  0.00    +0.000 C 
ATOM     13  N   UNL     1       2.304   7.083  20.201  0.00  0.00    +0.000 N 
ATOM     14  H   UNL     1       3.306   7.139  20.118  0.00  0.00    +0.000 HD
BRANCH  12  15
ATOM     15  C   UNL     1       2.816   4.801  20.791  0.00  0.00    +0.000 C 
ATOM     16  C   UNL     1       2.409   3.370  21.076  0.00  0.00    +0.000 C 
ATOM     17  C   UNL     1       3.117   3.694  19.783  0.00  0.00    +0.000 C 
ATOM     18  C   UNL     1       4.563   3.282  19.611  0.00  0.00    +0.000 C 
ATOM     19  C   UNL     1       5.186   4.022  18.420  0.00  0.00    +0.000 C 
ATOM     20  N   UNL     1       4.416   3.854  17.179  0.00  0.00    +0.000 NA
ATOM     21  C   UNL     1       3.031   4.315  17.362  0.00  0.00    +0.000 C 
ATOM     22  C   UNL     1       2.330   3.552  18.491  0.00  0.00    +0.000 C 
ATOM     23  H   UNL     1       4.395   2.863  16.940  0.00  0.00    +0.000 HD
ENDBRANCH  12  15
ENDBRANCH   1  13
BRANCH   4  24
ATOM     24  O   UNL     1      -0.499  11.673  18.550  0.00  0.00    +0.000 OA
BRANCH  24  25
ATOM     25  C   UNL     1      -1.807  11.572  18.128  0.00  0.00    +0.000 A 
ATOM     26  C   UNL     1      -2.911  11.866  18.946  0.00  0.00    +0.000 A 
ATOM     27  C   UNL     1      -4.209  11.645  18.481  0.00  0.00    +0.000 A 
ATOM     28  C   UNL     1      -4.411  11.210  17.173  0.00  0.00    +0.000 A 
ATOM     29  C   UNL     1      -3.316  11.002  16.344  0.00  0.00    +0.000 A 
ATOM     30  F   UNL     1      -3.515  10.614  15.079  0.00  0.00    +0.000 F 
ATOM     31  C   UNL     1      -2.013  11.175  16.808  0.00  0.00    +0.000 A 
ENDBRANCH  24  25
ENDBRANCH   4  24
TORSDOF 4
ENDMDL
MODEL 3
REMARK VINA RESULT:      -8.6      0.865      1.242
REMARK  Name = 
REMARK  4 active torsions:
REMARK  status: ('A' for Active; 'I' for Inactive)
REMARK    1  A    between atoms: C_2  and  C_22
REMARK    2  A    between atoms: N_3  and  C_4
REMARK    3  A    between atoms: C_7  and  O_8
REMARK    4  A    between atoms: O_8  and  C_9
REMARK                            x       y       z     vdW  Elec       q    Type
REMARK                         _______ _______ _______ _____ _____    ______ ____
ROOT
ATOM      1  C   UNL     1       1.965   8.295  19.236  0.00  0.00    +0.000 A 
ATOM      2  C   UNL     1       1.791   8.816  17.955  0.00  0.00    +0.000 A 
ATOM      3  C   UNL     1       0.991   9.924  17.728  0.00  0.00    +0.000 A 
ATOM      4  C   UNL     1       0.247  10.480  18.765  0.00  0.00    +0.000 A 
ATOM      5  C   UNL     1       0.377   9.978  20.077  0.00  0.00    +0.000 A 
ATOM      6  C   UNL     1      -0.301  10.570  21.161  0.00  0.00    +0.000 A 
ATOM      7  C   UNL     1      -0.139  10.054  22.434  0.00  0.00    +0.000 A 
ATOM      8  N   UNL     1       0.635   8.992  22.708  0.00  0.00    +0.000 NA
ATOM      9  C   UNL     1       1.289   8.433  21.658  0.00  0.00    +0.000 A 
ATOM     10  C   UNL     1       1.235   8.867  20.324  0.00  0.00    +0.000 A 
ENDROOT
BRANCH   1  13
ATOM     11  O   UNL     1       1.841   5.486  18.339  0.00  0.00    +0.000 OA
ATOM     12  C   UNL     1       2.780   5.951  18.975  0.00  0.00    +0.000 C 
ATOM     13  N   UNL     1       2.910   7.248  19.447  0.00  0.00    +0.000 N 
ATOM     14  H   UNL     1       3.804   7.491  19.842  0.00  0.00    +0.000 HD
BRANCH  12  15
ATOM     15  C   UNL     1       3.962   5.086  19.247  0.00  0.00    +0.000 C 
ATOM     16  C   UNL     1       4.043   3.693  18.658  0.00  0.00    +0.000 C 
ATOM     17  C   UNL     1       4.974   4.767  18.149  0.00  0.00    +0.000 C 
ATOM     18  C   UNL     1       6.435   4.722  18.538  0.00  0.00    +0.000 C 
ATOM     19  C   UNL     1       7.103   6.071  18.243  0.00  0.00    +0.000 C 
ATOM     20  N   UNL     1       6.920   6.505  16.851  0.00  0.00    +0.000 NA
ATOM     21  C   UNL     1       5.489   6.593  16.519  0.00  0.00    +0.000 C 
ATOM     22  C   UNL     1       4.783   5.248  16.720  0.00  0.00    +0.000 C 
ATOM     23  H   UNL     1       7.350   5.815  16.235  0.00  0.00    +0.000 HD
ENDBRANCH  12  15
ENDBRANCH   1  13
BRANCH   4  24
ATOM     24  O   UNL     1      -0.611  11.544  18.551  0.00  0.00    +0.000 OA
BRANCH  24  25
ATOM     25  C   UNL     1      -1.895  11.307  18.111  0.00  0.00    +0.000 A 
ATOM     26  C   UNL     1      -3.040  11.817  18.745  0.00  0.00    +0.000 A 
ATOM     27  C   UNL     1      -4.312  11.453  18.299  0.00  0.00    +0.000 A 
ATOM     28  C   UNL     1      -4.446  10.647  17.171  0.00  0.00    +0.000 A 
ATOM     29  C   UNL     1      -3.309  10.215  16.500  0.00  0.00    +0.000 A 
ATOM     30  F   UNL     1      -3.441   9.467  15.399  0.00  0.00    +0.000 F 
ATOM     31  C   UNL     1      -2.032  10.534  16.959  0.00  0.00    +0.000 A 
ENDBRANCH  24  25
ENDBRANCH   4  24
TORSDOF 4
ENDMDL
MODEL 4
REMARK VINA RESULT:      -8.6      1.369      1.673
REMARK  Name = 
REMARK  4 active torsions:
REMARK  status: ('A' for Active; 'I' for Inactive)
REMARK    1  A    between atoms: C_2  and  C_22
REMARK    2  A    between atoms: N_3  and  C_4
REMARK    3  A    between atoms: C_7  and  O_8
REMARK    4  A    between atoms: O_8  and  C_9
REMARK                            x       y       z     vdW  Elec       q    Type
REMARK                         _______ _______ _______ _____ _____    ______ ____
ROOT
ATOM      1  C   UNL     1       1.584   8.133  19.755  0.00  0.00    +0.000 A 
ATOM      2  C   UNL     1       1.461   8.451  18.403  0.00  0.00    +0.000 A 
ATOM      3  C   UNL     1       0.825   9.610  17.989  0.00  0.00    +0.000 A 
ATOM      4  C   UNL     1       0.191  10.435  18.914  0.00  0.00    +0.000 A 
ATOM      5  C   UNL     1       0.275  10.148  20.292  0.00  0.00    +0.000 A 
ATOM      6  C   UNL     1      -0.286  11.006  21.258  0.00  0.00    +0.000 A 
ATOM      7  C   UNL     1      -0.174  10.694  22.601  0.00  0.00    +0.000 A 
ATOM      8  N   UNL     1       0.445   9.591  23.054  0.00  0.00    +0.000 NA
ATOM      9  C   UNL     1       0.987   8.774  22.116  0.00  0.00    +0.000 A 
ATOM     10  C   UNL     1       0.968   8.980  20.728  0.00  0.00    +0.000 A 
ENDROOT
BRANCH   1  13
ATOM     11  O   UNL     1       0.692   5.424  20.512  0.00  0.00    +0.000 OA
ATOM     12  C   UNL     1       1.869   5.760  20.471  0.00  0.00    +0.000 C 
ATOM     13  N   UNL     1       2.372   7.010  20.143  0.00  0.00    +0.000 N 
ATOM     14  H   UNL     1       3.372   7.075  20.038  0.00  0.00    +0.000 HD
BRANCH  12  15
ATOM     15  C   UNL     1       2.919   4.736  20.737  0.00  0.00    +0.000 C 
ATOM     16  C   UNL     1       2.543   3.276  20.887  0.00  0.00    +0.000 C 
ATOM     17  C   UNL     1       3.317   3.720  19.669  0.00  0.00    +0.000 C 
ATOM     18  C   UNL     1       4.783   3.364  19.556  0.00  0.00    +0.000 C 
ATOM     19  C   UNL     1       5.451   4.212  18.465  0.00  0.00    +0.000 C 
ATOM     20  N   UNL     1       4.762   4.118  17.170  0.00  0.00    +0.000 NA
ATOM     21  C   UNL     1       3.354   4.523  17.300  0.00  0.00    +0.000 C 
ATOM     22  C   UNL     1       2.613   3.655  18.323  0.00  0.00    +0.000 C 
ATOM     23  H   UNL     1       4.789   3.148  16.856  0.00  0.00    +0.000 HD
ENDBRANCH  12  15
ENDBRANCH   1  13
BRANCH   4  24
ATOM     24  O   UNL     1      -0.509  11.562  18.520  0.00  0.00    +0.000 OA
BRANCH  24  25
ATOM     25  C   UNL     1      -1.800  11.436  18.056  0.00  0.00    +0.000 A 
ATOM     26  C   UNL     1      -2.122  10.927  16.787  0.00  0.00    +0.000 A 
ATOM     27  C   UNL     1      -3.447  10.921  16.347  0.00  0.00    +0.000 A 
ATOM     28  C   UNL     1      -4.462  11.345  17.202  0.00  0.00    +0.000 A 
ATOM     29  C   UNL     1      -4.143  11.768  18.486  0.00  0.00    +0.000 A 
ATOM     30  F   UNL     1      -5.122  12.145  19.316  0.00  0.00    +0.000 F 
ATOM     31  C   UNL     1      -2.820  11.821  18.924  0.00  0.00    +0.000 A 
ENDBRANCH  24  25
ENDBRANCH   4  24
TORSDOF 4
ENDMDL
MODEL 5
REMARK VINA RESULT:      -8.5      3.579      8.179
REMARK  Name = 
REMARK  4 active torsions:
REMARK  status: ('A' for Active; 'I' for Inactive)
REMARK    1  A    between atoms: C_2  and  C_22
REMARK    2  A    between atoms: N_3  and  C_4
REMARK    3  A    between atoms: C_7  and  O_8
REMARK    4  A    between atoms: O_8  and  C_9
REMARK                            x       y       z     vdW  Elec       q    Type
REMARK                         _______ _______ _______ _____ _____    ______ ____
ROOT
ATOM      1  C   UNL     1       2.205   6.644  19.490  0.00  0.00    +0.000 A 
ATOM      2  C   UNL     1       3.157   7.117  18.587  0.00  0.00    +0.000 A 
ATOM      3  C   UNL     1       4.139   6.287  18.073  0.00  0.00    +0.000 A 
ATOM      4  C   UNL     1       4.270   4.979  18.534  0.00  0.00    +0.000 A 
ATOM      5  C   UNL     1       3.340   4.460  19.459  0.00  0.00    +0.000 A 
ATOM      6  C   UNL     1       3.398   3.118  19.884  0.00  0.00    +0.000 A 
ATOM      7  C   UNL     1       2.462   2.643  20.785  0.00  0.00    +0.000 A 
ATOM      8  N   UNL     1       1.482   3.403  21.301  0.00  0.00    +0.000 NA
ATOM      9  C   UNL     1       1.431   4.692  20.881  0.00  0.00    +0.000 A 
ATOM     10  C   UNL     1       2.299   5.296  19.957  0.00  0.00    +0.000 A 
ENDROOT
BRANCH   1  13
ATOM     11  O   UNL     1       1.955   8.327  21.901  0.00  0.00    +0.000 OA
ATOM     12  C   UNL     1       1.096   8.264  21.031  0.00  0.00    +0.000 C 
ATOM     13  N   UNL     1       1.126   7.490  19.881  0.00  0.00    +0.000 N 
ATOM     14  H   UNL     1       0.390   7.656  19.213  0.00  0.00    +0.000 HD
BRANCH  12  15
ATOM     15  C   UNL     1      -0.107   9.136  21.143  0.00  0.00    +0.000 C 
ATOM     16  C   UNL     1      -0.160  10.236  22.183  0.00  0.00    +0.000 C 
ATOM     17  C   UNL     1      -0.058  10.603  20.722  0.00  0.00    +0.000 C 
ATOM     18  C   UNL     1      -1.272  11.167  20.017  0.00  0.00    +0.000 C 
ATOM     19  C   UNL     1      -1.073  11.112  18.496  0.00  0.00    +0.000 C 
ATOM     20  N   UNL     1       0.169  11.767  18.060  0.00  0.00    +0.000 NA
ATOM     21  C   UNL     1       1.335  11.160  18.721  0.00  0.00    +0.000 C 
ATOM     22  C   UNL     1       1.229  11.257  20.246  0.00  0.00    +0.000 C 
ATOM     23  H   UNL     1       0.128  12.752  18.323  0.00  0.00    +0.000 HD
ENDBRANCH  12  15
ENDBRANCH   1  13
BRANCH   4  24
ATOM     24  O   UNL     1       5.284   4.152  18.088  0.00  0.00    +0.000 OA
BRANCH  24  25
ATOM     25  C   UNL     1       5.841   4.364  16.845  0.00  0.00    +0.000 A 
ATOM     26  C   UNL     1       7.134   4.877  16.652  0.00  0.00    +0.000 A 
ATOM     27  C   UNL     1       7.594   5.158  15.363  0.00  0.00    +0.000 A 
ATOM     28  C   UNL     1       6.799   4.851  14.262  0.00  0.00    +0.000 A 
ATOM     29  C   UNL     1       5.554   4.266  14.459  0.00  0.00    +0.000 A 
ATOM     30  F   UNL     1       4.805   3.944  13.399  0.00  0.00    +0.000 F 
ATOM     31  C   UNL     1       5.063   4.021  15.741  0.00  0.00    +0.000 A 
ENDBRANCH  24  25
ENDBRANCH   4  24
TORSDOF 4
ENDMDL
MODEL 6
REMARK VINA RESULT:      -8.4      4.162      8.695
REMARK  Name = 
REMARK  4 active torsions:
REMARK  status: ('A' for Active; 'I' for Inactive)
REMARK    1  A    between atoms: C_2  and  C_22
REMARK    2  A    between atoms: N_3  and  C_4
REMARK    3  A    between atoms: C_7  and  O_8
REMARK    4  A    between atoms: O_8  and  C_9
REMARK                            x       y       z     vdW  Elec       q    Type
REMARK                         _______ _______ _______ _____ _____    ______ ____
ROOT
ATOM      1  C   UNL     1       3.098   6.691  18.171  0.00  0.00    +0.000 A 
ATOM      2  C   UNL     1       4.280   7.246  17.683  0.00  0.00    +0.000 A 
ATOM      3  C   UNL     1       5.236   6.470  17.049  0.00  0.00    +0.000 A 
ATOM      4  C   UNL     1       5.088   5.086  16.981  0.00  0.00    +0.000 A 
ATOM      5  C   UNL     1       3.916   4.475  17.474  0.00  0.00    +0.000 A 
ATOM      6  C   UNL     1       3.701   3.089  17.349  0.00  0.00    +0.000 A 
ATOM      7  C   UNL     1       2.534   2.529  17.836  0.00  0.00    +0.000 A 
ATOM      8  N   UNL     1       1.572   3.241  18.445  0.00  0.00    +0.000 NA
ATOM      9  C   UNL     1       1.785   4.576  18.556  0.00  0.00    +0.000 A 
ATOM     10  C   UNL     1       2.908   5.276  18.087  0.00  0.00    +0.000 A 
ENDROOT
BRANCH   1  13
ATOM     11  O   UNL     1       2.133   9.265  17.098  0.00  0.00    +0.000 OA
ATOM     12  C   UNL     1       1.675   8.739  18.105  0.00  0.00    +0.000 C 
ATOM     13  N   UNL     1       2.079   7.546  18.684  0.00  0.00    +0.000 N 
ATOM     14  H   UNL     1       1.509   7.201  19.439  0.00  0.00    +0.000 HD
BRANCH  12  15
ATOM     15  C   UNL     1       0.517   9.382  18.788  0.00  0.00    +0.000 C 
ATOM     16  C   UNL     1       0.506   9.533  20.295  0.00  0.00    +0.000 C 
ATOM     17  C   UNL     1       0.648  10.761  19.430  0.00  0.00    +0.000 C 
ATOM     18  C   UNL     1      -0.525  11.708  19.294  0.00  0.00    +0.000 C 
ATOM     19  C   UNL     1      -0.307  12.653  18.105  0.00  0.00    +0.000 C 
ATOM     20  N   UNL     1       0.973  13.372  18.176  0.00  0.00    +0.000 NA
ATOM     21  C   UNL     1       2.097  12.425  18.252  0.00  0.00    +0.000 C 
ATOM     22  C   UNL     1       1.974  11.504  19.470  0.00  0.00    +0.000 C 
ATOM     23  H   UNL     1       0.980  13.944  19.021  0.00  0.00    +0.000 HD
ENDBRANCH  12  15
ENDBRANCH   1  13
BRANCH   4  24
ATOM     24  O   UNL     1       6.059   4.281  16.414  0.00  0.00    +0.000 OA
BRANCH  24  25
ATOM     25  C   UNL     1       6.261   4.312  15.052  0.00  0.00    +0.000 A 
ATOM     26  C   UNL     1       5.425   3.666  14.128  0.00  0.00    +0.000 A 
ATOM     27  C   UNL     1       5.748   3.659  12.769  0.00  0.00    +0.000 A 
ATOM     28  C   UNL     1       6.861   4.366  12.320  0.00  0.00    +0.000 A 
ATOM     29  C   UNL     1       7.637   5.072  13.230  0.00  0.00    +0.000 A 
ATOM     30  F   UNL     1       8.687   5.775  12.792  0.00  0.00    +0.000 F 
ATOM     31  C   UNL     1       7.351   5.051  14.595  0.00  0.00    +0.000 A 
ENDBRANCH  24  25
ENDBRANCH   4  24
TORSDOF 4
ENDMDL
MODEL 7
REMARK VINA RESULT:      -8.4      3.058      3.804
REMARK  Name = 
REMARK  4 active torsions:
REMARK  status: ('A' for Active; 'I' for Inactive)
REMARK    1  A    between atoms: C_2  and  C_22
REMARK    2  A    between atoms: N_3  and  C_4
REMARK    3  A    between atoms: C_7  and  O_8
REMARK    4  A    between atoms: O_8  and  C_9
REMARK                            x       y       z     vdW  Elec       q    Type
REMARK                         _______ _______ _______ _____ _____    ______ ____
ROOT
ATOM      1  C   UNL     1       1.760   7.958  19.961  0.00  0.00    +0.000 A 
ATOM      2  C   UNL     1       1.941   8.326  18.628  0.00  0.00    +0.000 A 
ATOM      3  C   UNL     1       1.509   9.553  18.153  0.00  0.00    +0.000 A 
ATOM      4  C   UNL     1       0.779  10.409  18.973  0.00  0.00    +0.000 A 
ATOM      5  C   UNL     1       0.558  10.075  20.325  0.00  0.00    +0.000 A 
ATOM      6  C   UNL     1      -0.107  10.955  21.201  0.00  0.00    +0.000 A 
ATOM      7  C   UNL     1      -0.296  10.595  22.523  0.00  0.00    +0.000 A 
ATOM      8  N   UNL     1       0.116   9.424  23.035  0.00  0.00    +0.000 NA
ATOM      9  C   UNL     1       0.760   8.585  22.186  0.00  0.00    +0.000 A 
ATOM     10  C   UNL     1       1.040   8.832  20.832  0.00  0.00    +0.000 A 
ENDROOT
BRANCH   1  13
ATOM     11  O   UNL     1       0.477   5.348  20.463  0.00  0.00    +0.000 OA
ATOM     12  C   UNL     1       1.671   5.557  20.637  0.00  0.00    +0.000 C 
ATOM     13  N   UNL     1       2.348   6.751  20.442  0.00  0.00    +0.000 N 
ATOM     14  H   UNL     1       3.353   6.711  20.514  0.00  0.00    +0.000 HD
BRANCH  12  15
ATOM     15  C   UNL     1       2.547   4.424  21.047  0.00  0.00    +0.000 C 
ATOM     16  C   UNL     1       1.947   3.075  21.384  0.00  0.00    +0.000 C 
ATOM     17  C   UNL     1       2.768   3.226  20.127  0.00  0.00    +0.000 C 
ATOM     18  C   UNL     1       4.158   2.630  20.078  0.00  0.00    +0.000 C 
ATOM     19  C   UNL     1       4.940   3.210  18.892  0.00  0.00    +0.000 C 
ATOM     20  N   UNL     1       4.232   3.056  17.613  0.00  0.00    +0.000 NA
ATOM     21  C   UNL     1       2.907   3.693  17.674  0.00  0.00    +0.000 C 
ATOM     22  C   UNL     1       2.049   3.097  18.794  0.00  0.00    +0.000 C 
ATOM     23  H   UNL     1       4.101   2.061  17.430  0.00  0.00    +0.000 HD
ENDBRANCH  12  15
ENDBRANCH   1  13
BRANCH   4  24
ATOM     24  O   UNL     1       0.278  11.610  18.504  0.00  0.00    +0.000 OA
BRANCH  24  25
ATOM     25  C   UNL     1       1.073  12.735  18.521  0.00  0.00    +0.000 A 
ATOM     26  C   UNL     1       2.451  12.716  18.249  0.00  0.00    +0.000 A 
ATOM     27  C   UNL     1       3.211  13.881  18.382  0.00  0.00    +0.000 A 
ATOM     28  C   UNL     1       2.585  15.082  18.706  0.00  0.00    +0.000 A 
ATOM     29  C   UNL     1       1.208  15.108  18.893  0.00  0.00    +0.000 A 
ATOM     30  F   UNL     1       0.605  16.269  19.174  0.00  0.00    +0.000 F 
ATOM     31  C   UNL     1       0.443  13.945  18.806  0.00  0.00    +0.000 A 
ENDBRANCH  24  25
ENDBRANCH   4  24
TORSDOF 4
ENDMDL
MODEL 8
REMARK VINA RESULT:      -8.4      3.476      4.487
REMARK  Name = 
REMARK  4 active torsions:
REMARK  status: ('A' for Active; 'I' for Inactive)
REMARK    1  A    between atoms: C_2  and  C_22
REMARK    2  A    between atoms: N_3  and  C_4
REMARK    3  A    between atoms: C_7  and  O_8
REMARK    4  A    between atoms: O_8  and  C_9
REMARK                            x       y       z     vdW  Elec       q    Type
REMARK                         _______ _______ _______ _____ _____    ______ ____
ROOT
ATOM      1  C   UNL     1       1.520   8.363  19.889  0.00  0.00    +0.000 A 
ATOM      2  C   UNL     1       1.765   8.786  18.583  0.00  0.00    +0.000 A 
ATOM      3  C   UNL     1       1.386  10.044  18.148  0.00  0.00    +0.000 A 
ATOM      4  C   UNL     1       0.645  10.883  18.977  0.00  0.00    +0.000 A 
ATOM      5  C   UNL     1       0.359  10.494  20.302  0.00  0.00    +0.000 A 
ATOM      6  C   UNL     1      -0.319  11.352  21.191  0.00  0.00    +0.000 A 
ATOM      7  C   UNL     1      -0.572  10.938  22.485  0.00  0.00    +0.000 A 
ATOM      8  N   UNL     1      -0.212   9.734  22.959  0.00  0.00    +0.000 NA
ATOM      9  C   UNL     1       0.445   8.917  22.098  0.00  0.00    +0.000 A 
ATOM     10  C   UNL     1       0.787   9.217  20.770  0.00  0.00    +0.000 A 
ENDROOT
BRANCH   1  13
ATOM     11  O   UNL     1       2.462   6.071  18.287  0.00  0.00    +0.000 OA
ATOM     12  C   UNL     1       2.492   6.096  19.511  0.00  0.00    +0.000 C 
ATOM     13  N   UNL     1       2.056   7.120  20.338  0.00  0.00    +0.000 N 
ATOM     14  H   UNL     1       2.271   7.025  21.318  0.00  0.00    +0.000 HD
BRANCH  12  15
ATOM     15  C   UNL     1       3.106   4.950  20.239  0.00  0.00    +0.000 C 
ATOM     16  C   UNL     1       2.497   4.451  21.534  0.00  0.00    +0.000 C 
ATOM     17  C   UNL     1       2.412   3.591  20.297  0.00  0.00    +0.000 C 
ATOM     18  C   UNL     1       3.284   2.358  20.194  0.00  0.00    +0.000 C 
ATOM     19  C   UNL     1       3.325   1.858  18.744  0.00  0.00    +0.000 C 
ATOM     20  N   UNL     1       1.986   1.631  18.182  0.00  0.00    +0.000 NA
ATOM     21  C   UNL     1       1.181   2.861  18.245  0.00  0.00    +0.000 C 
ATOM     22  C   UNL     1       1.039   3.366  19.685  0.00  0.00    +0.000 C 
ATOM     23  H   UNL     1       1.517   0.913  18.736  0.00  0.00    +0.000 HD
ENDBRANCH  12  15
ENDBRANCH   1  13
BRANCH   4  24
ATOM     24  O   UNL     1       0.195  12.117  18.544  0.00  0.00    +0.000 OA
BRANCH  24  25
ATOM     25  C   UNL     1       1.013  13.220  18.655  0.00  0.00    +0.000 A 
ATOM     26  C   UNL     1       0.579  14.463  19.143  0.00  0.00    +0.000 A 
ATOM     27  C   UNL     1       1.440  15.562  19.134  0.00  0.00    +0.000 A 
ATOM     28  C   UNL     1       2.759  15.405  18.717  0.00  0.00    +0.000 A 
ATOM     29  C   UNL     1       3.205  14.152  18.315  0.00  0.00    +0.000 A 
ATOM     30  F   UNL     1       4.481  13.996  17.944  0.00  0.00    +0.000 F 
ATOM     31  C   UNL     1       2.344  13.055  18.276  0.00  0.00    +0.000 A 
ENDBRANCH  24  25
ENDBRANCH   4  24
TORSDOF 4
ENDMDL
MODEL 9
REMARK VINA RESULT:      -8.4      3.304      4.219
REMARK  Name = 
REMARK  4 active torsions:
REMARK  status: ('A' for Active; 'I' for Inactive)
REMARK    1  A    between atoms: C_2  and  C_22
REMARK    2  A    between atoms: N_3  and  C_4
REMARK    3  A    between atoms: C_7  and  O_8
REMARK    4  A    between atoms: O_8  and  C_9
REMARK                            x       y       z     vdW  Elec       q    Type
REMARK                         _______ _______ _______ _____ _____    ______ ____
ROOT
ATOM      1  C   UNL     1       1.494   8.354  19.893  0.00  0.00    +0.000 A 
ATOM      2  C   UNL     1       1.765   8.784  18.594  0.00  0.00    +0.000 A 
ATOM      3  C   UNL     1       1.408  10.050  18.163  0.00  0.00    +0.000 A 
ATOM      4  C   UNL     1       0.664  10.892  18.987  0.00  0.00    +0.000 A 
ATOM      5  C   UNL     1       0.352  10.496  20.305  0.00  0.00    +0.000 A 
ATOM      6  C   UNL     1      -0.329  11.356  21.189  0.00  0.00    +0.000 A 
ATOM      7  C   UNL     1      -0.608  10.934  22.476  0.00  0.00    +0.000 A 
ATOM      8  N   UNL     1      -0.270   9.723  22.946  0.00  0.00    +0.000 NA
ATOM      9  C   UNL     1       0.391   8.904  22.089  0.00  0.00    +0.000 A 
ATOM     10  C   UNL     1       0.758   9.210  20.769  0.00  0.00    +0.000 A 
ENDROOT
BRANCH   1  13
ATOM     11  O   UNL     1       2.729   6.191  18.309  0.00  0.00    +0.000 OA
ATOM     12  C   UNL     1       2.589   6.142  19.525  0.00  0.00    +0.000 C 
ATOM     13  N   UNL     1       2.008   7.102  20.340  0.00  0.00    +0.000 N 
ATOM     14  H   UNL     1       2.090   6.952  21.333  0.00  0.00    +0.000 HD
BRANCH  12  15
ATOM     15  C   UNL     1       3.138   4.971  20.265  0.00  0.00    +0.000 C 
ATOM     16  C   UNL     1       2.408   4.416  21.470  0.00  0.00    +0.000 C 
ATOM     17  C   UNL     1       2.457   3.607  20.197  0.00  0.00    +0.000 C 
ATOM     18  C   UNL     1       3.347   2.385  20.134  0.00  0.00    +0.000 C 
ATOM     19  C   UNL     1       3.539   1.944  18.677  0.00  0.00    +0.000 C 
ATOM     20  N   UNL     1       2.265   1.732  17.974  0.00  0.00    +0.000 NA
ATOM     21  C   UNL     1       1.446   2.954  18.004  0.00  0.00    +0.000 C 
ATOM     22  C   UNL     1       1.155   3.398  19.441  0.00  0.00    +0.000 C 
ATOM     23  H   UNL     1       1.751   0.990  18.447  0.00  0.00    +0.000 HD
ENDBRANCH  12  15
ENDBRANCH   1  13
BRANCH   4  24
ATOM     24  O   UNL     1       0.236  12.134  18.556  0.00  0.00    +0.000 OA
BRANCH  24  25
ATOM     25  C   UNL     1       1.117  13.193  18.544  0.00  0.00    +0.000 A 
ATOM     26  C   UNL     1       2.468  13.075  18.181  0.00  0.00    +0.000 A 
ATOM     27  C   UNL     1       3.325  14.173  18.287  0.00  0.00    +0.000 A 
ATOM     28  C   UNL     1       2.818  15.410  18.676  0.00  0.00    +0.000 A 
ATOM     29  C   UNL     1       1.463  15.539  18.953  0.00  0.00    +0.000 A 
ATOM     30  F   UNL     1       0.973  16.735  19.297  0.00  0.00    +0.000 F 
ATOM     31  C   UNL     1       0.604  14.441  18.894  0.00  0.00    +0.000 A 
ENDBRANCH  24  25
ENDBRANCH   4  24
TORSDOF 4
ENDMDL
