MODEL 1
REMARK VINA RESULT:      -8.6      0.000      0.000
REMARK  Name = 
REMARK  6 active torsions:
REMARK  status: ('A' for Active; 'I' for Inactive)
REMARK    1  A    between atoms: C_1  and  C_2
REMARK    2  A    between atoms: C_7  and  C_8
REMARK    3  A    between atoms: N_10  and  C_11
REMARK    4  A    between atoms: C_11  and  C_12
REMARK    5  A    between atoms: C_12  and  C_13
REMARK    6  A    between atoms: C_23  and  C_24
REMARK                            x       y       z     vdW  Elec       q    Type
REMARK                         _______ _______ _______ _____ _____    ______ ____
ROOT
ATOM      1  C   UNL     1       1.969   5.055  20.490  0.00  0.00    +0.000 C 
ATOM      2  O   UNL     1       2.466   4.686  21.551  0.00  0.00    +0.000 OA
ATOM      3  N   UNL     1       1.597   4.163  19.506  0.00  0.00    +0.000 N 
ATOM      4  H   UNL     1       1.006   4.456  18.738  0.00  0.00    +0.000 HD
ENDROOT
BRANCH   1  11
ATOM      5  C   UNL     1      -0.121  12.738  20.922  0.00  0.00    +0.000 C 
ATOM      6  C   UNL     1       0.139  11.266  21.055  0.00  0.00    +0.000 A 
ATOM      7  C   UNL     1      -0.325  10.543  22.155  0.00  0.00    +0.000 A 
ATOM      8  C   UNL     1      -0.075   9.172  22.243  0.00  0.00    +0.000 A 
ATOM      9  C   UNL     1       0.648   8.510  21.234  0.00  0.00    +0.000 A 
ATOM     10  C   UNL     1       0.934   7.137  21.290  0.00  0.00    +0.000 A 
ATOM     11  C   UNL     1       1.688   6.508  20.285  0.00  0.00    +0.000 A 
ATOM     12  C   UNL     1       2.159   7.310  19.245  0.00  0.00    +0.000 A 
ATOM     13  C   UNL     1       3.086   6.871  18.155  0.00  0.00    +0.000 C 
ATOM     14  N   UNL     1       1.845   8.641  19.159  0.00  0.00    +0.000 NA
ATOM     15  C   UNL     1       1.121   9.229  20.128  0.00  0.00    +0.000 A 
ATOM     16  C   UNL     1       0.847  10.587  20.052  0.00  0.00    +0.000 A 
ENDBRANCH   1  11
BRANCH   3  17
ATOM     17  C   UNL     1       1.807   2.726  19.648  0.00  0.00    +0.000 C 
BRANCH  17  18
ATOM     18  C   UNL     1       3.277   2.307  19.592  0.00  0.00    +0.000 C 
BRANCH  18  19
ATOM     19  C   UNL     1       4.087   3.036  18.566  0.00  0.00    +0.000 A 
ATOM     20  N   UNL     1       3.838   3.226  17.286  0.00  0.00    +0.000 NA
ATOM     21  C   UNL     1       4.945   3.890  16.785  0.00  0.00    +0.000 A 
ATOM     22  C   UNL     1       5.239   4.320  15.485  0.00  0.00    +0.000 A 
ATOM     23  C   UNL     1       6.491   4.893  15.255  0.00  0.00    +0.000 A 
ATOM     24  F   UNL     1       6.813   5.281  14.013  0.00  0.00    +0.000 F 
ATOM     25  C   UNL     1       7.426   5.066  16.273  0.00  0.00    +0.000 A 
ATOM     26  C   UNL     1       7.129   4.692  17.585  0.00  0.00    +0.000 A 
ATOM     27  C   UNL     1       5.878   4.107  17.795  0.00  0.00    +0.000 A 
ATOM     28  N   UNL     1       5.274   3.627  18.925  0.00  0.00    +0.000 N 
ATOM     29  H   UNL     1       5.660   3.655  19.857  0.00  0.00    +0.000 HD
ENDBRANCH  18  19
ENDBRANCH  17  18
ENDBRANCH   3  17
TORSDOF 4
ENDMDL
MODEL 2
REMARK VINA RESULT:      -8.5      0.995      1.458
REMARK  Name = 
REMARK  6 active torsions:
REMARK  status: ('A' for Active; 'I' for Inactive)
REMARK    1  A    between atoms: C_1  and  C_2
REMARK    2  A    between atoms: C_7  and  C_8
REMARK    3  A    between atoms: N_10  and  C_11
REMARK    4  A    between atoms: C_11  and  C_12
REMARK    5  A    between atoms: C_12  and  C_13
REMARK    6  A    between atoms: C_23  and  C_24
REMARK                            x       y       z     vdW  Elec       q    Type
REMARK                         _______ _______ _______ _____ _____    ______ ____
ROOT
ATOM      1  C   UNL     1       2.005   4.900  20.383  0.00  0.00    +0.000 C 
ATOM      2  O   UNL     1       2.227   4.461  21.509  0.00  0.00    +0.000 OA
ATOM      3  N   UNL     1       1.925   4.078  19.279  0.00  0.00    +0.000 N 
ATOM      4  H   UNL     1       1.540   4.417  18.407  0.00  0.00    +0.000 HD
ENDROOT
BRANCH   1  11
ATOM      5  C   UNL     1       0.015  12.597  20.999  0.00  0.00    +0.000 C 
ATOM      6  C   UNL     1       0.259  11.120  21.100  0.00  0.00    +0.000 A 
ATOM      7  C   UNL     1      -0.196  10.381  22.192  0.00  0.00    +0.000 A 
ATOM      8  C   UNL     1       0.039   9.006  22.250  0.00  0.00    +0.000 A 
ATOM      9  C   UNL     1       0.738   8.355  21.216  0.00  0.00    +0.000 A 
ATOM     10  C   UNL     1       1.008   6.977  21.240  0.00  0.00    +0.000 A 
ATOM     11  C   UNL     1       1.739   6.360  20.211  0.00  0.00    +0.000 A 
ATOM     12  C   UNL     1       2.202   7.177  19.180  0.00  0.00    +0.000 A 
ATOM     13  C   UNL     1       3.106   6.749  18.067  0.00  0.00    +0.000 C 
ATOM     14  N   UNL     1       1.903   8.513  19.124  0.00  0.00    +0.000 NA
ATOM     15  C   UNL     1       1.202   9.090  20.117  0.00  0.00    +0.000 A 
ATOM     16  C   UNL     1       0.943  10.453  20.071  0.00  0.00    +0.000 A 
ENDBRANCH   1  11
BRANCH   3  17
ATOM     17  C   UNL     1       2.139   2.637  19.373  0.00  0.00    +0.000 C 
BRANCH  17  18
ATOM     18  C   UNL     1       3.610   2.237  19.500  0.00  0.00    +0.000 C 
BRANCH  18  19
ATOM     19  C   UNL     1       4.566   3.200  18.870  0.00  0.00    +0.000 A 
ATOM     20  N   UNL     1       5.308   4.130  19.435  0.00  0.00    +0.000 NA
ATOM     21  C   UNL     1       5.942   4.786  18.393  0.00  0.00    +0.000 A 
ATOM     22  C   UNL     1       6.824   5.874  18.403  0.00  0.00    +0.000 A 
ATOM     23  C   UNL     1       7.242   6.386  17.173  0.00  0.00    +0.000 A 
ATOM     24  F   UNL     1       8.057   7.450  17.152  0.00  0.00    +0.000 F 
ATOM     25  C   UNL     1       6.829   5.835  15.961  0.00  0.00    +0.000 A 
ATOM     26  C   UNL     1       5.993   4.717  15.934  0.00  0.00    +0.000 A 
ATOM     27  C   UNL     1       5.573   4.227  17.173  0.00  0.00    +0.000 A 
ATOM     28  N   UNL     1       4.764   3.176  17.511  0.00  0.00    +0.000 N 
ATOM     29  H   UNL     1       4.342   2.526  16.865  0.00  0.00    +0.000 HD
ENDBRANCH  18  19
ENDBRANCH  17  18
ENDBRANCH   3  17
TORSDOF 4
ENDMDL
MODEL 3
REMARK VINA RESULT:      -8.4      3.730      8.545
REMARK  Name = 
REMARK  6 active torsions:
REMARK  status: ('A' for Active; 'I' for Inactive)
REMARK    1  A    between atoms: C_1  and  C_2
REMARK    2  A    between atoms: C_7  and  C_8
REMARK    3  A    between atoms: N_10  and  C_11
REMARK    4  A    between atoms: C_11  and  C_12
REMARK    5  A    between atoms: C_12  and  C_13
REMARK    6  A    between atoms: C_23  and  C_24
REMARK                            x       y       z     vdW  Elec       q    Type
REMARK                         _______ _______ _______ _____ _____    ______ ____
ROOT
ATOM      1  C   UNL     1       1.741   7.377  20.237  0.00  0.00    +0.000 C 
ATOM      2  O   UNL     1       1.589   7.015  21.401  0.00  0.00    +0.000 OA
ATOM      3  N   UNL     1       1.398   8.643  19.813  0.00  0.00    +0.000 N 
ATOM      4  H   UNL     1       1.716   8.994  18.919  0.00  0.00    +0.000 HD
ENDROOT
BRANCH   1  11
ATOM      5  C   UNL     1       6.099   3.704  14.661  0.00  0.00    +0.000 C 
ATOM      6  C   UNL     1       5.384   4.609  15.620  0.00  0.00    +0.000 A 
ATOM      7  C   UNL     1       5.627   5.982  15.643  0.00  0.00    +0.000 A 
ATOM      8  C   UNL     1       4.937   6.798  16.541  0.00  0.00    +0.000 A 
ATOM      9  C   UNL     1       3.998   6.246  17.433  0.00  0.00    +0.000 A 
ATOM     10  C   UNL     1       3.292   7.027  18.362  0.00  0.00    +0.000 A 
ATOM     11  C   UNL     1       2.386   6.444  19.264  0.00  0.00    +0.000 A 
ATOM     12  C   UNL     1       2.237   5.058  19.212  0.00  0.00    +0.000 A 
ATOM     13  C   UNL     1       1.432   4.231  20.165  0.00  0.00    +0.000 C 
ATOM     14  N   UNL     1       2.886   4.295  18.277  0.00  0.00    +0.000 NA
ATOM     15  C   UNL     1       3.750   4.867  17.420  0.00  0.00    +0.000 A 
ATOM     16  C   UNL     1       4.435   4.077  16.507  0.00  0.00    +0.000 A 
ENDBRANCH   1  11
BRANCH   3  17
ATOM     17  C   UNL     1       0.795   9.621  20.713  0.00  0.00    +0.000 C 
BRANCH  17  18
ATOM     18  C   UNL     1       0.385  10.924  20.026  0.00  0.00    +0.000 C 
BRANCH  18  19
ATOM     19  C   UNL     1      -0.703  10.769  19.010  0.00  0.00    +0.000 A 
ATOM     20  N   UNL     1      -0.697  10.100  17.876  0.00  0.00    +0.000 NA
ATOM     21  C   UNL     1      -1.924  10.354  17.286  0.00  0.00    +0.000 A 
ATOM     22  C   UNL     1      -2.452   9.927  16.061  0.00  0.00    +0.000 A 
ATOM     23  C   UNL     1      -3.701  10.423  15.682  0.00  0.00    +0.000 A 
ATOM     24  F   UNL     1      -4.215  10.059  14.498  0.00  0.00    +0.000 F 
ATOM     25  C   UNL     1      -4.430  11.295  16.488  0.00  0.00    +0.000 A 
ATOM     26  C   UNL     1      -3.941  11.688  17.735  0.00  0.00    +0.000 A 
ATOM     27  C   UNL     1      -2.684  11.194  18.093  0.00  0.00    +0.000 A 
ATOM     28  N   UNL     1      -1.918  11.377  19.212  0.00  0.00    +0.000 N 
ATOM     29  H   UNL     1      -2.182  11.912  20.026  0.00  0.00    +0.000 HD
ENDBRANCH  18  19
ENDBRANCH  17  18
ENDBRANCH   3  17
TORSDOF 4
ENDMDL
MODEL 4
REMARK VINA RESULT:      -8.4      2.227      3.435
REMARK  Name = 
REMARK  6 active torsions:
REMARK  status: ('A' for Active; 'I' for Inactive)
REMARK    1  A    between atoms: C_1  and  C_2
REMARK    2  A    between atoms: C_7  and  C_8
REMARK    3  A    between atoms: N_10  and  C_11
REMARK    4  A    between atoms: C_11  and  C_12
REMARK    5  A    between atoms: C_12  and  C_13
REMARK    6  A    between atoms: C_23  and  C_24
REMARK                            x       y       z     vdW  Elec       q    Type
REMARK                         _______ _______ _______ _____ _____    ______ ____
ROOT
ATOM      1  C   UNL     1       3.872   5.544  18.670  0.00  0.00    +0.000 C 
ATOM      2  O   UNL     1       3.540   4.858  17.705  0.00  0.00    +0.000 OA
ATOM      3  N   UNL     1       5.141   5.486  19.206  0.00  0.00    +0.000 N 
ATOM      4  H   UNL     1       5.462   6.194  19.853  0.00  0.00    +0.000 HD
ENDROOT
BRANCH   1  11
ATOM      5  C   UNL     1      -1.062  11.593  20.290  0.00  0.00    +0.000 C 
ATOM      6  C   UNL     1      -0.053  10.601  19.793  0.00  0.00    +0.000 A 
ATOM      7  C   UNL     1       0.698  10.842  18.643  0.00  0.00    +0.000 A 
ATOM      8  C   UNL     1       1.636   9.902  18.212  0.00  0.00    +0.000 A 
ATOM      9  C   UNL     1       1.829   8.705  18.927  0.00  0.00    +0.000 A 
ATOM     10  C   UNL     1       2.750   7.726  18.522  0.00  0.00    +0.000 A 
ATOM     11  C   UNL     1       2.897   6.524  19.235  0.00  0.00    +0.000 A 
ATOM     12  C   UNL     1       2.073   6.337  20.345  0.00  0.00    +0.000 A 
ATOM     13  C   UNL     1       1.974   5.083  21.155  0.00  0.00    +0.000 C 
ATOM     14  N   UNL     1       1.204   7.306  20.773  0.00  0.00    +0.000 NA
ATOM     15  C   UNL     1       1.075   8.452  20.081  0.00  0.00    +0.000 A 
ATOM     16  C   UNL     1       0.161   9.407  20.500  0.00  0.00    +0.000 A 
ENDBRANCH   1  11
BRANCH   3  17
ATOM     17  C   UNL     1       6.158   4.578  18.686  0.00  0.00    +0.000 C 
BRANCH  17  18
ATOM     18  C   UNL     1       7.110   5.226  17.679  0.00  0.00    +0.000 C 
BRANCH  18  19
ATOM     19  C   UNL     1       6.839   4.863  16.253  0.00  0.00    +0.000 A 
ATOM     20  N   UNL     1       5.960   4.016  15.759  0.00  0.00    +0.000 NA
ATOM     21  C   UNL     1       6.183   4.000  14.393  0.00  0.00    +0.000 A 
ATOM     22  C   UNL     1       5.563   3.262  13.377  0.00  0.00    +0.000 A 
ATOM     23  C   UNL     1       6.066   3.387  12.080  0.00  0.00    +0.000 A 
ATOM     24  F   UNL     1       5.514   2.665  11.094  0.00  0.00    +0.000 F 
ATOM     25  C   UNL     1       7.132   4.231  11.776  0.00  0.00    +0.000 A 
ATOM     26  C   UNL     1       7.727   5.014  12.768  0.00  0.00    +0.000 A 
ATOM     27  C   UNL     1       7.221   4.865  14.061  0.00  0.00    +0.000 A 
ATOM     28  N   UNL     1       7.564   5.456  15.247  0.00  0.00    +0.000 N 
ATOM     29  H   UNL     1       8.267   6.169  15.369  0.00  0.00    +0.000 HD
ENDBRANCH  18  19
ENDBRANCH  17  18
ENDBRANCH   3  17
TORSDOF 4
ENDMDL
MODEL 5
REMARK VINA RESULT:      -8.3      1.718      2.423
REMARK  Name = 
REMARK  6 active torsions:
REMARK  status: ('A' for Active; 'I' for Inactive)
REMARK    1  A    between atoms: C_1  and  C_2
REMARK    2  A    between atoms: C_7  and  C_8
REMARK    3  A    between atoms: N_10  and  C_11
REMARK    4  A    between atoms: C_11  and  C_12
REMARK    5  A    between atoms: C_12  and  C_13
REMARK    6  A    between atoms: C_23  and  C_24
REMARK                            x       y       z     vdW  Elec       q    Type
REMARK                         _______ _______ _______ _____ _____    ______ ____
ROOT
ATOM      1  C   UNL     1       2.633   6.246  19.330  0.00  0.00    +0.000 C 
ATOM      2  O   UNL     1       2.113   5.458  18.543  0.00  0.00    +0.000 OA
ATOM      3  N   UNL     1       3.891   6.036  19.853  0.00  0.00    +0.000 N 
ATOM      4  H   UNL     1       4.386   6.780  20.326  0.00  0.00    +0.000 HD
ENDROOT
BRANCH   1  11
ATOM      5  C   UNL     1      -1.269  12.339  22.680  0.00  0.00    +0.000 C 
ATOM      6  C   UNL     1      -0.585  11.070  22.267  0.00  0.00    +0.000 A 
ATOM      7  C   UNL     1      -0.479   9.985  23.137  0.00  0.00    +0.000 A 
ATOM      8  C   UNL     1       0.155   8.814  22.717  0.00  0.00    +0.000 A 
ATOM      9  C   UNL     1       0.695   8.718  21.421  0.00  0.00    +0.000 A 
ATOM     10  C   UNL     1       1.353   7.565  20.963  0.00  0.00    +0.000 A 
ATOM     11  C   UNL     1       1.913   7.509  19.676  0.00  0.00    +0.000 A 
ATOM     12  C   UNL     1       1.809   8.653  18.885  0.00  0.00    +0.000 A 
ATOM     13  C   UNL     1       2.450   8.850  17.547  0.00  0.00    +0.000 C 
ATOM     14  N   UNL     1       1.129   9.766  19.307  0.00  0.00    +0.000 NA
ATOM     15  C   UNL     1       0.596   9.804  20.542  0.00  0.00    +0.000 A 
ATOM     16  C   UNL     1      -0.052  10.952  20.974  0.00  0.00    +0.000 A 
ENDBRANCH   1  11
BRANCH   3  17
ATOM     17  C   UNL     1       4.669   4.843  19.534  0.00  0.00    +0.000 C 
BRANCH  17  18
ATOM     18  C   UNL     1       6.102   5.139  19.090  0.00  0.00    +0.000 C 
BRANCH  18  19
ATOM     19  C   UNL     1       6.356   4.909  17.633  0.00  0.00    +0.000 A 
ATOM     20  N   UNL     1       7.254   5.460  16.844  0.00  0.00    +0.000 NA
ATOM     21  C   UNL     1       7.001   4.955  15.580  0.00  0.00    +0.000 A 
ATOM     22  C   UNL     1       7.626   5.214  14.353  0.00  0.00    +0.000 A 
ATOM     23  C   UNL     1       7.091   4.616  13.210  0.00  0.00    +0.000 A 
ATOM     24  F   UNL     1       7.646   4.875  12.018  0.00  0.00    +0.000 F 
ATOM     25  C   UNL     1       5.988   3.766  13.264  0.00  0.00    +0.000 A 
ATOM     26  C   UNL     1       5.387   3.455  14.485  0.00  0.00    +0.000 A 
ATOM     27  C   UNL     1       5.926   4.073  15.617  0.00  0.00    +0.000 A 
ATOM     28  N   UNL     1       5.588   4.003  16.941  0.00  0.00    +0.000 N 
ATOM     29  H   UNL     1       4.862   3.423  17.334  0.00  0.00    +0.000 HD
ENDBRANCH  18  19
ENDBRANCH  17  18
ENDBRANCH   3  17
TORSDOF 4
ENDMDL
MODEL 6
REMARK VINA RESULT:      -8.3      6.008      8.290
REMARK  Name = 
REMARK  6 active torsions:
REMARK  status: ('A' for Active; 'I' for Inactive)
REMARK    1  A    between atoms: C_1  and  C_2
REMARK    2  A    between atoms: C_7  and  C_8
REMARK    3  A    between atoms: N_10  and  C_11
REMARK    4  A    between atoms: C_11  and  C_12
REMARK    5  A    between atoms: C_12  and  C_13
REMARK    6  A    between atoms: C_23  and  C_24
REMARK                            x       y       z     vdW  Elec       q    Type
REMARK                         _______ _______ _______ _____ _____    ______ ____
ROOT
ATOM      1  C   UNL     1       7.192   6.437  18.022  0.00  0.00    +0.000 C 
ATOM      2  O   UNL     1       8.208   6.081  18.613  0.00  0.00    +0.000 OA
ATOM      3  N   UNL     1       7.111   7.652  17.374  0.00  0.00    +0.000 N 
ATOM      4  H   UNL     1       6.359   7.843  16.724  0.00  0.00    +0.000 HD
ENDROOT
BRANCH   1  11
ATOM      5  C   UNL     1       0.425   2.298  18.829  0.00  0.00    +0.000 C 
ATOM      6  C   UNL     1       1.636   3.181  18.901  0.00  0.00    +0.000 A 
ATOM      7  C   UNL     1       1.815   4.086  19.947  0.00  0.00    +0.000 A 
ATOM      8  C   UNL     1       2.958   4.887  19.989  0.00  0.00    +0.000 A 
ATOM      9  C   UNL     1       3.934   4.793  18.980  0.00  0.00    +0.000 A 
ATOM     10  C   UNL     1       5.091   5.589  18.975  0.00  0.00    +0.000 A 
ATOM     11  C   UNL     1       6.033   5.499  17.936  0.00  0.00    +0.000 A 
ATOM     12  C   UNL     1       5.756   4.606  16.901  0.00  0.00    +0.000 A 
ATOM     13  C   UNL     1       6.552   4.457  15.642  0.00  0.00    +0.000 C 
ATOM     14  N   UNL     1       4.653   3.793  16.921  0.00  0.00    +0.000 NA
ATOM     15  C   UNL     1       3.761   3.890  17.923  0.00  0.00    +0.000 A 
ATOM     16  C   UNL     1       2.626   3.092  17.909  0.00  0.00    +0.000 A 
ENDBRANCH   1  11
BRANCH   3  17
ATOM     17  C   UNL     1       8.215   8.607  17.383  0.00  0.00    +0.000 C 
BRANCH  17  18
ATOM     18  C   UNL     1       8.503   9.205  18.761  0.00  0.00    +0.000 C 
BRANCH  18  19
ATOM     19  C   UNL     1       9.209  10.524  18.724  0.00  0.00    +0.000 A 
ATOM     20  N   UNL     1       9.041  11.539  17.901  0.00  0.00    +0.000 NA
ATOM     21  C   UNL     1      10.001  12.471  18.255  0.00  0.00    +0.000 A 
ATOM     22  C   UNL     1      10.303  13.723  17.705  0.00  0.00    +0.000 A 
ATOM     23  C   UNL     1      11.401  14.415  18.222  0.00  0.00    +0.000 A 
ATOM     24  F   UNL     1      11.734  15.599  17.690  0.00  0.00    +0.000 F 
ATOM     25  C   UNL     1      12.171  13.909  19.267  0.00  0.00    +0.000 A 
ATOM     26  C   UNL     1      11.851  12.688  19.862  0.00  0.00    +0.000 A 
ATOM     27  C   UNL     1      10.759  12.003  19.324  0.00  0.00    +0.000 A 
ATOM     28  N   UNL     1      10.185  10.804  19.649  0.00  0.00    +0.000 N 
ATOM     29  H   UNL     1      10.467  10.203  20.409  0.00  0.00    +0.000 HD
ENDBRANCH  18  19
ENDBRANCH  17  18
ENDBRANCH   3  17
TORSDOF 4
ENDMDL
MODEL 7
REMARK VINA RESULT:      -8.2      6.198      8.463
REMARK  Name = 
REMARK  6 active torsions:
REMARK  status: ('A' for Active; 'I' for Inactive)
REMARK    1  A    between atoms: C_1  and  C_2
REMARK    2  A    between atoms: C_7  and  C_8
REMARK    3  A    between atoms: N_10  and  C_11
REMARK    4  A    between atoms: C_11  and  C_12
REMARK    5  A    between atoms: C_12  and  C_13
REMARK    6  A    between atoms: C_23  and  C_24
REMARK                            x       y       z     vdW  Elec       q    Type
REMARK                         _______ _______ _______ _____ _____    ______ ____
ROOT
ATOM      1  C   UNL     1       6.927   6.719  16.953  0.00  0.00    +0.000 C 
ATOM      2  O   UNL     1       7.822   6.506  16.139  0.00  0.00    +0.000 OA
ATOM      3  N   UNL     1       6.883   7.873  17.707  0.00  0.00    +0.000 N 
ATOM      4  H   UNL     1       6.045   8.130  18.211  0.00  0.00    +0.000 HD
ENDROOT
BRANCH   1  11
ATOM      5  C   UNL     1       0.480   2.434  18.863  0.00  0.00    +0.000 C 
ATOM      6  C   UNL     1       1.649   3.364  18.722  0.00  0.00    +0.000 A 
ATOM      7  C   UNL     1       1.892   4.373  19.654  0.00  0.00    +0.000 A 
ATOM      8  C   UNL     1       2.995   5.215  19.499  0.00  0.00    +0.000 A 
ATOM      9  C   UNL     1       3.866   5.059  18.404  0.00  0.00    +0.000 A 
ATOM     10  C   UNL     1       4.978   5.892  18.201  0.00  0.00    +0.000 A 
ATOM     11  C   UNL     1       5.810   5.736  17.081  0.00  0.00    +0.000 A 
ATOM     12  C   UNL     1       5.471   4.736  16.168  0.00  0.00    +0.000 A 
ATOM     13  C   UNL     1       6.139   4.493  14.852  0.00  0.00    +0.000 C 
ATOM     14  N   UNL     1       4.415   3.889  16.382  0.00  0.00    +0.000 NA
ATOM     15  C   UNL     1       3.627   4.050  17.461  0.00  0.00    +0.000 A 
ATOM     16  C   UNL     1       2.535   3.215  17.643  0.00  0.00    +0.000 A 
ENDBRANCH   1  11
BRANCH   3  17
ATOM     17  C   UNL     1       7.919   8.896  17.613  0.00  0.00    +0.000 C 
BRANCH  17  18
ATOM     18  C   UNL     1       8.805   8.996  18.856  0.00  0.00    +0.000 C 
BRANCH  18  19
ATOM     19  C   UNL     1       9.373  10.359  19.100  0.00  0.00    +0.000 A 
ATOM     20  N   UNL     1       9.545  11.001  20.237  0.00  0.00    +0.000 NA
ATOM     21  C   UNL     1      10.027  12.252  19.890  0.00  0.00    +0.000 A 
ATOM     22  C   UNL     1      10.359  13.354  20.689  0.00  0.00    +0.000 A 
ATOM     23  C   UNL     1      10.743  14.533  20.045  0.00  0.00    +0.000 A 
ATOM     24  F   UNL     1      11.032  15.614  20.784  0.00  0.00    +0.000 F 
ATOM     25  C   UNL     1      10.823  14.629  18.658  0.00  0.00    +0.000 A 
ATOM     26  C   UNL     1      10.547  13.524  17.850  0.00  0.00    +0.000 A 
ATOM     27  C   UNL     1      10.152  12.357  18.508  0.00  0.00    +0.000 A 
ATOM     28  N   UNL     1       9.805  11.119  18.040  0.00  0.00    +0.000 N 
ATOM     29  H   UNL     1       9.816  10.831  17.073  0.00  0.00    +0.000 HD
ENDBRANCH  18  19
ENDBRANCH  17  18
ENDBRANCH   3  17
TORSDOF 4
ENDMDL
MODEL 8
REMARK VINA RESULT:      -8.2      4.148      8.993
REMARK  Name = 
REMARK  6 active torsions:
REMARK  status: ('A' for Active; 'I' for Inactive)
REMARK    1  A    between atoms: C_1  and  C_2
REMARK    2  A    between atoms: C_7  and  C_8
REMARK    3  A    between atoms: N_10  and  C_11
REMARK    4  A    between atoms: C_11  and  C_12
REMARK    5  A    between atoms: C_12  and  C_13
REMARK    6  A    between atoms: C_23  and  C_24
REMARK                            x       y       z     vdW  Elec       q    Type
REMARK                         _______ _______ _______ _____ _____    ______ ____
ROOT
ATOM      1  C   UNL     1       1.733   7.819  20.261  0.00  0.00    +0.000 C 
ATOM      2  O   UNL     1       1.667   7.595  21.468  0.00  0.00    +0.000 OA
ATOM      3  N   UNL     1       1.301   9.008  19.713  0.00  0.00    +0.000 N 
ATOM      4  H   UNL     1       1.549   9.261  18.765  0.00  0.00    +0.000 HD
ENDROOT
BRANCH   1  11
ATOM      5  C   UNL     1       5.989   3.677  14.941  0.00  0.00    +0.000 C 
ATOM      6  C   UNL     1       5.285   4.662  15.827  0.00  0.00    +0.000 A 
ATOM      7  C   UNL     1       5.496   6.035  15.700  0.00  0.00    +0.000 A 
ATOM      8  C   UNL     1       4.817   6.925  16.534  0.00  0.00    +0.000 A 
ATOM      9  C   UNL     1       3.921   6.449  17.510  0.00  0.00    +0.000 A 
ATOM     10  C   UNL     1       3.229   7.308  18.379  0.00  0.00    +0.000 A 
ATOM     11  C   UNL     1       2.367   6.804  19.367  0.00  0.00    +0.000 A 
ATOM     12  C   UNL     1       2.249   5.417  19.463  0.00  0.00    +0.000 A 
ATOM     13  C   UNL     1       1.497   4.677  20.524  0.00  0.00    +0.000 C 
ATOM     14  N   UNL     1       2.885   4.574  18.590  0.00  0.00    +0.000 NA
ATOM     15  C   UNL     1       3.706   5.072  17.648  0.00  0.00    +0.000 A 
ATOM     16  C   UNL     1       4.379   4.206  16.798  0.00  0.00    +0.000 A 
ENDBRANCH   1  11
BRANCH   3  17
ATOM     17  C   UNL     1       0.703  10.061  20.527  0.00  0.00    +0.000 C 
BRANCH  17  18
ATOM     18  C   UNL     1       0.491  11.378  19.778  0.00  0.00    +0.000 C 
BRANCH  18  19
ATOM     19  C   UNL     1      -0.823  11.478  19.069  0.00  0.00    +0.000 A 
ATOM     20  N   UNL     1      -2.008  11.799  19.546  0.00  0.00    +0.000 NA
ATOM     21  C   UNL     1      -2.888  11.660  18.487  0.00  0.00    +0.000 A 
ATOM     22  C   UNL     1      -4.275  11.841  18.425  0.00  0.00    +0.000 A 
ATOM     23  C   UNL     1      -4.919  11.537  17.223  0.00  0.00    +0.000 A 
ATOM     24  F   UNL     1      -6.251  11.667  17.146  0.00  0.00    +0.000 F 
ATOM     25  C   UNL     1      -4.225  11.090  16.101  0.00  0.00    +0.000 A 
ATOM     26  C   UNL     1      -2.835  10.955  16.130  0.00  0.00    +0.000 A 
ATOM     27  C   UNL     1      -2.209  11.250  17.343  0.00  0.00    +0.000 A 
ATOM     28  N   UNL     1      -0.894  11.219  17.721  0.00  0.00    +0.000 N 
ATOM     29  H   UNL     1      -0.114  10.993  17.122  0.00  0.00    +0.000 HD
ENDBRANCH  18  19
ENDBRANCH  17  18
ENDBRANCH   3  17
TORSDOF 4
ENDMDL
MODEL 9
REMARK VINA RESULT:      -8.1      1.941      2.628
REMARK  Name = 
REMARK  6 active torsions:
REMARK  status: ('A' for Active; 'I' for Inactive)
REMARK    1  A    between atoms: C_1  and  C_2
REMARK    2  A    between atoms: C_7  and  C_8
REMARK    3  A    between atoms: N_10  and  C_11
REMARK    4  A    between atoms: C_11  and  C_12
REMARK    5  A    between atoms: C_12  and  C_13
REMARK    6  A    between atoms: C_23  and  C_24
REMARK                            x       y       z     vdW  Elec       q    Type
REMARK                         _______ _______ _______ _____ _____    ______ ____
ROOT
ATOM      1  C   UNL     1       2.791   6.179  19.584  0.00  0.00    +0.000 C 
ATOM      2  O   UNL     1       2.247   5.086  19.726  0.00  0.00    +0.000 OA
ATOM      3  N   UNL     1       4.095   6.296  19.148  0.00  0.00    +0.000 N 
ATOM      4  H   UNL     1       4.459   7.187  18.838  0.00  0.00    +0.000 HD
ENDROOT
BRANCH   1  11
ATOM      5  C   UNL     1      -1.474  12.306  22.382  0.00  0.00    +0.000 C 
ATOM      6  C   UNL     1      -0.715  11.047  22.083  0.00  0.00    +0.000 A 
ATOM      7  C   UNL     1      -0.547  10.054  23.047  0.00  0.00    +0.000 A 
ATOM      8  C   UNL     1       0.157   8.889  22.733  0.00  0.00    +0.000 A 
ATOM      9  C   UNL     1       0.705   8.709  21.449  0.00  0.00    +0.000 A 
ATOM     10  C   UNL     1       1.432   7.561  21.095  0.00  0.00    +0.000 A 
ATOM     11  C   UNL     1       1.998   7.422  19.816  0.00  0.00    +0.000 A 
ATOM     12  C   UNL     1       1.828   8.483  18.926  0.00  0.00    +0.000 A 
ATOM     13  C   UNL     1       2.459   8.596  17.574  0.00  0.00    +0.000 C 
ATOM     14  N   UNL     1       1.081   9.586  19.248  0.00  0.00    +0.000 NA
ATOM     15  C   UNL     1       0.544   9.704  20.476  0.00  0.00    +0.000 A 
ATOM     16  C   UNL     1      -0.172  10.846  20.804  0.00  0.00    +0.000 A 
ENDBRANCH   1  11
BRANCH   3  17
ATOM     17  C   UNL     1       4.922   5.127  18.867  0.00  0.00    +0.000 C 
BRANCH  17  18
ATOM     18  C   UNL     1       6.211   5.449  18.108  0.00  0.00    +0.000 C 
BRANCH  18  19
ATOM     19  C   UNL     1       6.187   5.062  16.663  0.00  0.00    +0.000 A 
ATOM     20  N   UNL     1       5.382   4.231  16.034  0.00  0.00    +0.000 NA
ATOM     21  C   UNL     1       5.847   4.175  14.731  0.00  0.00    +0.000 A 
ATOM     22  C   UNL     1       5.393   3.434  13.633  0.00  0.00    +0.000 A 
ATOM     23  C   UNL     1       6.125   3.513  12.445  0.00  0.00    +0.000 A 
ATOM     24  F   UNL     1       5.735   2.786  11.389  0.00  0.00    +0.000 F 
ATOM     25  C   UNL     1       7.257   4.316  12.324  0.00  0.00    +0.000 A 
ATOM     26  C   UNL     1       7.691   5.102  13.393  0.00  0.00    +0.000 A 
ATOM     27  C   UNL     1       6.957   5.000  14.577  0.00  0.00    +0.000 A 
ATOM     28  N   UNL     1       7.101   5.607  15.795  0.00  0.00    +0.000 N 
ATOM     29  H   UNL     1       7.796   6.300  16.028  0.00  0.00    +0.000 HD
ENDBRANCH  18  19
ENDBRANCH  17  18
ENDBRANCH   3  17
TORSDOF 4
ENDMDL
