MODEL 1
REMARK VINA RESULT:      -8.6      0.000      0.000
REMARK  Name = 
REMARK  3 active torsions:
REMARK  status: ('A' for Active; 'I' for Inactive)
REMARK    1  A    between atoms: C_1  and  N_2
REMARK    2  A    between atoms: N_22  and  C_23
REMARK    3  A    between atoms: C_23  and  C_24
REMARK                            x       y       z     vdW  Elec       q    Type
REMARK                         _______ _______ _______ _____ _____    ______ ____
ROOT
ATOM      1  C   UNL     1       3.254  14.797  17.964  0.00  0.00    +0.000 C 
ATOM      2  N   UNL     1       1.922  14.530  18.461  0.00  0.00    +0.000 N 
ATOM      3  C   UNL     1       1.058  15.601  18.697  0.00  0.00    +0.000 A 
ATOM      4  O   UNL     1       1.339  16.781  18.484  0.00  0.00    +0.000 OA
ATOM      5  N   UNL     1      -0.178  15.306  19.229  0.00  0.00    +0.000 N 
ATOM      6  C   UNL     1      -0.556  14.092  19.763  0.00  0.00    +0.000 A 
ATOM      7  O   UNL     1      -1.498  13.994  20.538  0.00  0.00    +0.000 OA
ATOM      8  C   UNL     1       0.286  13.030  19.351  0.00  0.00    +0.000 A 
ATOM      9  C   UNL     1       1.484  13.245  18.728  0.00  0.00    +0.000 A 
ATOM     10  N   UNL     1       2.114  12.064  18.460  0.00  0.00    +0.000 NA
ATOM     11  C   UNL     1       1.300  11.096  18.871  0.00  0.00    +0.000 A 
ATOM     12  N   UNL     1       1.495   9.734  18.721  0.00  0.00    +0.000 N 
ATOM     13  C   UNL     1       2.595   9.373  17.808  0.00  0.00    +0.000 C 
ATOM     14  C   UNL     1       2.865   7.873  17.620  0.00  0.00    +0.000 C 
ATOM     15  C   UNL     1       2.480   6.962  18.746  0.00  0.00    +0.000 A 
ATOM     16  C   UNL     1       2.812   5.596  18.694  0.00  0.00    +0.000 A 
ATOM     17  C   UNL     1       2.401   4.717  19.696  0.00  0.00    +0.000 A 
ATOM     18  C   UNL     1       1.647   5.192  20.761  0.00  0.00    +0.000 A 
ATOM     19  C   UNL     1       1.318   6.546  20.820  0.00  0.00    +0.000 A 
ATOM     20  C   UNL     1       1.727   7.444  19.811  0.00  0.00    +0.000 A 
ATOM     21  C   UNL     1       1.312   8.891  19.914  0.00  0.00    +0.000 C 
ATOM     22  N   UNL     1       0.143  11.662  19.410  0.00  0.00    +0.000 N 
ATOM     23  H   UNL     1      -0.745  16.101  19.473  0.00  0.00    +0.000 HD
ENDROOT
BRANCH  22  24
ATOM     24  C   UNL     1      -1.136  11.003  19.676  0.00  0.00    +0.000 C 
BRANCH  24  25
ATOM     25  C   UNL     1      -2.024  10.831  18.460  0.00  0.00    +0.000 A 
ATOM     26  C   UNL     1      -1.621  10.057  17.356  0.00  0.00    +0.000 A 
ATOM     27  C   UNL     1      -2.411   9.971  16.207  0.00  0.00    +0.000 A 
ATOM     28  C   UNL     1      -3.627  10.643  16.143  0.00  0.00    +0.000 A 
ATOM     29  C   UNL     1      -4.074  11.368  17.243  0.00  0.00    +0.000 A 
ATOM     30  C   UNL     1      -3.292  11.445  18.400  0.00  0.00    +0.000 A 
ATOM     31 CL   UNL     1      -3.931  12.365  19.718  0.00  0.00    +0.000 Cl
ENDBRANCH  24  25
ENDBRANCH  22  24
TORSDOF 2
ENDMDL
MODEL 2
REMARK VINA RESULT:      -7.7      2.853      6.351
REMARK  Name = 
REMARK  3 active torsions:
REMARK  status: ('A' for Active; 'I' for Inactive)
REMARK    1  A    between atoms: C_1  and  N_2
REMARK    2  A    between atoms: N_22  and  C_23
REMARK    3  A    between atoms: C_23  and  C_24
REMARK                            x       y       z     vdW  Elec       q    Type
REMARK                         _______ _______ _______ _____ _____    ______ ____
ROOT
ATOM      1  C   UNL     1       1.370  16.534  19.091  0.00  0.00    +0.000 C 
ATOM      2  N   UNL     1       1.656  15.129  18.902  0.00  0.00    +0.000 N 
ATOM      3  C   UNL     1       2.961  14.736  18.594  0.00  0.00    +0.000 A 
ATOM      4  O   UNL     1       3.914  15.509  18.496  0.00  0.00    +0.000 OA
ATOM      5  N   UNL     1       3.175  13.395  18.362  0.00  0.00    +0.000 N 
ATOM      6  C   UNL     1       2.195  12.444  18.176  0.00  0.00    +0.000 A 
ATOM      7  O   UNL     1       2.428  11.380  17.617  0.00  0.00    +0.000 OA
ATOM      8  C   UNL     1       0.930  12.863  18.655  0.00  0.00    +0.000 A 
ATOM      9  C   UNL     1       0.671  14.161  18.999  0.00  0.00    +0.000 A 
ATOM     10  N   UNL     1      -0.624  14.311  19.402  0.00  0.00    +0.000 NA
ATOM     11  C   UNL     1      -1.179  13.103  19.357  0.00  0.00    +0.000 A 
ATOM     12  N   UNL     1      -2.459  12.768  19.762  0.00  0.00    +0.000 N 
ATOM     13  C   UNL     1      -3.153  13.821  20.526  0.00  0.00    +0.000 C 
ATOM     14  C   UNL     1      -4.585  13.505  20.983  0.00  0.00    +0.000 C 
ATOM     15  C   UNL     1      -5.363  12.520  20.165  0.00  0.00    +0.000 A 
ATOM     16  C   UNL     1      -6.718  12.279  20.452  0.00  0.00    +0.000 A 
ATOM     17  C   UNL     1      -7.442  11.315  19.750  0.00  0.00    +0.000 A 
ATOM     18  C   UNL     1      -6.818  10.574  18.755  0.00  0.00    +0.000 A 
ATOM     19  C   UNL     1      -5.474  10.812  18.463  0.00  0.00    +0.000 A 
ATOM     20  C   UNL     1      -4.732  11.783  19.168  0.00  0.00    +0.000 A 
ATOM     21  C   UNL     1      -3.274  11.971  18.829  0.00  0.00    +0.000 C 
ATOM     22  N   UNL     1      -0.232  12.175  18.919  0.00  0.00    +0.000 N 
ATOM     23  H   UNL     1       4.103  13.153  18.054  0.00  0.00    +0.000 HD
ENDROOT
BRANCH  22  24
ATOM     24  C   UNL     1      -0.291  10.717  19.027  0.00  0.00    +0.000 C 
BRANCH  24  25
ATOM     25  C   UNL     1      -0.012  10.175  20.415  0.00  0.00    +0.000 A 
ATOM     26  C   UNL     1      -0.693  10.659  21.546  0.00  0.00    +0.000 A 
ATOM     27  C   UNL     1      -0.371  10.211  22.830  0.00  0.00    +0.000 A 
ATOM     28  C   UNL     1       0.626   9.258  23.008  0.00  0.00    +0.000 A 
ATOM     29  C   UNL     1       1.275   8.722  21.900  0.00  0.00    +0.000 A 
ATOM     30  C   UNL     1       0.946   9.159  20.613  0.00  0.00    +0.000 A 
ATOM     31 CL   UNL     1       1.801   8.433  19.296  0.00  0.00    +0.000 Cl
ENDBRANCH  24  25
ENDBRANCH  22  24
TORSDOF 2
ENDMDL
MODEL 3
REMARK VINA RESULT:      -7.6      4.714      8.355
REMARK  Name = 
REMARK  3 active torsions:
REMARK  status: ('A' for Active; 'I' for Inactive)
REMARK    1  A    between atoms: C_1  and  N_2
REMARK    2  A    between atoms: N_22  and  C_23
REMARK    3  A    between atoms: C_23  and  C_24
REMARK                            x       y       z     vdW  Elec       q    Type
REMARK                         _______ _______ _______ _____ _____    ______ ____
ROOT
ATOM      1  C   UNL     1       7.121   7.318  17.140  0.00  0.00    +0.000 C 
ATOM      2  N   UNL     1       6.142   6.262  17.278  0.00  0.00    +0.000 N 
ATOM      3  C   UNL     1       6.556   4.933  17.167  0.00  0.00    +0.000 A 
ATOM      4  O   UNL     1       7.721   4.581  16.984  0.00  0.00    +0.000 OA
ATOM      5  N   UNL     1       5.581   3.963  17.244  0.00  0.00    +0.000 N 
ATOM      6  C   UNL     1       4.221   4.182  17.187  0.00  0.00    +0.000 A 
ATOM      7  O   UNL     1       3.436   3.291  16.887  0.00  0.00    +0.000 OA
ATOM      8  C   UNL     1       3.874   5.527  17.462  0.00  0.00    +0.000 A 
ATOM      9  C   UNL     1       4.803   6.531  17.499  0.00  0.00    +0.000 A 
ATOM     10  N   UNL     1       4.213   7.734  17.755  0.00  0.00    +0.000 NA
ATOM     11  C   UNL     1       2.915   7.494  17.925  0.00  0.00    +0.000 A 
ATOM     12  N   UNL     1       1.946   8.413  18.287  0.00  0.00    +0.000 N 
ATOM     13  C   UNL     1       2.477   9.708  18.751  0.00  0.00    +0.000 C 
ATOM     14  C   UNL     1       1.441  10.770  19.148  0.00  0.00    +0.000 C 
ATOM     15  C   UNL     1       0.093  10.688  18.499  0.00  0.00    +0.000 A 
ATOM     16  C   UNL     1      -0.859  11.699  18.720  0.00  0.00    +0.000 A 
ATOM     17  C   UNL     1      -2.144  11.607  18.184  0.00  0.00    +0.000 A 
ATOM     18  C   UNL     1      -2.495  10.500  17.423  0.00  0.00    +0.000 A 
ATOM     19  C   UNL     1      -1.552   9.496  17.196  0.00  0.00    +0.000 A 
ATOM     20  C   UNL     1      -0.251   9.578  17.735  0.00  0.00    +0.000 A 
ATOM     21  C   UNL     1       0.713   8.445  17.483  0.00  0.00    +0.000 C 
ATOM     22  N   UNL     1       2.674   6.127  17.772  0.00  0.00    +0.000 N 
ATOM     23  H   UNL     1       5.893   3.022  17.071  0.00  0.00    +0.000 HD
ENDROOT
BRANCH  22  24
ATOM     24  C   UNL     1       1.488   5.375  18.183  0.00  0.00    +0.000 C 
BRANCH  24  25
ATOM     25  C   UNL     1       1.645   4.607  19.480  0.00  0.00    +0.000 A 
ATOM     26  C   UNL     1       2.218   5.195  20.621  0.00  0.00    +0.000 A 
ATOM     27  C   UNL     1       2.433   4.454  21.786  0.00  0.00    +0.000 A 
ATOM     28  C   UNL     1       2.065   3.114  21.840  0.00  0.00    +0.000 A 
ATOM     29  C   UNL     1       1.443   2.524  20.743  0.00  0.00    +0.000 A 
ATOM     30  C   UNL     1       1.215   3.267  19.581  0.00  0.00    +0.000 A 
ATOM     31 CL   UNL     1       0.433   2.452  18.270  0.00  0.00    +0.000 Cl
ENDBRANCH  24  25
ENDBRANCH  22  24
TORSDOF 2
ENDMDL
MODEL 4
REMARK VINA RESULT:      -7.4      1.029      1.361
REMARK  Name = 
REMARK  3 active torsions:
REMARK  status: ('A' for Active; 'I' for Inactive)
REMARK    1  A    between atoms: C_1  and  N_2
REMARK    2  A    between atoms: N_22  and  C_23
REMARK    3  A    between atoms: C_23  and  C_24
REMARK                            x       y       z     vdW  Elec       q    Type
REMARK                         _______ _______ _______ _____ _____    ______ ____
ROOT
ATOM      1  C   UNL     1       2.735  15.063  18.161  0.00  0.00    +0.000 C 
ATOM      2  N   UNL     1       1.422  14.690  18.639  0.00  0.00    +0.000 N 
ATOM      3  C   UNL     1       0.478  15.689  18.885  0.00  0.00    +0.000 A 
ATOM      4  O   UNL     1       0.673  16.890  18.696  0.00  0.00    +0.000 OA
ATOM      5  N   UNL     1      -0.737  15.294  19.398  0.00  0.00    +0.000 N 
ATOM      6  C   UNL     1      -1.029  14.046  19.907  0.00  0.00    +0.000 A 
ATOM      7  O   UNL     1      -1.969  13.864  20.669  0.00  0.00    +0.000 OA
ATOM      8  C   UNL     1      -0.108  13.057  19.484  0.00  0.00    +0.000 A 
ATOM      9  C   UNL     1       1.078  13.370  18.879  0.00  0.00    +0.000 A 
ATOM     10  N   UNL     1       1.795  12.245  18.597  0.00  0.00    +0.000 NA
ATOM     11  C   UNL     1       1.051  11.212  18.981  0.00  0.00    +0.000 A 
ATOM     12  N   UNL     1       1.348   9.871  18.809  0.00  0.00    +0.000 N 
ATOM     13  C   UNL     1       2.480   9.609  17.901  0.00  0.00    +0.000 C 
ATOM     14  C   UNL     1       2.862   8.137  17.690  0.00  0.00    +0.000 C 
ATOM     15  C   UNL     1       2.534   7.179  18.795  0.00  0.00    +0.000 A 
ATOM     16  C   UNL     1       2.967   5.843  18.722  0.00  0.00    +0.000 A 
ATOM     17  C   UNL     1       2.612   4.917  19.704  0.00  0.00    +0.000 A 
ATOM     18  C   UNL     1       1.816   5.315  20.769  0.00  0.00    +0.000 A 
ATOM     19  C   UNL     1       1.387   6.641  20.849  0.00  0.00    +0.000 A 
ATOM     20  C   UNL     1       1.738   7.584  19.861  0.00  0.00    +0.000 A 
ATOM     21  C   UNL     1       1.217   8.994  19.984  0.00  0.00    +0.000 C 
ATOM     22  N   UNL     1      -0.150  11.681  19.517  0.00  0.00    +0.000 N 
ATOM     23  H   UNL     1      -1.364  16.040  19.650  0.00  0.00    +0.000 HD
ENDROOT
BRANCH  22  24
ATOM     24  C   UNL     1      -1.379  10.924  19.758  0.00  0.00    +0.000 C 
BRANCH  24  25
ATOM     25  C   UNL     1      -2.417  11.040  18.660  0.00  0.00    +0.000 A 
ATOM     26  C   UNL     1      -3.561  11.845  18.808  0.00  0.00    +0.000 A 
ATOM     27  C   UNL     1      -4.552  11.880  17.824  0.00  0.00    +0.000 A 
ATOM     28  C   UNL     1      -4.413  11.125  16.664  0.00  0.00    +0.000 A 
ATOM     29  C   UNL     1      -3.263  10.365  16.469  0.00  0.00    +0.000 A 
ATOM     30  C   UNL     1      -2.264  10.338  17.446  0.00  0.00    +0.000 A 
ATOM     31 CL   UNL     1      -0.870   9.369  17.115  0.00  0.00    +0.000 Cl
ENDBRANCH  24  25
ENDBRANCH  22  24
TORSDOF 2
ENDMDL
MODEL 5
REMARK VINA RESULT:      -7.2      4.528      8.222
REMARK  Name = 
REMARK  3 active torsions:
REMARK  status: ('A' for Active; 'I' for Inactive)
REMARK    1  A    between atoms: C_1  and  N_2
REMARK    2  A    between atoms: N_22  and  C_23
REMARK    3  A    between atoms: C_23  and  C_24
REMARK                            x       y       z     vdW  Elec       q    Type
REMARK                         _______ _______ _______ _____ _____    ______ ____
ROOT
ATOM      1  C   UNL     1       7.142   7.375  17.363  0.00  0.00    +0.000 C 
ATOM      2  N   UNL     1       6.155   6.319  17.367  0.00  0.00    +0.000 N 
ATOM      3  C   UNL     1       6.570   4.999  17.176  0.00  0.00    +0.000 A 
ATOM      4  O   UNL     1       7.743   4.654  17.029  0.00  0.00    +0.000 OA
ATOM      5  N   UNL     1       5.590   4.033  17.126  0.00  0.00    +0.000 N 
ATOM      6  C   UNL     1       4.235   4.265  17.013  0.00  0.00    +0.000 A 
ATOM      7  O   UNL     1       3.466   3.405  16.605  0.00  0.00    +0.000 OA
ATOM      8  C   UNL     1       3.877   5.587  17.372  0.00  0.00    +0.000 A 
ATOM      9  C   UNL     1       4.806   6.578  17.536  0.00  0.00    +0.000 A 
ATOM     10  N   UNL     1       4.206   7.762  17.852  0.00  0.00    +0.000 NA
ATOM     11  C   UNL     1       2.901   7.518  17.933  0.00  0.00    +0.000 A 
ATOM     12  N   UNL     1       1.916   8.413  18.313  0.00  0.00    +0.000 N 
ATOM     13  C   UNL     1       2.424   9.665  18.902  0.00  0.00    +0.000 C 
ATOM     14  C   UNL     1       1.371  10.701  19.324  0.00  0.00    +0.000 C 
ATOM     15  C   UNL     1       0.060  10.678  18.599  0.00  0.00    +0.000 A 
ATOM     16  C   UNL     1      -0.901  11.675  18.847  0.00  0.00    +0.000 A 
ATOM     17  C   UNL     1      -2.155  11.634  18.237  0.00  0.00    +0.000 A 
ATOM     18  C   UNL     1      -2.467  10.591  17.375  0.00  0.00    +0.000 A 
ATOM     19  C   UNL     1      -1.516   9.600  17.123  0.00  0.00    +0.000 A 
ATOM     20  C   UNL     1      -0.246   9.632  17.735  0.00  0.00    +0.000 A 
ATOM     21  C   UNL     1       0.728   8.516  17.448  0.00  0.00    +0.000 C 
ATOM     22  N   UNL     1       2.665   6.169  17.663  0.00  0.00    +0.000 N 
ATOM     23  H   UNL     1       5.908   3.105  16.898  0.00  0.00    +0.000 HD
ENDROOT
BRANCH  22  24
ATOM     24  C   UNL     1       1.456   5.396  17.951  0.00  0.00    +0.000 C 
BRANCH  24  25
ATOM     25  C   UNL     1       1.597   4.402  19.087  0.00  0.00    +0.000 A 
ATOM     26  C   UNL     1       1.623   3.016  18.854  0.00  0.00    +0.000 A 
ATOM     27  C   UNL     1       1.671   2.106  19.914  0.00  0.00    +0.000 A 
ATOM     28  C   UNL     1       1.710   2.564  21.226  0.00  0.00    +0.000 A 
ATOM     29  C   UNL     1       1.743   3.932  21.480  0.00  0.00    +0.000 A 
ATOM     30  C   UNL     1       1.709   4.844  20.421  0.00  0.00    +0.000 A 
ATOM     31 CL   UNL     1       1.758   6.524  20.832  0.00  0.00    +0.000 Cl
ENDBRANCH  24  25
ENDBRANCH  22  24
TORSDOF 2
ENDMDL
MODEL 6
REMARK VINA RESULT:      -7.2      3.813      7.126
REMARK  Name = 
REMARK  3 active torsions:
REMARK  status: ('A' for Active; 'I' for Inactive)
REMARK    1  A    between atoms: C_1  and  N_2
REMARK    2  A    between atoms: N_22  and  C_23
REMARK    3  A    between atoms: C_23  and  C_24
REMARK                            x       y       z     vdW  Elec       q    Type
REMARK                         _______ _______ _______ _____ _____    ______ ____
ROOT
ATOM      1  C   UNL     1      -4.192  15.445  23.833  0.00  0.00    +0.000 C 
ATOM      2  N   UNL     1      -3.573  14.195  23.451  0.00  0.00    +0.000 N 
ATOM      3  C   UNL     1      -3.934  13.025  24.123  0.00  0.00    +0.000 A 
ATOM      4  O   UNL     1      -4.778  12.970  25.018  0.00  0.00    +0.000 OA
ATOM      5  N   UNL     1      -3.276  11.868  23.768  0.00  0.00    +0.000 N 
ATOM      6  C   UNL     1      -2.142  11.794  22.987  0.00  0.00    +0.000 A 
ATOM      7  O   UNL     1      -1.404  10.818  23.014  0.00  0.00    +0.000 OA
ATOM      8  C   UNL     1      -1.931  12.966  22.220  0.00  0.00    +0.000 A 
ATOM      9  C   UNL     1      -2.619  14.125  22.451  0.00  0.00    +0.000 A 
ATOM     10  N   UNL     1      -2.214  15.111  21.599  0.00  0.00    +0.000 NA
ATOM     11  C   UNL     1      -1.301  14.571  20.797  0.00  0.00    +0.000 A 
ATOM     12  N   UNL     1      -0.678  15.184  19.724  0.00  0.00    +0.000 N 
ATOM     13  C   UNL     1      -1.284  16.466  19.319  0.00  0.00    +0.000 C 
ATOM     14  C   UNL     1      -0.619  17.196  18.143  0.00  0.00    +0.000 C 
ATOM     15  C   UNL     1       0.838  16.935  17.910  0.00  0.00    +0.000 A 
ATOM     16  C   UNL     1       1.539  17.663  16.932  0.00  0.00    +0.000 A 
ATOM     17  C   UNL     1       2.877  17.387  16.650  0.00  0.00    +0.000 A 
ATOM     18  C   UNL     1       3.531  16.375  17.340  0.00  0.00    +0.000 A 
ATOM     19  C   UNL     1       2.842  15.652  18.314  0.00  0.00    +0.000 A 
ATOM     20  C   UNL     1       1.489  15.921  18.606  0.00  0.00    +0.000 A 
ATOM     21  C   UNL     1       0.789  15.084  19.647  0.00  0.00    +0.000 C 
ATOM     22  N   UNL     1      -1.118  13.230  21.142  0.00  0.00    +0.000 N 
ATOM     23  H   UNL     1      -3.490  11.059  24.329  0.00  0.00    +0.000 HD
ENDROOT
BRANCH  22  24
ATOM     24  C   UNL     1      -0.475  12.181  20.349  0.00  0.00    +0.000 C 
BRANCH  24  25
ATOM     25  C   UNL     1      -1.347  11.590  19.259  0.00  0.00    +0.000 A 
ATOM     26  C   UNL     1      -2.697  11.956  19.115  0.00  0.00    +0.000 A 
ATOM     27  C   UNL     1      -3.513  11.346  18.159  0.00  0.00    +0.000 A 
ATOM     28  C   UNL     1      -2.993  10.369  17.317  0.00  0.00    +0.000 A 
ATOM     29  C   UNL     1      -1.646  10.031  17.402  0.00  0.00    +0.000 A 
ATOM     30  C   UNL     1      -0.824  10.649  18.348  0.00  0.00    +0.000 A 
ATOM     31 CL   UNL     1       0.838  10.169  18.377  0.00  0.00    +0.000 Cl
ENDBRANCH  24  25
ENDBRANCH  22  24
TORSDOF 2
ENDMDL
MODEL 7
REMARK VINA RESULT:      -7.2      3.588      6.919
REMARK  Name = 
REMARK  3 active torsions:
REMARK  status: ('A' for Active; 'I' for Inactive)
REMARK    1  A    between atoms: C_1  and  N_2
REMARK    2  A    between atoms: N_22  and  C_23
REMARK    3  A    between atoms: C_23  and  C_24
REMARK                            x       y       z     vdW  Elec       q    Type
REMARK                         _______ _______ _______ _____ _____    ______ ____
ROOT
ATOM      1  C   UNL     1       1.347  16.887  21.889  0.00  0.00    +0.000 C 
ATOM      2  N   UNL     1       1.315  15.702  21.061  0.00  0.00    +0.000 N 
ATOM      3  C   UNL     1       2.392  15.436  20.213  0.00  0.00    +0.000 A 
ATOM      4  O   UNL     1       3.403  16.134  20.134  0.00  0.00    +0.000 OA
ATOM      5  N   UNL     1       2.291  14.331  19.396  0.00  0.00    +0.000 N 
ATOM      6  C   UNL     1       1.144  13.601  19.168  0.00  0.00    +0.000 A 
ATOM      7  O   UNL     1       1.019  12.889  18.180  0.00  0.00    +0.000 OA
ATOM      8  C   UNL     1       0.156  13.814  20.160  0.00  0.00    +0.000 A 
ATOM      9  C   UNL     1       0.238  14.833  21.068  0.00  0.00    +0.000 A 
ATOM     10  N   UNL     1      -0.848  14.839  21.895  0.00  0.00    +0.000 NA
ATOM     11  C   UNL     1      -1.600  13.800  21.544  0.00  0.00    +0.000 A 
ATOM     12  N   UNL     1      -2.758  13.370  22.169  0.00  0.00    +0.000 N 
ATOM     13  C   UNL     1      -3.015  14.001  23.477  0.00  0.00    +0.000 C 
ATOM     14  C   UNL     1      -4.298  13.572  24.204  0.00  0.00    +0.000 C 
ATOM     15  C   UNL     1      -5.434  13.085  23.357  0.00  0.00    +0.000 A 
ATOM     16  C   UNL     1      -6.679  12.795  23.945  0.00  0.00    +0.000 A 
ATOM     17  C   UNL     1      -7.728  12.274  23.188  0.00  0.00    +0.000 A 
ATOM     18  C   UNL     1      -7.545  12.029  21.834  0.00  0.00    +0.000 A 
ATOM     19  C   UNL     1      -6.313  12.318  21.244  0.00  0.00    +0.000 A 
ATOM     20  C   UNL     1      -5.245  12.844  22.000  0.00  0.00    +0.000 A 
ATOM     21  C   UNL     1      -3.927  13.105  21.314  0.00  0.00    +0.000 C 
ATOM     22  N   UNL     1      -0.992  13.127  20.482  0.00  0.00    +0.000 N 
ATOM     23  H   UNL     1       3.039  14.214  18.732  0.00  0.00    +0.000 HD
ENDROOT
BRANCH  22  24
ATOM     24  C   UNL     1      -1.279  11.776  19.997  0.00  0.00    +0.000 C 
BRANCH  24  25
ATOM     25  C   UNL     1      -0.493  10.678  20.685  0.00  0.00    +0.000 A 
ATOM     26  C   UNL     1      -0.517  10.519  22.082  0.00  0.00    +0.000 A 
ATOM     27  C   UNL     1       0.275   9.556  22.714  0.00  0.00    +0.000 A 
ATOM     28  C   UNL     1       1.093   8.721  21.961  0.00  0.00    +0.000 A 
ATOM     29  C   UNL     1       1.090   8.820  20.572  0.00  0.00    +0.000 A 
ATOM     30  C   UNL     1       0.290   9.774  19.937  0.00  0.00    +0.000 A 
ATOM     31 CL   UNL     1       0.348   9.821  18.209  0.00  0.00    +0.000 Cl
ENDBRANCH  24  25
ENDBRANCH  22  24
TORSDOF 2
ENDMDL
MODEL 8
REMARK VINA RESULT:      -7.1      3.344      6.750
REMARK  Name = 
REMARK  3 active torsions:
REMARK  status: ('A' for Active; 'I' for Inactive)
REMARK    1  A    between atoms: C_1  and  N_2
REMARK    2  A    between atoms: N_22  and  C_23
REMARK    3  A    between atoms: C_23  and  C_24
REMARK                            x       y       z     vdW  Elec       q    Type
REMARK                         _______ _______ _______ _____ _____    ______ ____
ROOT
ATOM      1  C   UNL     1       2.192   5.513  21.330  0.00  0.00    +0.000 C 
ATOM      2  N   UNL     1       2.183   6.310  20.124  0.00  0.00    +0.000 N 
ATOM      3  C   UNL     1       2.709   5.771  18.948  0.00  0.00    +0.000 A 
ATOM      4  O   UNL     1       3.167   4.632  18.851  0.00  0.00    +0.000 OA
ATOM      5  N   UNL     1       2.737   6.587  17.839  0.00  0.00    +0.000 N 
ATOM      6  C   UNL     1       2.512   7.947  17.835  0.00  0.00    +0.000 A 
ATOM      7  O   UNL     1       2.906   8.663  16.923  0.00  0.00    +0.000 OA
ATOM      8  C   UNL     1       1.836   8.392  18.997  0.00  0.00    +0.000 A 
ATOM      9  C   UNL     1       1.684   7.601  20.103  0.00  0.00    +0.000 A 
ATOM     10  N   UNL     1       1.025   8.269  21.093  0.00  0.00    +0.000 NA
ATOM     11  C   UNL     1       0.717   9.468  20.606  0.00  0.00    +0.000 A 
ATOM     12  N   UNL     1      -0.029  10.448  21.236  0.00  0.00    +0.000 N 
ATOM     13  C   UNL     1      -0.729   9.995  22.453  0.00  0.00    +0.000 C 
ATOM     14  C   UNL     1      -1.557  11.051  23.200  0.00  0.00    +0.000 C 
ATOM     15  C   UNL     1      -1.137  12.481  23.051  0.00  0.00    +0.000 A 
ATOM     16  C   UNL     1      -1.771  13.485  23.805  0.00  0.00    +0.000 A 
ATOM     17  C   UNL     1      -1.445  14.830  23.631  0.00  0.00    +0.000 A 
ATOM     18  C   UNL     1      -0.484  15.190  22.695  0.00  0.00    +0.000 A 
ATOM     19  C   UNL     1       0.151  14.198  21.947  0.00  0.00    +0.000 A 
ATOM     20  C   UNL     1      -0.172  12.835  22.114  0.00  0.00    +0.000 A 
ATOM     21  C   UNL     1       0.526  11.812  21.253  0.00  0.00    +0.000 C 
ATOM     22  N   UNL     1       1.187   9.568  19.295  0.00  0.00    +0.000 N 
ATOM     23  H   UNL     1       3.203   6.205  17.032  0.00  0.00    +0.000 HD
ENDROOT
BRANCH  22  24
ATOM     24  C   UNL     1       0.804  10.550  18.279  0.00  0.00    +0.000 C 
BRANCH  24  25
ATOM     25  C   UNL     1      -0.686  10.636  18.015  0.00  0.00    +0.000 A 
ATOM     26  C   UNL     1      -1.448   9.494  17.712  0.00  0.00    +0.000 A 
ATOM     27  C   UNL     1      -2.804   9.595  17.390  0.00  0.00    +0.000 A 
ATOM     28  C   UNL     1      -3.430  10.837  17.380  0.00  0.00    +0.000 A 
ATOM     29  C   UNL     1      -2.710  11.975  17.732  0.00  0.00    +0.000 A 
ATOM     30  C   UNL     1      -1.357  11.875  18.067  0.00  0.00    +0.000 A 
ATOM     31 CL   UNL     1      -0.545  13.342  18.496  0.00  0.00    +0.000 Cl
ENDBRANCH  24  25
ENDBRANCH  22  24
TORSDOF 2
ENDMDL
MODEL 9
REMARK VINA RESULT:      -7.1      3.191      5.687
REMARK  Name = 
REMARK  3 active torsions:
REMARK  status: ('A' for Active; 'I' for Inactive)
REMARK    1  A    between atoms: C_1  and  N_2
REMARK    2  A    between atoms: N_22  and  C_23
REMARK    3  A    between atoms: C_23  and  C_24
REMARK                            x       y       z     vdW  Elec       q    Type
REMARK                         _______ _______ _______ _____ _____    ______ ____
ROOT
ATOM      1  C   UNL     1      -4.052  12.673  24.301  0.00  0.00    +0.000 C 
ATOM      2  N   UNL     1      -3.423  13.577  23.364  0.00  0.00    +0.000 N 
ATOM      3  C   UNL     1      -3.837  14.910  23.323  0.00  0.00    +0.000 A 
ATOM      4  O   UNL     1      -4.698  15.393  24.060  0.00  0.00    +0.000 OA
ATOM      5  N   UNL     1      -3.255  15.721  22.374  0.00  0.00    +0.000 N 
ATOM      6  C   UNL     1      -2.481  15.294  21.316  0.00  0.00    +0.000 A 
ATOM      7  O   UNL     1      -2.309  15.987  20.322  0.00  0.00    +0.000 OA
ATOM      8  C   UNL     1      -1.973  13.986  21.506  0.00  0.00    +0.000 A 
ATOM      9  C   UNL     1      -2.434  13.157  22.492  0.00  0.00    +0.000 A 
ATOM     10  N   UNL     1      -1.805  11.947  22.446  0.00  0.00    +0.000 NA
ATOM     11  C   UNL     1      -0.914  12.017  21.462  0.00  0.00    +0.000 A 
ATOM     12  N   UNL     1       0.008  11.046  21.112  0.00  0.00    +0.000 N 
ATOM     13  C   UNL     1       0.143   9.952  22.091  0.00  0.00    +0.000 C 
ATOM     14  C   UNL     1       1.140   8.838  21.741  0.00  0.00    +0.000 C 
ATOM     15  C   UNL     1       1.415   8.597  20.288  0.00  0.00    +0.000 A 
ATOM     16  C   UNL     1       2.219   7.513  19.892  0.00  0.00    +0.000 A 
ATOM     17  C   UNL     1       2.546   7.311  18.551  0.00  0.00    +0.000 A 
ATOM     18  C   UNL     1       2.076   8.195  17.588  0.00  0.00    +0.000 A 
ATOM     19  C   UNL     1       1.275   9.270  17.974  0.00  0.00    +0.000 A 
ATOM     20  C   UNL     1       0.940   9.484  19.328  0.00  0.00    +0.000 A 
ATOM     21  C   UNL     1       0.097  10.682  19.687  0.00  0.00    +0.000 C 
ATOM     22  N   UNL     1      -0.976  13.281  20.871  0.00  0.00    +0.000 N 
ATOM     23  H   UNL     1      -3.636  16.651  22.306  0.00  0.00    +0.000 HD
ENDROOT
BRANCH  22  24
ATOM     24  C   UNL     1       0.013  13.909  19.994  0.00  0.00    +0.000 C 
BRANCH  24  25
ATOM     25  C   UNL     1       1.311  14.291  20.678  0.00  0.00    +0.000 A 
ATOM     26  C   UNL     1       1.325  15.032  21.873  0.00  0.00    +0.000 A 
ATOM     27  C   UNL     1       2.526  15.449  22.451  0.00  0.00    +0.000 A 
ATOM     28  C   UNL     1       3.740  15.120  21.856  0.00  0.00    +0.000 A 
ATOM     29  C   UNL     1       3.754  14.339  20.704  0.00  0.00    +0.000 A 
ATOM     30  C   UNL     1       2.554  13.909  20.131  0.00  0.00    +0.000 A 
ATOM     31 CL   UNL     1       2.670  12.939  18.703  0.00  0.00    +0.000 Cl
ENDBRANCH  24  25
ENDBRANCH  22  24
TORSDOF 2
ENDMDL
