MODEL 1
REMARK VINA RESULT:      -8.8      0.000      0.000
REMARK  Name = 
REMARK  8 active torsions:
REMARK  status: ('A' for Active; 'I' for Inactive)
REMARK    1  A    between atoms: C_1  and  C_2
REMARK    2  A    between atoms: C_2  and  N_3
REMARK    3  A    between atoms: C_2  and  C_10
REMARK    4  A    between atoms: N_8  and  C_9
REMARK    5  A    between atoms: C_14  and  N_15
REMARK    6  A    between atoms: C_16  and  C_18
REMARK    7  A    between atoms: C_23  and  C_24
REMARK    8  A    between atoms: C_24  and  C_25
REMARK                            x       y       z     vdW  Elec       q    Type
REMARK                         _______ _______ _______ _____ _____    ______ ____
ROOT
ATOM      1  C   UNL     1       4.416   4.916  17.207  0.00  0.00    +0.000 A 
ATOM      2  C   UNL     1       3.732   3.703  17.045  0.00  0.00    +0.000 A 
ATOM      3  C   UNL     1       2.466   3.536  17.590  0.00  0.00    +0.000 A 
ATOM      4  C   UNL     1       1.888   4.564  18.333  0.00  0.00    +0.000 A 
ATOM      5  C   UNL     1       2.560   5.772  18.544  0.00  0.00    +0.000 A 
ATOM      6  C   UNL     1       3.805   5.959  17.935  0.00  0.00    +0.000 A 
ENDROOT
BRANCH   5   7
ATOM      7  N   UNL     1       2.067   6.792  19.389  0.00  0.00    +0.000 N 
ATOM      8  C   UNL     1       1.796   8.100  19.014  0.00  0.00    +0.000 C 
ATOM      9  O   UNL     1       2.020   8.576  17.909  0.00  0.00    +0.000 OA
ATOM     10  H   UNL     1       1.767   6.549  20.331  0.00  0.00    +0.000 HD
BRANCH   8  11
ATOM     11  C   UNL     1       1.150   8.937  20.091  0.00  0.00    +0.000 A 
ATOM     12  N   UNL     1       1.546   8.613  21.364  0.00  0.00    +0.000 NA
ATOM     13  C   UNL     1       1.012   9.336  22.373  0.00  0.00    +0.000 A 
ATOM     14  C   UNL     1       0.110  10.367  22.188  0.00  0.00    +0.000 A 
ATOM     15  C   UNL     1      -0.286  10.672  20.891  0.00  0.00    +0.000 A 
ATOM     16  C   UNL     1       0.226   9.955  19.801  0.00  0.00    +0.000 A 
BRANCH  16  17
ATOM     17  C   UNL     1      -0.239  10.324  18.415  0.00  0.00    +0.000 C 
BRANCH  17  18
ATOM     18  C   UNL     1      -1.706  10.125  18.131  0.00  0.00    +0.000 C 
ATOM     19  C   UNL     1      -2.217  10.151  16.709  0.00  0.00    +0.000 C 
ATOM     20  C   UNL     1      -2.689  11.187  17.690  0.00  0.00    +0.000 C 
ENDBRANCH  17  18
ENDBRANCH  16  17
ENDBRANCH   8  11
ENDBRANCH   5   7
BRANCH   1  22
ATOM     21  C   UNL     1       6.853   4.465  17.611  0.00  0.00    +0.000 C 
ATOM     22  C   UNL     1       5.824   5.052  16.645  0.00  0.00    +0.000 C 
BRANCH  22  23
ATOM     23  N   UNL     1       5.870   4.375  15.344  0.00  0.00    +0.000 N 
ATOM     24  C   UNL     1       6.797   4.791  14.447  0.00  0.00    +0.000 A 
ATOM     25  N   UNL     1       7.781   5.652  14.602  0.00  0.00    +0.000 NA
ATOM     26  N   UNL     1       8.440   5.784  13.402  0.00  0.00    +0.000 NA
ATOM     27  C   UNL     1       7.862   4.978  12.548  0.00  0.00    +0.000 A 
ATOM     28  N   UNL     1       6.829   4.332  13.156  0.00  0.00    +0.000 N 
ATOM     29  C   UNL     1       5.999   3.328  12.550  0.00  0.00    +0.000 C 
ATOM     30  H   UNL     1       4.943   4.177  14.982  0.00  0.00    +0.000 HD
ENDBRANCH  22  23
ENDBRANCH   1  22
TORSDOF 6
ENDMDL
MODEL 2
REMARK VINA RESULT:      -8.7      2.730      8.727
REMARK  Name = 
REMARK  8 active torsions:
REMARK  status: ('A' for Active; 'I' for Inactive)
REMARK    1  A    between atoms: C_1  and  C_2
REMARK    2  A    between atoms: C_2  and  N_3
REMARK    3  A    between atoms: C_2  and  C_10
REMARK    4  A    between atoms: N_8  and  C_9
REMARK    5  A    between atoms: C_14  and  N_15
REMARK    6  A    between atoms: C_16  and  C_18
REMARK    7  A    between atoms: C_23  and  C_24
REMARK    8  A    between atoms: C_24  and  C_25
REMARK                            x       y       z     vdW  Elec       q    Type
REMARK                         _______ _______ _______ _____ _____    ______ ____
ROOT
ATOM      1  C   UNL     1       0.295  10.522  19.951  0.00  0.00    +0.000 A 
ATOM      2  C   UNL     1      -0.318  10.210  21.173  0.00  0.00    +0.000 A 
ATOM      3  C   UNL     1       0.001   9.031  21.834  0.00  0.00    +0.000 A 
ATOM      4  C   UNL     1       0.904   8.136  21.263  0.00  0.00    +0.000 A 
ATOM      5  C   UNL     1       1.504   8.401  20.028  0.00  0.00    +0.000 A 
ATOM      6  C   UNL     1       1.231   9.621  19.401  0.00  0.00    +0.000 A 
ENDROOT
BRANCH   5   7
ATOM      7  N   UNL     1       2.329   7.472  19.355  0.00  0.00    +0.000 N 
ATOM      8  C   UNL     1       2.766   7.571  18.042  0.00  0.00    +0.000 C 
ATOM      9  O   UNL     1       2.432   8.447  17.254  0.00  0.00    +0.000 OA
ATOM     10  H   UNL     1       2.749   6.711  19.886  0.00  0.00    +0.000 HD
BRANCH   8  11
ATOM     11  C   UNL     1       3.748   6.503  17.628  0.00  0.00    +0.000 A 
ATOM     12  N   UNL     1       4.994   6.983  17.310  0.00  0.00    +0.000 NA
ATOM     13  C   UNL     1       5.924   6.074  16.943  0.00  0.00    +0.000 A 
ATOM     14  C   UNL     1       5.687   4.713  16.880  0.00  0.00    +0.000 A 
ATOM     15  C   UNL     1       4.415   4.249  17.198  0.00  0.00    +0.000 A 
ATOM     16  C   UNL     1       3.405   5.142  17.579  0.00  0.00    +0.000 A 
BRANCH  16  17
ATOM     17  C   UNL     1       2.042   4.587  17.908  0.00  0.00    +0.000 C 
BRANCH  17  18
ATOM     18  C   UNL     1       1.933   3.811  19.195  0.00  0.00    +0.000 C 
ATOM     19  C   UNL     1       0.751   2.901  19.439  0.00  0.00    +0.000 C 
ATOM     20  C   UNL     1       0.974   4.087  20.333  0.00  0.00    +0.000 C 
ENDBRANCH  17  18
ENDBRANCH  16  17
ENDBRANCH   8  11
ENDBRANCH   5   7
BRANCH   1  22
ATOM     21  C   UNL     1       1.112  12.635  18.868  0.00  0.00    +0.000 C 
ATOM     22  C   UNL     1      -0.114  11.794  19.223  0.00  0.00    +0.000 C 
BRANCH  22  23
ATOM     23  N   UNL     1      -0.867  11.417  18.021  0.00  0.00    +0.000 N 
ATOM     24  C   UNL     1      -2.219  11.487  18.074  0.00  0.00    +0.000 A 
ATOM     25  N   UNL     1      -2.993  11.973  19.021  0.00  0.00    +0.000 NA
ATOM     26  N   UNL     1      -4.305  11.794  18.649  0.00  0.00    +0.000 NA
ATOM     27  C   UNL     1      -4.302  11.228  17.468  0.00  0.00    +0.000 A 
ATOM     28  N   UNL     1      -3.020  11.019  17.064  0.00  0.00    +0.000 N 
ATOM     29  C   UNL     1      -2.621  10.471  15.797  0.00  0.00    +0.000 C 
ATOM     30  H   UNL     1      -0.470  10.605  17.559  0.00  0.00    +0.000 HD
ENDBRANCH  22  23
ENDBRANCH   1  22
TORSDOF 6
ENDMDL
MODEL 3
REMARK VINA RESULT:      -8.6      2.572      4.034
REMARK  Name = 
REMARK  8 active torsions:
REMARK  status: ('A' for Active; 'I' for Inactive)
REMARK    1  A    between atoms: C_1  and  C_2
REMARK    2  A    between atoms: C_2  and  N_3
REMARK    3  A    between atoms: C_2  and  C_10
REMARK    4  A    between atoms: N_8  and  C_9
REMARK    5  A    between atoms: C_14  and  N_15
REMARK    6  A    between atoms: C_16  and  C_18
REMARK    7  A    between atoms: C_23  and  C_24
REMARK    8  A    between atoms: C_24  and  C_25
REMARK                            x       y       z     vdW  Elec       q    Type
REMARK                         _______ _______ _______ _____ _____    ______ ____
ROOT
ATOM      1  C   UNL     1       2.653   7.057  19.306  0.00  0.00    +0.000 A 
ATOM      2  C   UNL     1       2.995   7.468  18.009  0.00  0.00    +0.000 A 
ATOM      3  C   UNL     1       2.487   8.652  17.494  0.00  0.00    +0.000 A 
ATOM      4  C   UNL     1       1.603   9.418  18.253  0.00  0.00    +0.000 A 
ATOM      5  C   UNL     1       1.213   9.017  19.534  0.00  0.00    +0.000 A 
ATOM      6  C   UNL     1       1.782   7.859  20.073  0.00  0.00    +0.000 A 
ENDROOT
BRANCH   5   7
ATOM      7  N   UNL     1       0.229   9.695  20.289  0.00  0.00    +0.000 N 
ATOM      8  C   UNL     1       0.326  10.989  20.780  0.00  0.00    +0.000 C 
ATOM      9  O   UNL     1       1.317  11.702  20.689  0.00  0.00    +0.000 OA
ATOM     10  H   UNL     1      -0.687   9.266  20.403  0.00  0.00    +0.000 HD
BRANCH   8  11
ATOM     11  C   UNL     1      -0.931  11.505  21.435  0.00  0.00    +0.000 A 
ATOM     12  N   UNL     1      -1.001  11.256  22.783  0.00  0.00    +0.000 NA
ATOM     13  C   UNL     1      -2.098  11.705  23.431  0.00  0.00    +0.000 A 
ATOM     14  C   UNL     1      -3.128  12.393  22.817  0.00  0.00    +0.000 A 
ATOM     15  C   UNL     1      -3.042  12.626  21.449  0.00  0.00    +0.000 A 
ATOM     16  C   UNL     1      -1.933  12.180  20.718  0.00  0.00    +0.000 A 
BRANCH  16  17
ATOM     17  C   UNL     1      -1.890  12.455  19.236  0.00  0.00    +0.000 C 
BRANCH  17  18
ATOM     18  C   UNL     1      -2.737  11.560  18.368  0.00  0.00    +0.000 C 
ATOM     19  C   UNL     1      -2.250  10.180  17.993  0.00  0.00    +0.000 C 
ATOM     20  C   UNL     1      -2.480  11.206  16.920  0.00  0.00    +0.000 C 
ENDBRANCH  17  18
ENDBRANCH  16  17
ENDBRANCH   8  11
ENDBRANCH   5   7
BRANCH   1  22
ATOM     21  C   UNL     1       2.054   4.896  20.435  0.00  0.00    +0.000 C 
ATOM     22  C   UNL     1       3.181   5.728  19.824  0.00  0.00    +0.000 C 
BRANCH  22  23
ATOM     23  N   UNL     1       3.821   5.018  18.710  0.00  0.00    +0.000 N 
ATOM     24  C   UNL     1       5.175   4.980  18.678  0.00  0.00    +0.000 A 
ATOM     25  N   UNL     1       6.042   5.386  19.582  0.00  0.00    +0.000 NA
ATOM     26  N   UNL     1       7.312   5.178  19.094  0.00  0.00    +0.000 NA
ATOM     27  C   UNL     1       7.191   4.624  17.914  0.00  0.00    +0.000 A 
ATOM     28  N   UNL     1       5.873   4.477  17.611  0.00  0.00    +0.000 N 
ATOM     29  C   UNL     1       5.351   3.855  16.424  0.00  0.00    +0.000 C 
ATOM     30  H   UNL     1       3.349   5.186  17.827  0.00  0.00    +0.000 HD
ENDBRANCH  22  23
ENDBRANCH   1  22
TORSDOF 6
ENDMDL
MODEL 4
REMARK VINA RESULT:      -8.6      2.647      8.783
REMARK  Name = 
REMARK  8 active torsions:
REMARK  status: ('A' for Active; 'I' for Inactive)
REMARK    1  A    between atoms: C_1  and  C_2
REMARK    2  A    between atoms: C_2  and  N_3
REMARK    3  A    between atoms: C_2  and  C_10
REMARK    4  A    between atoms: N_8  and  C_9
REMARK    5  A    between atoms: C_14  and  N_15
REMARK    6  A    between atoms: C_16  and  C_18
REMARK    7  A    between atoms: C_23  and  C_24
REMARK    8  A    between atoms: C_24  and  C_25
REMARK                            x       y       z     vdW  Elec       q    Type
REMARK                         _______ _______ _______ _____ _____    ______ ____
ROOT
ATOM      1  C   UNL     1       0.954   9.700  19.407  0.00  0.00    +0.000 A 
ATOM      2  C   UNL     1       0.612   9.142  20.647  0.00  0.00    +0.000 A 
ATOM      3  C   UNL     1       1.147   7.921  21.036  0.00  0.00    +0.000 A 
ATOM      4  C   UNL     1       1.997   7.228  20.175  0.00  0.00    +0.000 A 
ATOM      5  C   UNL     1       2.328   7.740  18.916  0.00  0.00    +0.000 A 
ATOM      6  C   UNL     1       1.840   9.002  18.559  0.00  0.00    +0.000 A 
ENDROOT
BRANCH   5   7
ATOM      7  N   UNL     1       3.085   7.020  17.964  0.00  0.00    +0.000 N 
ATOM      8  C   UNL     1       4.127   6.148  18.243  0.00  0.00    +0.000 C 
ATOM      9  O   UNL     1       4.589   5.937  19.357  0.00  0.00    +0.000 OA
ATOM     10  H   UNL     1       2.791   7.033  16.990  0.00  0.00    +0.000 HD
BRANCH   8  11
ATOM     11  C   UNL     1       4.665   5.414  17.040  0.00  0.00    +0.000 A 
ATOM     12  N   UNL     1       5.281   6.224  16.120  0.00  0.00    +0.000 NA
ATOM     13  C   UNL     1       5.796   5.624  15.024  0.00  0.00    +0.000 A 
ATOM     14  C   UNL     1       5.740   4.262  14.794  0.00  0.00    +0.000 A 
ATOM     15  C   UNL     1       5.104   3.460  15.735  0.00  0.00    +0.000 A 
ATOM     16  C   UNL     1       4.543   4.022  16.889  0.00  0.00    +0.000 A 
BRANCH  16  17
ATOM     17  C   UNL     1       3.861   3.108  17.876  0.00  0.00    +0.000 C 
BRANCH  17  18
ATOM     18  C   UNL     1       2.395   2.851  17.640  0.00  0.00    +0.000 C 
ATOM     19  C   UNL     1       1.399   3.984  17.721  0.00  0.00    +0.000 C 
ATOM     20  C   UNL     1       1.304   2.839  18.689  0.00  0.00    +0.000 C 
ENDBRANCH  17  18
ENDBRANCH  16  17
ENDBRANCH   8  11
ENDBRANCH   5   7
BRANCH   1  22
ATOM     21  C   UNL     1       1.375  12.048  18.623  0.00  0.00    +0.000 C 
ATOM     22  C   UNL     1       0.310  11.012  18.984  0.00  0.00    +0.000 C 
BRANCH  22  23
ATOM     23  N   UNL     1      -0.579  10.746  17.847  0.00  0.00    +0.000 N 
ATOM     24  C   UNL     1      -1.888  11.068  17.979  0.00  0.00    +0.000 A 
ATOM     25  N   UNL     1      -2.494  11.717  18.951  0.00  0.00    +0.000 NA
ATOM     26  N   UNL     1      -3.839  11.774  18.667  0.00  0.00    +0.000 NA
ATOM     27  C   UNL     1      -4.020  11.182  17.513  0.00  0.00    +0.000 A 
ATOM     28  N   UNL     1      -2.828  10.726  17.041  0.00  0.00    +0.000 N 
ATOM     29  C   UNL     1      -2.624  10.075  15.776  0.00  0.00    +0.000 C 
ATOM     30  H   UNL     1      -0.370   9.860  17.396  0.00  0.00    +0.000 HD
ENDBRANCH  22  23
ENDBRANCH   1  22
TORSDOF 6
ENDMDL
MODEL 5
REMARK VINA RESULT:      -8.4      2.996      8.992
REMARK  Name = 
REMARK  8 active torsions:
REMARK  status: ('A' for Active; 'I' for Inactive)
REMARK    1  A    between atoms: C_1  and  C_2
REMARK    2  A    between atoms: C_2  and  N_3
REMARK    3  A    between atoms: C_2  and  C_10
REMARK    4  A    between atoms: N_8  and  C_9
REMARK    5  A    between atoms: C_14  and  N_15
REMARK    6  A    between atoms: C_16  and  C_18
REMARK    7  A    between atoms: C_23  and  C_24
REMARK    8  A    between atoms: C_24  and  C_25
REMARK                            x       y       z     vdW  Elec       q    Type
REMARK                         _______ _______ _______ _____ _____    ______ ____
ROOT
ATOM      1  C   UNL     1       0.055  10.877  19.651  0.00  0.00    +0.000 A 
ATOM      2  C   UNL     1      -0.443  10.589  20.930  0.00  0.00    +0.000 A 
ATOM      3  C   UNL     1      -0.039   9.440  21.596  0.00  0.00    +0.000 A 
ATOM      4  C   UNL     1       0.836   8.549  20.976  0.00  0.00    +0.000 A 
ATOM      5  C   UNL     1       1.321   8.788  19.688  0.00  0.00    +0.000 A 
ATOM      6  C   UNL     1       0.964   9.981  19.050  0.00  0.00    +0.000 A 
ENDROOT
BRANCH   5   7
ATOM      7  N   UNL     1       2.110   7.857  18.974  0.00  0.00    +0.000 N 
ATOM      8  C   UNL     1       2.475   6.592  19.414  0.00  0.00    +0.000 C 
ATOM      9  O   UNL     1       2.224   6.133  20.520  0.00  0.00    +0.000 OA
ATOM     10  H   UNL     1       2.353   8.057  18.006  0.00  0.00    +0.000 HD
BRANCH   8  11
ATOM     11  C   UNL     1       3.207   5.762  18.388  0.00  0.00    +0.000 A 
ATOM     12  N   UNL     1       4.370   6.332  17.935  0.00  0.00    +0.000 NA
ATOM     13  C   UNL     1       5.079   5.631  17.023  0.00  0.00    +0.000 A 
ATOM     14  C   UNL     1       4.701   4.392  16.541  0.00  0.00    +0.000 A 
ATOM     15  C   UNL     1       3.515   3.836  17.006  0.00  0.00    +0.000 A 
ATOM     16  C   UNL     1       2.730   4.516  17.947  0.00  0.00    +0.000 A 
BRANCH  16  17
ATOM     17  C   UNL     1       1.450   3.872  18.416  0.00  0.00    +0.000 C 
BRANCH  17  18
ATOM     18  C   UNL     1       1.596   2.752  19.414  0.00  0.00    +0.000 C 
ATOM     19  C   UNL     1       1.101   2.925  20.831  0.00  0.00    +0.000 C 
ATOM     20  C   UNL     1       2.565   2.702  20.575  0.00  0.00    +0.000 C 
ENDBRANCH  17  18
ENDBRANCH  16  17
ENDBRANCH   8  11
ENDBRANCH   5   7
BRANCH   1  22
ATOM     21  C   UNL     1       0.712  13.049  18.575  0.00  0.00    +0.000 C 
ATOM     22  C   UNL     1      -0.447  12.115  18.923  0.00  0.00    +0.000 C 
BRANCH  22  23
ATOM     23  N   UNL     1      -1.162  11.683  17.716  0.00  0.00    +0.000 N 
ATOM     24  C   UNL     1      -2.514  11.605  17.775  0.00  0.00    +0.000 A 
ATOM     25  N   UNL     1      -3.330  11.985  18.736  0.00  0.00    +0.000 NA
ATOM     26  N   UNL     1      -4.618  11.673  18.365  0.00  0.00    +0.000 NA
ATOM     27  C   UNL     1      -4.561  11.135  17.172  0.00  0.00    +0.000 A 
ATOM     28  N   UNL     1      -3.265  11.073  16.759  0.00  0.00    +0.000 N 
ATOM     29  C   UNL     1      -2.817  10.597  15.480  0.00  0.00    +0.000 C 
ATOM     30  H   UNL     1      -0.683  10.928  17.236  0.00  0.00    +0.000 HD
ENDBRANCH  22  23
ENDBRANCH   1  22
TORSDOF 6
ENDMDL
MODEL 6
REMARK VINA RESULT:      -8.3      2.664      3.710
REMARK  Name = 
REMARK  8 active torsions:
REMARK  status: ('A' for Active; 'I' for Inactive)
REMARK    1  A    between atoms: C_1  and  C_2
REMARK    2  A    between atoms: C_2  and  N_3
REMARK    3  A    between atoms: C_2  and  C_10
REMARK    4  A    between atoms: N_8  and  C_9
REMARK    5  A    between atoms: C_14  and  N_15
REMARK    6  A    between atoms: C_16  and  C_18
REMARK    7  A    between atoms: C_23  and  C_24
REMARK    8  A    between atoms: C_24  and  C_25
REMARK                            x       y       z     vdW  Elec       q    Type
REMARK                         _______ _______ _______ _____ _____    ______ ____
ROOT
ATOM      1  C   UNL     1       3.183   5.167  19.009  0.00  0.00    +0.000 A 
ATOM      2  C   UNL     1       2.594   4.524  20.107  0.00  0.00    +0.000 A 
ATOM      3  C   UNL     1       1.733   5.219  20.945  0.00  0.00    +0.000 A 
ATOM      4  C   UNL     1       1.482   6.571  20.718  0.00  0.00    +0.000 A 
ATOM      5  C   UNL     1       2.083   7.251  19.654  0.00  0.00    +0.000 A 
ATOM      6  C   UNL     1       2.895   6.528  18.774  0.00  0.00    +0.000 A 
ENDROOT
BRANCH   5   7
ATOM      7  N   UNL     1       1.955   8.644  19.458  0.00  0.00    +0.000 N 
ATOM      8  C   UNL     1       1.591   9.271  18.274  0.00  0.00    +0.000 C 
ATOM      9  O   UNL     1       1.402   8.701  17.207  0.00  0.00    +0.000 OA
ATOM     10  H   UNL     1       2.018   9.263  20.264  0.00  0.00    +0.000 HD
BRANCH   8  11
ATOM     11  C   UNL     1       1.402  10.763  18.390  0.00  0.00    +0.000 A 
ATOM     12  N   UNL     1       2.552  11.488  18.206  0.00  0.00    +0.000 NA
ATOM     13  C   UNL     1       2.447  12.833  18.284  0.00  0.00    +0.000 A 
ATOM     14  C   UNL     1       1.260  13.499  18.529  0.00  0.00    +0.000 A 
ATOM     15  C   UNL     1       0.108  12.745  18.722  0.00  0.00    +0.000 A 
ATOM     16  C   UNL     1       0.152  11.346  18.660  0.00  0.00    +0.000 A 
BRANCH  16  17
ATOM     17  C   UNL     1      -1.125  10.575  18.881  0.00  0.00    +0.000 C 
BRANCH  17  18
ATOM     18  C   UNL     1      -2.018  10.408  17.678  0.00  0.00    +0.000 C 
ATOM     19  C   UNL     1      -3.306  11.190  17.571  0.00  0.00    +0.000 C 
ATOM     20  C   UNL     1      -3.349   9.690  17.638  0.00  0.00    +0.000 C 
ENDBRANCH  17  18
ENDBRANCH  16  17
ENDBRANCH   8  11
ENDBRANCH   5   7
BRANCH   1  22
ATOM     21  C   UNL     1       3.452   3.763  16.944  0.00  0.00    +0.000 C 
ATOM     22  C   UNL     1       4.165   4.396  18.139  0.00  0.00    +0.000 C 
BRANCH  22  23
ATOM     23  N   UNL     1       5.219   5.319  17.702  0.00  0.00    +0.000 N 
ATOM     24  C   UNL     1       6.290   5.488  18.516  0.00  0.00    +0.000 A 
ATOM     25  N   UNL     1       6.609   4.843  19.618  0.00  0.00    +0.000 NA
ATOM     26  N   UNL     1       7.769   5.387  20.122  0.00  0.00    +0.000 NA
ATOM     27  C   UNL     1       8.146   6.333  19.299  0.00  0.00    +0.000 A 
ATOM     28  N   UNL     1       7.254   6.433  18.276  0.00  0.00    +0.000 N 
ATOM     29  C   UNL     1       7.366   7.321  17.152  0.00  0.00    +0.000 C 
ATOM     30  H   UNL     1       4.841   6.154  17.267  0.00  0.00    +0.000 HD
ENDBRANCH  22  23
ENDBRANCH   1  22
TORSDOF 6
ENDMDL
MODEL 7
REMARK VINA RESULT:      -8.2      1.640      2.623
REMARK  Name = 
REMARK  8 active torsions:
REMARK  status: ('A' for Active; 'I' for Inactive)
REMARK    1  A    between atoms: C_1  and  C_2
REMARK    2  A    between atoms: C_2  and  N_3
REMARK    3  A    between atoms: C_2  and  C_10
REMARK    4  A    between atoms: N_8  and  C_9
REMARK    5  A    between atoms: C_14  and  N_15
REMARK    6  A    between atoms: C_16  and  C_18
REMARK    7  A    between atoms: C_23  and  C_24
REMARK    8  A    between atoms: C_24  and  C_25
REMARK                            x       y       z     vdW  Elec       q    Type
REMARK                         _______ _______ _______ _____ _____    ______ ____
ROOT
ATOM      1  C   UNL     1       4.626   5.616  17.189  0.00  0.00    +0.000 A 
ATOM      2  C   UNL     1       3.723   4.585  17.489  0.00  0.00    +0.000 A 
ATOM      3  C   UNL     1       2.462   4.883  17.987  0.00  0.00    +0.000 A 
ATOM      4  C   UNL     1       2.105   6.209  18.228  0.00  0.00    +0.000 A 
ATOM      5  C   UNL     1       2.996   7.257  17.975  0.00  0.00    +0.000 A 
ATOM      6  C   UNL     1       4.238   6.955  17.409  0.00  0.00    +0.000 A 
ENDROOT
BRANCH   5   7
ATOM      7  N   UNL     1       2.724   8.601  18.316  0.00  0.00    +0.000 N 
ATOM      8  C   UNL     1       1.591   9.319  17.959  0.00  0.00    +0.000 C 
ATOM      9  O   UNL     1       0.699   8.907  17.229  0.00  0.00    +0.000 OA
ATOM     10  H   UNL     1       3.337   9.076  18.975  0.00  0.00    +0.000 HD
BRANCH   8  11
ATOM     11  C   UNL     1       1.503  10.693  18.576  0.00  0.00    +0.000 A 
ATOM     12  N   UNL     1       2.401  11.595  18.065  0.00  0.00    +0.000 NA
ATOM     13  C   UNL     1       2.364  12.848  18.568  0.00  0.00    +0.000 A 
ATOM     14  C   UNL     1       1.479  13.258  19.548  0.00  0.00    +0.000 A 
ATOM     15  C   UNL     1       0.582  12.326  20.059  0.00  0.00    +0.000 A 
ATOM     16  C   UNL     1       0.575  11.008  19.584  0.00  0.00    +0.000 A 
BRANCH  16  17
ATOM     17  C   UNL     1      -0.414  10.036  20.175  0.00  0.00    +0.000 C 
BRANCH  17  18
ATOM     18  C   UNL     1       0.140   9.039  21.160  0.00  0.00    +0.000 C 
ATOM     19  C   UNL     1      -0.447   8.933  22.549  0.00  0.00    +0.000 C 
ATOM     20  C   UNL     1       0.986   9.351  22.376  0.00  0.00    +0.000 C 
ENDBRANCH  17  18
ENDBRANCH  16  17
ENDBRANCH   8  11
ENDBRANCH   5   7
BRANCH   1  22
ATOM     21  C   UNL     1       6.772   4.434  17.741  0.00  0.00    +0.000 C 
ATOM     22  C   UNL     1       6.020   5.257  16.696  0.00  0.00    +0.000 C 
BRANCH  22  23
ATOM     23  N   UNL     1       5.888   4.521  15.433  0.00  0.00    +0.000 N 
ATOM     24  C   UNL     1       6.757   4.816  14.435  0.00  0.00    +0.000 A 
ATOM     25  N   UNL     1       7.816   5.597  14.455  0.00  0.00    +0.000 NA
ATOM     26  N   UNL     1       8.367   5.618  13.195  0.00  0.00    +0.000 NA
ATOM     27  C   UNL     1       7.648   4.826  12.440  0.00  0.00    +0.000 A 
ATOM     28  N   UNL     1       6.629   4.298  13.172  0.00  0.00    +0.000 N 
ATOM     29  C   UNL     1       5.668   3.341  12.699  0.00  0.00    +0.000 C 
ATOM     30  H   UNL     1       4.918   4.385  15.168  0.00  0.00    +0.000 HD
ENDBRANCH  22  23
ENDBRANCH   1  22
TORSDOF 6
ENDMDL
MODEL 8
REMARK VINA RESULT:      -8.2      3.724      9.962
REMARK  Name = 
REMARK  8 active torsions:
REMARK  status: ('A' for Active; 'I' for Inactive)
REMARK    1  A    between atoms: C_1  and  C_2
REMARK    2  A    between atoms: C_2  and  N_3
REMARK    3  A    between atoms: C_2  and  C_10
REMARK    4  A    between atoms: N_8  and  C_9
REMARK    5  A    between atoms: C_14  and  N_15
REMARK    6  A    between atoms: C_16  and  C_18
REMARK    7  A    between atoms: C_23  and  C_24
REMARK    8  A    between atoms: C_24  and  C_25
REMARK                            x       y       z     vdW  Elec       q    Type
REMARK                         _______ _______ _______ _____ _____    ______ ____
ROOT
ATOM      1  C   UNL     1      -1.319  10.731  18.365  0.00  0.00    +0.000 A 
ATOM      2  C   UNL     1      -1.154  11.338  19.618  0.00  0.00    +0.000 A 
ATOM      3  C   UNL     1       0.011  11.135  20.345  0.00  0.00    +0.000 A 
ATOM      4  C   UNL     1       1.004  10.294  19.847  0.00  0.00    +0.000 A 
ATOM      5  C   UNL     1       0.854   9.644  18.618  0.00  0.00    +0.000 A 
ATOM      6  C   UNL     1      -0.291   9.907  17.859  0.00  0.00    +0.000 A 
ENDROOT
BRANCH   5   7
ATOM      7  N   UNL     1       1.776   8.691  18.130  0.00  0.00    +0.000 N 
ATOM      8  C   UNL     1       2.304   7.626  18.847  0.00  0.00    +0.000 C 
ATOM      9  O   UNL     1       2.099   7.408  20.034  0.00  0.00    +0.000 OA
ATOM     10  H   UNL     1       2.006   8.690  17.138  0.00  0.00    +0.000 HD
BRANCH   8  11
ATOM     11  C   UNL     1       3.162   6.689  18.033  0.00  0.00    +0.000 A 
ATOM     12  N   UNL     1       4.200   7.306  17.382  0.00  0.00    +0.000 NA
ATOM     13  C   UNL     1       5.014   6.518  16.645  0.00  0.00    +0.000 A 
ATOM     14  C   UNL     1       4.857   5.149  16.524  0.00  0.00    +0.000 A 
ATOM     15  C   UNL     1       3.794   4.546  17.186  0.00  0.00    +0.000 A 
ATOM     16  C   UNL     1       2.910   5.309  17.960  0.00  0.00    +0.000 A 
BRANCH  16  17
ATOM     17  C   UNL     1       1.770   4.606  18.653  0.00  0.00    +0.000 C 
BRANCH  17  18
ATOM     18  C   UNL     1       2.143   3.708  19.805  0.00  0.00    +0.000 C 
ATOM     19  C   UNL     1       1.069   3.089  20.668  0.00  0.00    +0.000 C 
ATOM     20  C   UNL     1       2.053   4.048  21.276  0.00  0.00    +0.000 C 
ENDBRANCH  17  18
ENDBRANCH  16  17
ENDBRANCH   8  11
ENDBRANCH   5   7
BRANCH   1  22
ATOM     21  C   UNL     1      -2.966   9.694  16.778  0.00  0.00    +0.000 C 
ATOM     22  C   UNL     1      -2.628  10.928  17.615  0.00  0.00    +0.000 C 
BRANCH  22  23
ATOM     23  N   UNL     1      -3.684  11.211  18.594  0.00  0.00    +0.000 N 
ATOM     24  C   UNL     1      -4.801  11.841  18.155  0.00  0.00    +0.000 A 
ATOM     25  N   UNL     1      -5.160  12.142  16.925  0.00  0.00    +0.000 NA
ATOM     26  N   UNL     1      -6.361  12.813  16.972  0.00  0.00    +0.000 NA
ATOM     27  C   UNL     1      -6.721  12.882  18.228  0.00  0.00    +0.000 A 
ATOM     28  N   UNL     1      -5.779  12.285  19.008  0.00  0.00    +0.000 N 
ATOM     29  C   UNL     1      -5.856  12.116  20.433  0.00  0.00    +0.000 C 
ATOM     30  H   UNL     1      -3.308  11.519  19.485  0.00  0.00    +0.000 HD
ENDBRANCH  22  23
ENDBRANCH   1  22
TORSDOF 6
ENDMDL
MODEL 9
REMARK VINA RESULT:      -8.1      2.785      8.604
REMARK  Name = 
REMARK  8 active torsions:
REMARK  status: ('A' for Active; 'I' for Inactive)
REMARK    1  A    between atoms: C_1  and  C_2
REMARK    2  A    between atoms: C_2  and  N_3
REMARK    3  A    between atoms: C_2  and  C_10
REMARK    4  A    between atoms: N_8  and  C_9
REMARK    5  A    between atoms: C_14  and  N_15
REMARK    6  A    between atoms: C_16  and  C_18
REMARK    7  A    between atoms: C_23  and  C_24
REMARK    8  A    between atoms: C_24  and  C_25
REMARK                            x       y       z     vdW  Elec       q    Type
REMARK                         _______ _______ _______ _____ _____    ______ ____
ROOT
ATOM      1  C   UNL     1       0.707   9.866  19.380  0.00  0.00    +0.000 A 
ATOM      2  C   UNL     1       0.401   9.371  20.656  0.00  0.00    +0.000 A 
ATOM      3  C   UNL     1       0.981   8.193  21.107  0.00  0.00    +0.000 A 
ATOM      4  C   UNL     1       1.842   7.478  20.274  0.00  0.00    +0.000 A 
ATOM      5  C   UNL     1       2.138   7.926  18.984  0.00  0.00    +0.000 A 
ATOM      6  C   UNL     1       1.605   9.148  18.561  0.00  0.00    +0.000 A 
ENDROOT
BRANCH   5   7
ATOM      7  N   UNL     1       2.906   7.176  18.064  0.00  0.00    +0.000 N 
ATOM      8  C   UNL     1       3.868   6.229  18.386  0.00  0.00    +0.000 C 
ATOM      9  O   UNL     1       4.241   5.965  19.521  0.00  0.00    +0.000 OA
ATOM     10  H   UNL     1       2.677   7.229  17.073  0.00  0.00    +0.000 HD
BRANCH   8  11
ATOM     11  C   UNL     1       4.433   5.485  17.201  0.00  0.00    +0.000 A 
ATOM     12  N   UNL     1       5.117   6.280  16.316  0.00  0.00    +0.000 NA
ATOM     13  C   UNL     1       5.659   5.671  15.239  0.00  0.00    +0.000 A 
ATOM     14  C   UNL     1       5.565   4.313  14.994  0.00  0.00    +0.000 A 
ATOM     15  C   UNL     1       4.859   3.527  15.899  0.00  0.00    +0.000 A 
ATOM     16  C   UNL     1       4.267   4.100  17.032  0.00  0.00    +0.000 A 
BRANCH  16  17
ATOM     17  C   UNL     1       3.509   3.204  17.978  0.00  0.00    +0.000 C 
BRANCH  17  18
ATOM     18  C   UNL     1       2.007   3.327  17.952  0.00  0.00    +0.000 C 
ATOM     19  C   UNL     1       1.262   3.829  19.167  0.00  0.00    +0.000 C 
ATOM     20  C   UNL     1       1.019   2.433  18.669  0.00  0.00    +0.000 C 
ENDBRANCH  17  18
ENDBRANCH  16  17
ENDBRANCH   8  11
ENDBRANCH   5   7
BRANCH   1  22
ATOM     21  C   UNL     1      -1.504  10.967  18.931  0.00  0.00    +0.000 C 
ATOM     22  C   UNL     1       0.015  11.130  18.892  0.00  0.00    +0.000 C 
BRANCH  22  23
ATOM     23  N   UNL     1       0.452  12.251  19.732  0.00  0.00    +0.000 N 
ATOM     24  C   UNL     1       1.555  12.938  19.347  0.00  0.00    +0.000 A 
ATOM     25  N   UNL     1       2.254  12.839  18.236  0.00  0.00    +0.000 NA
ATOM     26  N   UNL     1       3.312  13.716  18.305  0.00  0.00    +0.000 NA
ATOM     27  C   UNL     1       3.218  14.351  19.446  0.00  0.00    +0.000 A 
ATOM     28  N   UNL     1       2.133  13.901  20.133  0.00  0.00    +0.000 N 
ATOM     29  C   UNL     1       1.677  14.404  21.400  0.00  0.00    +0.000 C 
ATOM     30  H   UNL     1       0.367  12.043  20.722  0.00  0.00    +0.000 HD
ENDBRANCH  22  23
ENDBRANCH   1  22
TORSDOF 6
ENDMDL
