MODEL 1
REMARK VINA RESULT:      -8.7      0.000      0.000
REMARK  Name = 
REMARK  6 active torsions:
REMARK  status: ('A' for Active; 'I' for Inactive)
REMARK    1  A    between atoms: C_1  and  C_2
REMARK    2  A    between atoms: C_4  and  C_5
REMARK    3  A    between atoms: C_9  and  N_10
REMARK    4  A    between atoms: C_11  and  C_13
REMARK    5  A    between atoms: C_15  and  C_16
REMARK    6  A    between atoms: N_19  and  C_20
REMARK                            x       y       z     vdW  Elec       q    Type
REMARK                         _______ _______ _______ _____ _____    ______ ____
ROOT
ATOM      1  N   UNL     1       4.307   6.826  18.568  0.00  0.00    +0.000 N 
ATOM      2  C   UNL     1       3.048   6.394  18.967  0.00  0.00    +0.000 C 
ATOM      3  O   UNL     1       2.628   5.243  18.932  0.00  0.00    +0.000 OA
ATOM      4  H   UNL     1       4.489   7.810  18.748  0.00  0.00    +0.000 HD
ENDROOT
BRANCH   1   9
ATOM      5  C   UNL     1       6.483   4.961  16.190  0.00  0.00    +0.000 A 
ATOM      6  C   UNL     1       7.518   4.554  17.044  0.00  0.00    +0.000 A 
ATOM      7  C   UNL     1       7.470   4.848  18.402  0.00  0.00    +0.000 A 
ATOM      8  C   UNL     1       6.400   5.574  18.921  0.00  0.00    +0.000 A 
ATOM      9  C   UNL     1       5.363   6.017  18.093  0.00  0.00    +0.000 A 
ATOM     10  C   UNL     1       5.392   5.672  16.730  0.00  0.00    +0.000 A 
BRANCH   5  14
ATOM     11  C   UNL     1       5.829   2.913  11.761  0.00  0.00    +0.000 C 
ATOM     12  C   UNL     1       6.248   3.730  12.914  0.00  0.00    +0.000 A 
ATOM     13  N   UNL     1       5.807   3.721  14.148  0.00  0.00    +0.000 NA
ATOM     14  C   UNL     1       6.597   4.675  14.762  0.00  0.00    +0.000 A 
ATOM     15  N   UNL     1       7.481   5.259  13.933  0.00  0.00    +0.000 NA
ATOM     16  O   UNL     1       7.252   4.633  12.710  0.00  0.00    +0.000 OA
ENDBRANCH   5  14
ENDBRANCH   1   9
BRANCH   2  17
ATOM     17  C   UNL     1       2.198   7.471  19.500  0.00  0.00    +0.000 A 
ATOM     18  C   UNL     1       1.647   7.535  20.797  0.00  0.00    +0.000 A 
ATOM     19  C   UNL     1       0.951   8.731  20.873  0.00  0.00    +0.000 A 
ATOM     20  N   UNL     1       1.080   9.312  19.616  0.00  0.00    +0.000 N 
ATOM     21  N   UNL     1       1.886   8.565  18.796  0.00  0.00    +0.000 NA
BRANCH  20  22
ATOM     22  C   UNL     1       0.474  10.475  19.053  0.00  0.00    +0.000 A 
ATOM     23  C   UNL     1      -0.853  10.378  18.596  0.00  0.00    +0.000 A 
ATOM     24  C   UNL     1      -1.515  11.494  18.089  0.00  0.00    +0.000 A 
ATOM     25  C   UNL     1      -0.866  12.724  18.046  0.00  0.00    +0.000 A 
ATOM     26  C   UNL     1       0.448  12.833  18.497  0.00  0.00    +0.000 A 
ATOM     27  C   UNL     1       1.123  11.713  18.999  0.00  0.00    +0.000 A 
ENDBRANCH  20  22
BRANCH  19  28
ATOM     28  C   UNL     1       0.334   9.310  22.038  0.00  0.00    +0.000 C 
ATOM     29  N   UNL     1      -0.715   8.605  22.560  0.00  0.00    +0.000 N 
ATOM     30  O   UNL     1       0.683  10.347  22.587  0.00  0.00    +0.000 OA
ATOM     31  H   UNL     1      -1.099   7.773  22.137  0.00  0.00    +0.000 HD
ATOM     32  H   UNL     1      -1.169   8.990  23.376  0.00  0.00    +0.000 HD
ENDBRANCH  19  28
ENDBRANCH   2  17
TORSDOF 5
ENDMDL
MODEL 2
REMARK VINA RESULT:      -8.7      2.869      8.796
REMARK  Name = 
REMARK  6 active torsions:
REMARK  status: ('A' for Active; 'I' for Inactive)
REMARK    1  A    between atoms: C_1  and  C_2
REMARK    2  A    between atoms: C_4  and  C_5
REMARK    3  A    between atoms: C_9  and  N_10
REMARK    4  A    between atoms: C_11  and  C_13
REMARK    5  A    between atoms: C_15  and  C_16
REMARK    6  A    between atoms: N_19  and  C_20
REMARK                            x       y       z     vdW  Elec       q    Type
REMARK                         _______ _______ _______ _____ _____    ______ ____
ROOT
ATOM      1  N   UNL     1       1.727   8.269  18.913  0.00  0.00    +0.000 N 
ATOM      2  C   UNL     1       1.906   7.342  19.932  0.00  0.00    +0.000 C 
ATOM      3  O   UNL     1       1.442   7.406  21.065  0.00  0.00    +0.000 OA
ATOM      4  H   UNL     1       2.133   7.994  18.022  0.00  0.00    +0.000 HD
ENDROOT
BRANCH   1   9
ATOM      5  C   UNL     1      -0.996  10.685  18.128  0.00  0.00    +0.000 A 
ATOM      6  C   UNL     1      -0.784  11.651  19.122  0.00  0.00    +0.000 A 
ATOM      7  C   UNL     1       0.280  11.532  20.009  0.00  0.00    +0.000 A 
ATOM      8  C   UNL     1       1.132  10.433  19.931  0.00  0.00    +0.000 A 
ATOM      9  C   UNL     1       0.935   9.437  18.968  0.00  0.00    +0.000 A 
ATOM     10  C   UNL     1      -0.111   9.591  18.042  0.00  0.00    +0.000 A 
BRANCH   5  14
ATOM     11  C   UNL     1      -4.027  10.232  14.276  0.00  0.00    +0.000 C 
ATOM     12  C   UNL     1      -3.376  10.568  15.554  0.00  0.00    +0.000 A 
ATOM     13  N   UNL     1      -2.244  10.135  16.054  0.00  0.00    +0.000 NA
ATOM     14  C   UNL     1      -2.155  10.823  17.249  0.00  0.00    +0.000 A 
ATOM     15  N   UNL     1      -3.199  11.638  17.483  0.00  0.00    +0.000 NA
ATOM     16  O   UNL     1      -4.007  11.471  16.361  0.00  0.00    +0.000 OA
ENDBRANCH   5  14
ENDBRANCH   1   9
BRANCH   2  17
ATOM     17  C   UNL     1       2.720   6.181  19.536  0.00  0.00    +0.000 A 
ATOM     18  C   UNL     1       2.708   4.908  20.143  0.00  0.00    +0.000 A 
ATOM     19  C   UNL     1       3.597   4.120  19.429  0.00  0.00    +0.000 A 
ATOM     20  N   UNL     1       4.129   4.958  18.455  0.00  0.00    +0.000 N 
ATOM     21  N   UNL     1       3.553   6.202  18.490  0.00  0.00    +0.000 NA
BRANCH  20  22
ATOM     22  C   UNL     1       5.183   4.753  17.515  0.00  0.00    +0.000 A 
ATOM     23  C   UNL     1       4.838   4.459  16.184  0.00  0.00    +0.000 A 
ATOM     24  C   UNL     1       5.823   4.304  15.209  0.00  0.00    +0.000 A 
ATOM     25  C   UNL     1       7.163   4.457  15.549  0.00  0.00    +0.000 A 
ATOM     26  C   UNL     1       7.518   4.749  16.866  0.00  0.00    +0.000 A 
ATOM     27  C   UNL     1       6.534   4.896  17.851  0.00  0.00    +0.000 A 
ENDBRANCH  20  22
BRANCH  19  28
ATOM     28  C   UNL     1       3.828   2.707  19.579  0.00  0.00    +0.000 C 
ATOM     29  N   UNL     1       5.051   2.360  20.079  0.00  0.00    +0.000 N 
ATOM     30  O   UNL     1       3.023   1.823  19.314  0.00  0.00    +0.000 OA
ATOM     31  H   UNL     1       5.789   3.022  20.270  0.00  0.00    +0.000 HD
ATOM     32  H   UNL     1       5.241   1.375  20.192  0.00  0.00    +0.000 HD
ENDBRANCH  19  28
ENDBRANCH   2  17
TORSDOF 5
ENDMDL
MODEL 3
REMARK VINA RESULT:      -8.6      2.813      8.840
REMARK  Name = 
REMARK  6 active torsions:
REMARK  status: ('A' for Active; 'I' for Inactive)
REMARK    1  A    between atoms: C_1  and  C_2
REMARK    2  A    between atoms: C_4  and  C_5
REMARK    3  A    between atoms: C_9  and  N_10
REMARK    4  A    between atoms: C_11  and  C_13
REMARK    5  A    between atoms: C_15  and  C_16
REMARK    6  A    between atoms: N_19  and  C_20
REMARK                            x       y       z     vdW  Elec       q    Type
REMARK                         _______ _______ _______ _____ _____    ______ ____
ROOT
ATOM      1  N   UNL     1       1.881   8.032  19.360  0.00  0.00    +0.000 N 
ATOM      2  C   UNL     1       1.872   6.895  20.157  0.00  0.00    +0.000 C 
ATOM      3  O   UNL     1       1.189   6.711  21.158  0.00  0.00    +0.000 OA
ATOM      4  H   UNL     1       2.464   7.957  18.529  0.00  0.00    +0.000 HD
ENDROOT
BRANCH   1   9
ATOM      5  C   UNL     1      -0.820  10.515  18.724  0.00  0.00    +0.000 A 
ATOM      6  C   UNL     1      -0.692  11.337  19.853  0.00  0.00    +0.000 A 
ATOM      7  C   UNL     1       0.311  11.105  20.788  0.00  0.00    +0.000 A 
ATOM      8  C   UNL     1       1.183  10.032  20.620  0.00  0.00    +0.000 A 
ATOM      9  C   UNL     1       1.068   9.177  19.518  0.00  0.00    +0.000 A 
ATOM     10  C   UNL     1       0.085   9.449  18.551  0.00  0.00    +0.000 A 
BRANCH   5  14
ATOM     11  C   UNL     1      -3.703  10.357  14.737  0.00  0.00    +0.000 C 
ATOM     12  C   UNL     1      -3.081  10.629  16.044  0.00  0.00    +0.000 A 
ATOM     13  N   UNL     1      -2.021  10.088  16.594  0.00  0.00    +0.000 NA
ATOM     14  C   UNL     1      -1.919  10.766  17.794  0.00  0.00    +0.000 A 
ATOM     15  N   UNL     1      -2.887  11.679  17.983  0.00  0.00    +0.000 NA
ATOM     16  O   UNL     1      -3.656  11.591  16.825  0.00  0.00    +0.000 OA
ENDBRANCH   5  14
ENDBRANCH   1   9
BRANCH   2  17
ATOM     17  C   UNL     1       2.774   5.834  19.679  0.00  0.00    +0.000 A 
ATOM     18  C   UNL     1       2.985   4.580  20.289  0.00  0.00    +0.000 A 
ATOM     19  C   UNL     1       3.881   3.893  19.485  0.00  0.00    +0.000 A 
ATOM     20  N   UNL     1       4.198   4.772  18.455  0.00  0.00    +0.000 N 
ATOM     21  N   UNL     1       3.480   5.937  18.547  0.00  0.00    +0.000 NA
BRANCH  20  22
ATOM     22  C   UNL     1       5.160   4.680  17.405  0.00  0.00    +0.000 A 
ATOM     23  C   UNL     1       6.521   4.796  17.740  0.00  0.00    +0.000 A 
ATOM     24  C   UNL     1       7.509   4.658  16.766  0.00  0.00    +0.000 A 
ATOM     25  C   UNL     1       7.150   4.387  15.450  0.00  0.00    +0.000 A 
ATOM     26  C   UNL     1       5.804   4.269  15.106  0.00  0.00    +0.000 A 
ATOM     27  C   UNL     1       4.807   4.416  16.077  0.00  0.00    +0.000 A 
ENDBRANCH  20  22
BRANCH  19  28
ATOM     28  C   UNL     1       4.298   2.522  19.615  0.00  0.00    +0.000 C 
ATOM     29  N   UNL     1       3.849   1.675  18.642  0.00  0.00    +0.000 N 
ATOM     30  O   UNL     1       5.020   2.079  20.500  0.00  0.00    +0.000 OA
ATOM     31  H   UNL     1       3.207   1.948  17.912  0.00  0.00    +0.000 HD
ATOM     32  H   UNL     1       4.124   0.705  18.710  0.00  0.00    +0.000 HD
ENDBRANCH  19  28
ENDBRANCH   2  17
TORSDOF 5
ENDMDL
MODEL 4
REMARK VINA RESULT:      -8.6      2.864      9.079
REMARK  Name = 
REMARK  6 active torsions:
REMARK  status: ('A' for Active; 'I' for Inactive)
REMARK    1  A    between atoms: C_1  and  C_2
REMARK    2  A    between atoms: C_4  and  C_5
REMARK    3  A    between atoms: C_9  and  N_10
REMARK    4  A    between atoms: C_11  and  C_13
REMARK    5  A    between atoms: C_15  and  C_16
REMARK    6  A    between atoms: N_19  and  C_20
REMARK                            x       y       z     vdW  Elec       q    Type
REMARK                         _______ _______ _______ _____ _____    ______ ____
ROOT
ATOM      1  N   UNL     1       1.593   8.775  18.839  0.00  0.00    +0.000 N 
ATOM      2  C   UNL     1       1.692   7.928  19.935  0.00  0.00    +0.000 C 
ATOM      3  O   UNL     1       1.231   8.126  21.053  0.00  0.00    +0.000 OA
ATOM      4  H   UNL     1       1.978   8.393  17.978  0.00  0.00    +0.000 HD
ENDROOT
BRANCH   1   9
ATOM      5  C   UNL     1      -1.124  11.228  18.152  0.00  0.00    +0.000 A 
ATOM      6  C   UNL     1      -0.612  12.370  18.785  0.00  0.00    +0.000 A 
ATOM      7  C   UNL     1       0.642  12.344  19.386  0.00  0.00    +0.000 A 
ATOM      8  C   UNL     1       1.390  11.170  19.385  0.00  0.00    +0.000 A 
ATOM      9  C   UNL     1       0.899  10.005  18.785  0.00  0.00    +0.000 A 
ATOM     10  C   UNL     1      -0.346  10.052  18.134  0.00  0.00    +0.000 A 
BRANCH   5  14
ATOM     11  C   UNL     1      -6.009  11.633  17.706  0.00  0.00    +0.000 C 
ATOM     12  C   UNL     1      -4.561  11.470  17.494  0.00  0.00    +0.000 A 
ATOM     13  N   UNL     1      -3.575  11.569  18.352  0.00  0.00    +0.000 NA
ATOM     14  C   UNL     1      -2.465  11.285  17.577  0.00  0.00    +0.000 A 
ATOM     15  N   UNL     1      -2.756  11.036  16.288  0.00  0.00    +0.000 NA
ATOM     16  O   UNL     1      -4.142  11.156  16.232  0.00  0.00    +0.000 OA
ENDBRANCH   5  14
ENDBRANCH   1   9
BRANCH   2  17
ATOM     17  C   UNL     1       2.409   6.674  19.647  0.00  0.00    +0.000 A 
ATOM     18  C   UNL     1       2.174   5.421  20.250  0.00  0.00    +0.000 A 
ATOM     19  C   UNL     1       3.049   4.525  19.656  0.00  0.00    +0.000 A 
ATOM     20  N   UNL     1       3.793   5.280  18.756  0.00  0.00    +0.000 N 
ATOM     21  N   UNL     1       3.365   6.582  18.715  0.00  0.00    +0.000 NA
BRANCH  20  22
ATOM     22  C   UNL     1       4.926   4.940  17.958  0.00  0.00    +0.000 A 
ATOM     23  C   UNL     1       4.706   4.546  16.626  0.00  0.00    +0.000 A 
ATOM     24  C   UNL     1       5.777   4.257  15.782  0.00  0.00    +0.000 A 
ATOM     25  C   UNL     1       7.081   4.372  16.254  0.00  0.00    +0.000 A 
ATOM     26  C   UNL     1       7.312   4.762  17.572  0.00  0.00    +0.000 A 
ATOM     27  C   UNL     1       6.240   5.045  18.428  0.00  0.00    +0.000 A 
ENDBRANCH  20  22
BRANCH  19  28
ATOM     28  C   UNL     1       3.093   3.098  19.837  0.00  0.00    +0.000 C 
ATOM     29  N   UNL     1       2.455   2.363  18.878  0.00  0.00    +0.000 N 
ATOM     30  O   UNL     1       3.661   2.514  20.752  0.00  0.00    +0.000 OA
ATOM     31  H   UNL     1       1.918   2.767  18.125  0.00  0.00    +0.000 HD
ATOM     32  H   UNL     1       2.468   1.358  18.981  0.00  0.00    +0.000 HD
ENDBRANCH  19  28
ENDBRANCH   2  17
TORSDOF 5
ENDMDL
MODEL 5
REMARK VINA RESULT:      -8.6      2.856      8.906
REMARK  Name = 
REMARK  6 active torsions:
REMARK  status: ('A' for Active; 'I' for Inactive)
REMARK    1  A    between atoms: C_1  and  C_2
REMARK    2  A    between atoms: C_4  and  C_5
REMARK    3  A    between atoms: C_9  and  N_10
REMARK    4  A    between atoms: C_11  and  C_13
REMARK    5  A    between atoms: C_15  and  C_16
REMARK    6  A    between atoms: N_19  and  C_20
REMARK                            x       y       z     vdW  Elec       q    Type
REMARK                         _______ _______ _______ _____ _____    ______ ____
ROOT
ATOM      1  N   UNL     1       2.079   7.277  20.322  0.00  0.00    +0.000 N 
ATOM      2  C   UNL     1       1.677   5.949  20.398  0.00  0.00    +0.000 C 
ATOM      3  O   UNL     1       0.617   5.534  20.853  0.00  0.00    +0.000 OA
ATOM      4  H   UNL     1       2.964   7.419  19.840  0.00  0.00    +0.000 HD
ENDROOT
BRANCH   1   9
ATOM      5  C   UNL     1      -0.303  10.130  20.095  0.00  0.00    +0.000 A 
ATOM      6  C   UNL     1      -0.326  10.559  21.431  0.00  0.00    +0.000 A 
ATOM      7  C   UNL     1       0.477   9.945  22.385  0.00  0.00    +0.000 A 
ATOM      8  C   UNL     1       1.296   8.878  22.024  0.00  0.00    +0.000 A 
ATOM      9  C   UNL     1       1.326   8.408  20.706  0.00  0.00    +0.000 A 
ATOM     10  C   UNL     1       0.550   9.067  19.736  0.00  0.00    +0.000 A 
BRANCH   5  14
ATOM     11  C   UNL     1      -2.819  11.117  15.981  0.00  0.00    +0.000 C 
ATOM     12  C   UNL     1      -2.228  11.106  17.331  0.00  0.00    +0.000 A 
ATOM     13  N   UNL     1      -1.437  10.223  17.889  0.00  0.00    +0.000 NA
ATOM     14  C   UNL     1      -1.199  10.770  19.136  0.00  0.00    +0.000 A 
ATOM     15  N   UNL     1      -1.833  11.938  19.343  0.00  0.00    +0.000 NA
ATOM     16  O   UNL     1      -2.512  12.162  18.148  0.00  0.00    +0.000 OA
ENDBRANCH   5  14
ENDBRANCH   1   9
BRANCH   2  17
ATOM     17  C   UNL     1       2.655   5.004  19.835  0.00  0.00    +0.000 A 
ATOM     18  C   UNL     1       2.888   3.684  20.273  0.00  0.00    +0.000 A 
ATOM     19  C   UNL     1       3.861   3.156  19.440  0.00  0.00    +0.000 A 
ATOM     20  N   UNL     1       4.196   4.186  18.568  0.00  0.00    +0.000 N 
ATOM     21  N   UNL     1       3.421   5.297  18.777  0.00  0.00    +0.000 NA
BRANCH  20  22
ATOM     22  C   UNL     1       5.223   4.283  17.581  0.00  0.00    +0.000 A 
ATOM     23  C   UNL     1       4.861   4.134  16.230  0.00  0.00    +0.000 A 
ATOM     24  C   UNL     1       5.810   4.274  15.218  0.00  0.00    +0.000 A 
ATOM     25  C   UNL     1       7.128   4.581  15.543  0.00  0.00    +0.000 A 
ATOM     26  C   UNL     1       7.498   4.732  16.879  0.00  0.00    +0.000 A 
ATOM     27  C   UNL     1       6.552   4.582  17.900  0.00  0.00    +0.000 A 
ENDBRANCH  20  22
BRANCH  19  28
ATOM     28  C   UNL     1       4.334   1.797  19.401  0.00  0.00    +0.000 C 
ATOM     29  N   UNL     1       5.259   1.468  20.352  0.00  0.00    +0.000 N 
ATOM     30  O   UNL     1       3.964   0.937  18.611  0.00  0.00    +0.000 OA
ATOM     31  H   UNL     1       5.656   2.129  21.002  0.00  0.00    +0.000 HD
ATOM     32  H   UNL     1       5.610   0.521  20.346  0.00  0.00    +0.000 HD
ENDBRANCH  19  28
ENDBRANCH   2  17
TORSDOF 5
ENDMDL
MODEL 6
REMARK VINA RESULT:      -8.4      3.378      9.692
REMARK  Name = 
REMARK  6 active torsions:
REMARK  status: ('A' for Active; 'I' for Inactive)
REMARK    1  A    between atoms: C_1  and  C_2
REMARK    2  A    between atoms: C_4  and  C_5
REMARK    3  A    between atoms: C_9  and  N_10
REMARK    4  A    between atoms: C_11  and  C_13
REMARK    5  A    between atoms: C_15  and  C_16
REMARK    6  A    between atoms: N_19  and  C_20
REMARK                            x       y       z     vdW  Elec       q    Type
REMARK                         _______ _______ _______ _____ _____    ______ ____
ROOT
ATOM      1  N   UNL     1       1.210   9.586  18.368  0.00  0.00    +0.000 N 
ATOM      2  C   UNL     1       1.597   8.599  19.265  0.00  0.00    +0.000 C 
ATOM      3  O   UNL     1       1.263   8.513  20.442  0.00  0.00    +0.000 OA
ATOM      4  H   UNL     1       1.535   9.436  17.415  0.00  0.00    +0.000 HD
ENDROOT
BRANCH   1   9
ATOM      5  C   UNL     1      -1.930  11.587  18.379  0.00  0.00    +0.000 A 
ATOM      6  C   UNL     1      -1.562  12.649  19.218  0.00  0.00    +0.000 A 
ATOM      7  C   UNL     1      -0.272  12.730  19.731  0.00  0.00    +0.000 A 
ATOM      8  C   UNL     1       0.659  11.738  19.434  0.00  0.00    +0.000 A 
ATOM      9  C   UNL     1       0.318  10.652  18.621  0.00  0.00    +0.000 A 
ATOM     10  C   UNL     1      -0.972  10.603  18.063  0.00  0.00    +0.000 A 
BRANCH   5  14
ATOM     11  C   UNL     1      -6.851  11.476  18.292  0.00  0.00    +0.000 C 
ATOM     12  C   UNL     1      -5.413  11.476  17.973  0.00  0.00    +0.000 A 
ATOM     13  N   UNL     1      -4.382  11.657  18.762  0.00  0.00    +0.000 NA
ATOM     14  C   UNL     1      -3.309  11.515  17.902  0.00  0.00    +0.000 A 
ATOM     15  N   UNL     1      -3.667  11.270  16.629  0.00  0.00    +0.000 NA
ATOM     16  O   UNL     1      -5.058  11.242  16.676  0.00  0.00    +0.000 OA
ENDBRANCH   5  14
ENDBRANCH   1   9
BRANCH   2  17
ATOM     17  C   UNL     1       2.470   7.572  18.672  0.00  0.00    +0.000 A 
ATOM     18  C   UNL     1       3.472   7.787  17.705  0.00  0.00    +0.000 A 
ATOM     19  C   UNL     1       4.062   6.556  17.464  0.00  0.00    +0.000 A 
ATOM     20  N   UNL     1       3.367   5.654  18.263  0.00  0.00    +0.000 N 
ATOM     21  N   UNL     1       2.429   6.286  19.039  0.00  0.00    +0.000 NA
BRANCH  20  22
ATOM     22  C   UNL     1       3.429   4.231  18.344  0.00  0.00    +0.000 A 
ATOM     23  C   UNL     1       4.175   3.657  19.389  0.00  0.00    +0.000 A 
ATOM     24  C   UNL     1       4.226   2.273  19.551  0.00  0.00    +0.000 A 
ATOM     25  C   UNL     1       3.520   1.447  18.682  0.00  0.00    +0.000 A 
ATOM     26  C   UNL     1       2.776   2.005  17.643  0.00  0.00    +0.000 A 
ATOM     27  C   UNL     1       2.729   3.393  17.468  0.00  0.00    +0.000 A 
ENDBRANCH  20  22
BRANCH  19  28
ATOM     28  C   UNL     1       5.224   6.286  16.659  0.00  0.00    +0.000 C 
ATOM     29  N   UNL     1       5.166   6.739  15.371  0.00  0.00    +0.000 N 
ATOM     30  O   UNL     1       6.236   5.712  17.041  0.00  0.00    +0.000 OA
ATOM     31  H   UNL     1       4.350   7.170  14.963  0.00  0.00    +0.000 HD
ATOM     32  H   UNL     1       5.967   6.560  14.782  0.00  0.00    +0.000 HD
ENDBRANCH  19  28
ENDBRANCH   2  17
TORSDOF 5
ENDMDL
MODEL 7
REMARK VINA RESULT:      -8.4      2.704      9.328
REMARK  Name = 
REMARK  6 active torsions:
REMARK  status: ('A' for Active; 'I' for Inactive)
REMARK    1  A    between atoms: C_1  and  C_2
REMARK    2  A    between atoms: C_4  and  C_5
REMARK    3  A    between atoms: C_9  and  N_10
REMARK    4  A    between atoms: C_11  and  C_13
REMARK    5  A    between atoms: C_15  and  C_16
REMARK    6  A    between atoms: N_19  and  C_20
REMARK                            x       y       z     vdW  Elec       q    Type
REMARK                         _______ _______ _______ _____ _____    ______ ____
ROOT
ATOM      1  N   UNL     1       1.720   8.970  18.409  0.00  0.00    +0.000 N 
ATOM      2  C   UNL     1       1.908   8.090  19.467  0.00  0.00    +0.000 C 
ATOM      3  O   UNL     1       1.483   8.223  20.609  0.00  0.00    +0.000 OA
ATOM      4  H   UNL     1       2.090   8.640  17.520  0.00  0.00    +0.000 HD
ENDROOT
BRANCH   1   9
ATOM      5  C   UNL     1      -1.237  11.231  18.341  0.00  0.00    +0.000 A 
ATOM      6  C   UNL     1      -0.631  12.464  18.620  0.00  0.00    +0.000 A 
ATOM      7  C   UNL     1       0.747  12.556  18.776  0.00  0.00    +0.000 A 
ATOM      8  C   UNL     1       1.536  11.412  18.681  0.00  0.00    +0.000 A 
ATOM      9  C   UNL     1       0.962  10.161  18.428  0.00  0.00    +0.000 A 
ATOM     10  C   UNL     1      -0.426  10.085  18.220  0.00  0.00    +0.000 A 
BRANCH   5  14
ATOM     11  C   UNL     1      -6.023  12.102  19.095  0.00  0.00    +0.000 C 
ATOM     12  C   UNL     1      -4.712  11.616  18.633  0.00  0.00    +0.000 A 
ATOM     13  N   UNL     1      -3.508  12.017  18.963  0.00  0.00    +0.000 NA
ATOM     14  C   UNL     1      -2.693  11.172  18.234  0.00  0.00    +0.000 A 
ATOM     15  N   UNL     1      -3.369  10.293  17.473  0.00  0.00    +0.000 NA
ATOM     16  O   UNL     1      -4.705  10.584  17.738  0.00  0.00    +0.000 OA
ENDBRANCH   5  14
ENDBRANCH   1   9
BRANCH   2  17
ATOM     17  C   UNL     1       2.677   6.888  19.105  0.00  0.00    +0.000 A 
ATOM     18  C   UNL     1       2.706   5.671  19.816  0.00  0.00    +0.000 A 
ATOM     19  C   UNL     1       3.527   4.813  19.101  0.00  0.00    +0.000 A 
ATOM     20  N   UNL     1       3.984   5.559  18.020  0.00  0.00    +0.000 N 
ATOM     21  N   UNL     1       3.422   6.810  17.997  0.00  0.00    +0.000 NA
BRANCH  20  22
ATOM     22  C   UNL     1       4.956   5.262  17.018  0.00  0.00    +0.000 A 
ATOM     23  C   UNL     1       6.229   5.848  17.132  0.00  0.00    +0.000 A 
ATOM     24  C   UNL     1       7.236   5.551  16.215  0.00  0.00    +0.000 A 
ATOM     25  C   UNL     1       6.988   4.652  15.182  0.00  0.00    +0.000 A 
ATOM     26  C   UNL     1       5.730   4.064  15.059  0.00  0.00    +0.000 A 
ATOM     27  C   UNL     1       4.711   4.366  15.971  0.00  0.00    +0.000 A 
ENDBRANCH  20  22
BRANCH  19  28
ATOM     28  C   UNL     1       3.758   3.414  19.350  0.00  0.00    +0.000 C 
ATOM     29  N   UNL     1       5.067   3.051  19.497  0.00  0.00    +0.000 N 
ATOM     30  O   UNL     1       2.890   2.557  19.453  0.00  0.00    +0.000 OA
ATOM     31  H   UNL     1       5.844   3.684  19.371  0.00  0.00    +0.000 HD
ATOM     32  H   UNL     1       5.259   2.075  19.669  0.00  0.00    +0.000 HD
ENDBRANCH  19  28
ENDBRANCH   2  17
TORSDOF 5
ENDMDL
MODEL 8
REMARK VINA RESULT:      -8.4      3.026      9.542
REMARK  Name = 
REMARK  6 active torsions:
REMARK  status: ('A' for Active; 'I' for Inactive)
REMARK    1  A    between atoms: C_1  and  C_2
REMARK    2  A    between atoms: C_4  and  C_5
REMARK    3  A    between atoms: C_9  and  N_10
REMARK    4  A    between atoms: C_11  and  C_13
REMARK    5  A    between atoms: C_15  and  C_16
REMARK    6  A    between atoms: N_19  and  C_20
REMARK                            x       y       z     vdW  Elec       q    Type
REMARK                         _______ _______ _______ _____ _____    ______ ____
ROOT
ATOM      1  N   UNL     1       0.744   9.254  19.359  0.00  0.00    +0.000 N 
ATOM      2  C   UNL     1       1.715   9.026  18.392  0.00  0.00    +0.000 C 
ATOM      3  O   UNL     1       1.997   9.764  17.454  0.00  0.00    +0.000 OA
ATOM      4  H   UNL     1       0.718   8.556  20.098  0.00  0.00    +0.000 HD
ENDROOT
BRANCH   1   9
ATOM      5  C   UNL     1      -2.141  11.555  18.866  0.00  0.00    +0.000 A 
ATOM      6  C   UNL     1      -1.829  12.568  19.785  0.00  0.00    +0.000 A 
ATOM      7  C   UNL     1      -0.651  12.517  20.521  0.00  0.00    +0.000 A 
ATOM      8  C   UNL     1       0.220  11.441  20.367  0.00  0.00    +0.000 A 
ATOM      9  C   UNL     1      -0.072  10.401  19.478  0.00  0.00    +0.000 A 
ATOM     10  C   UNL     1      -1.240  10.485  18.700  0.00  0.00    +0.000 A 
BRANCH   5  14
ATOM     11  C   UNL     1      -6.936  12.095  17.888  0.00  0.00    +0.000 C 
ATOM     12  C   UNL     1      -5.480  11.872  17.838  0.00  0.00    +0.000 A 
ATOM     13  N   UNL     1      -4.585  11.987  18.789  0.00  0.00    +0.000 NA
ATOM     14  C   UNL     1      -3.413  11.624  18.151  0.00  0.00    +0.000 A 
ATOM     15  N   UNL     1      -3.579  11.312  16.854  0.00  0.00    +0.000 NA
ATOM     16  O   UNL     1      -4.947  11.474  16.646  0.00  0.00    +0.000 OA
ENDBRANCH   5  14
ENDBRANCH   1   9
BRANCH   2  17
ATOM     17  C   UNL     1       2.462   7.773  18.590  0.00  0.00    +0.000 A 
ATOM     18  C   UNL     1       2.244   6.825  19.611  0.00  0.00    +0.000 A 
ATOM     19  C   UNL     1       3.144   5.794  19.394  0.00  0.00    +0.000 A 
ATOM     20  N   UNL     1       3.885   6.182  18.283  0.00  0.00    +0.000 N 
ATOM     21  N   UNL     1       3.431   7.367  17.762  0.00  0.00    +0.000 NA
BRANCH  20  22
ATOM     22  C   UNL     1       5.036   5.599  17.672  0.00  0.00    +0.000 A 
ATOM     23  C   UNL     1       6.277   5.750  18.315  0.00  0.00    +0.000 A 
ATOM     24  C   UNL     1       7.426   5.155  17.795  0.00  0.00    +0.000 A 
ATOM     25  C   UNL     1       7.346   4.391  16.635  0.00  0.00    +0.000 A 
ATOM     26  C   UNL     1       6.120   4.234  15.989  0.00  0.00    +0.000 A 
ATOM     27  C   UNL     1       4.965   4.836  16.501  0.00  0.00    +0.000 A 
ENDBRANCH  20  22
BRANCH  19  28
ATOM     28  C   UNL     1       3.216   4.535  20.088  0.00  0.00    +0.000 C 
ATOM     29  N   UNL     1       2.352   4.392  21.137  0.00  0.00    +0.000 N 
ATOM     30  O   UNL     1       3.960   3.606  19.801  0.00  0.00    +0.000 OA
ATOM     31  H   UNL     1       1.748   5.127  21.472  0.00  0.00    +0.000 HD
ATOM     32  H   UNL     1       2.383   3.519  21.645  0.00  0.00    +0.000 HD
ENDBRANCH  19  28
ENDBRANCH   2  17
TORSDOF 5
ENDMDL
MODEL 9
REMARK VINA RESULT:      -8.4      3.343      9.715
REMARK  Name = 
REMARK  6 active torsions:
REMARK  status: ('A' for Active; 'I' for Inactive)
REMARK    1  A    between atoms: C_1  and  C_2
REMARK    2  A    between atoms: C_4  and  C_5
REMARK    3  A    between atoms: C_9  and  N_10
REMARK    4  A    between atoms: C_11  and  C_13
REMARK    5  A    between atoms: C_15  and  C_16
REMARK    6  A    between atoms: N_19  and  C_20
REMARK                            x       y       z     vdW  Elec       q    Type
REMARK                         _______ _______ _______ _____ _____    ______ ____
ROOT
ATOM      1  N   UNL     1       1.164   9.605  18.434  0.00  0.00    +0.000 N 
ATOM      2  C   UNL     1       1.566   8.631  19.339  0.00  0.00    +0.000 C 
ATOM      3  O   UNL     1       1.266   8.571  20.526  0.00  0.00    +0.000 OA
ATOM      4  H   UNL     1       1.460   9.433  17.475  0.00  0.00    +0.000 HD
ENDROOT
BRANCH   1   9
ATOM      5  C   UNL     1      -1.950  11.647  18.481  0.00  0.00    +0.000 A 
ATOM      6  C   UNL     1      -1.552  12.713  19.301  0.00  0.00    +0.000 A 
ATOM      7  C   UNL     1      -0.251  12.783  19.788  0.00  0.00    +0.000 A 
ATOM      8  C   UNL     1       0.661  11.776  19.485  0.00  0.00    +0.000 A 
ATOM      9  C   UNL     1       0.291  10.685  18.691  0.00  0.00    +0.000 A 
ATOM     10  C   UNL     1      -1.010  10.647  18.159  0.00  0.00    +0.000 A 
BRANCH   5  14
ATOM     11  C   UNL     1      -6.871  11.749  18.467  0.00  0.00    +0.000 C 
ATOM     12  C   UNL     1      -5.440  11.650  18.132  0.00  0.00    +0.000 A 
ATOM     13  N   UNL     1      -4.389  11.867  18.885  0.00  0.00    +0.000 NA
ATOM     14  C   UNL     1      -3.338  11.587  18.032  0.00  0.00    +0.000 A 
ATOM     15  N   UNL     1      -3.727  11.226  16.797  0.00  0.00    +0.000 NA
ATOM     16  O   UNL     1      -5.118  11.265  16.862  0.00  0.00    +0.000 OA
ENDBRANCH   5  14
ENDBRANCH   1   9
BRANCH   2  17
ATOM     17  C   UNL     1       2.411   7.584  18.742  0.00  0.00    +0.000 A 
ATOM     18  C   UNL     1       3.355   7.761  17.709  0.00  0.00    +0.000 A 
ATOM     19  C   UNL     1       3.939   6.523  17.488  0.00  0.00    +0.000 A 
ATOM     20  N   UNL     1       3.297   5.654  18.364  0.00  0.00    +0.000 N 
ATOM     21  N   UNL     1       2.401   6.315  19.165  0.00  0.00    +0.000 NA
BRANCH  20  22
ATOM     22  C   UNL     1       3.374   4.236  18.503  0.00  0.00    +0.000 A 
ATOM     23  C   UNL     1       2.612   3.441  17.628  0.00  0.00    +0.000 A 
ATOM     24  C   UNL     1       2.689   2.050  17.678  0.00  0.00    +0.000 A 
ATOM     25  C   UNL     1       3.540   1.437  18.593  0.00  0.00    +0.000 A 
ATOM     26  C   UNL     1       4.301   2.214  19.465  0.00  0.00    +0.000 A 
ATOM     27  C   UNL     1       4.220   3.611  19.425  0.00  0.00    +0.000 A 
ENDBRANCH  20  22
BRANCH  19  28
ATOM     28  C   UNL     1       5.055   6.224  16.630  0.00  0.00    +0.000 C 
ATOM     29  N   UNL     1       6.161   7.005  16.810  0.00  0.00    +0.000 N 
ATOM     30  O   UNL     1       5.086   5.335  15.789  0.00  0.00    +0.000 OA
ATOM     31  H   UNL     1       6.198   7.791  17.442  0.00  0.00    +0.000 HD
ATOM     32  H   UNL     1       6.959   6.819  16.219  0.00  0.00    +0.000 HD
ENDBRANCH  19  28
ENDBRANCH   2  17
TORSDOF 5
ENDMDL
