MODEL 1
REMARK VINA RESULT:      -8.8      0.000      0.000
REMARK  Name = 
REMARK  6 active torsions:
REMARK  status: ('A' for Active; 'I' for Inactive)
REMARK    1  A    between atoms: C_1  and  N_2
REMARK    2  A    between atoms: C_6  and  C_7
REMARK    3  A    between atoms: C_7  and  C_8
REMARK    4  A    between atoms: C_8  and  C_9
REMARK    5  A    between atoms: C_13  and  N_14
REMARK    6  A    between atoms: C_17  and  C_18
REMARK                            x       y       z     vdW  Elec       q    Type
REMARK                         _______ _______ _______ _____ _____    ______ ____
ROOT
ATOM      1  C   UNL     1       2.796   4.655  17.688  0.00  0.00    +0.000 A 
ATOM      2  C   UNL     1       4.157   4.784  17.382  0.00  0.00    +0.000 A 
ATOM      3  C   UNL     1       4.840   5.953  17.695  0.00  0.00    +0.000 A 
ATOM      4  C   UNL     1       4.160   7.022  18.275  0.00  0.00    +0.000 A 
ATOM      5  C   UNL     1       2.797   6.940  18.574  0.00  0.00    +0.000 A 
ATOM      6  C   UNL     1       2.137   5.724  18.322  0.00  0.00    +0.000 A 
ENDROOT
BRANCH   5   7
ATOM      7  N   UNL     1       2.098   8.081  19.045  0.00  0.00    +0.000 N 
ATOM      8  C   UNL     1       1.433   8.133  20.346  0.00  0.00    +0.000 C 
ATOM      9  C   UNL     1       0.750   9.475  20.359  0.00  0.00    +0.000 C 
ATOM     10  C   UNL     1       0.026  10.091  21.309  0.00  0.00    +0.000 C 
ATOM     11  C   UNL     1      -0.603  11.443  21.038  0.00  0.00    +0.000 C 
ATOM     12  C   UNL     1      -0.396  12.042  19.623  0.00  0.00    +0.000 C 
ATOM     13  C   UNL     1       0.479  11.248  18.705  0.00  0.00    +0.000 C 
ATOM     14  C   UNL     1       0.993  10.076  19.086  0.00  0.00    +0.000 C 
ATOM     15  C   UNL     1       1.861   9.215  18.260  0.00  0.00    +0.000 C 
ATOM     16  O   UNL     1       2.199   9.493  17.125  0.00  0.00    +0.000 OA
BRANCH  10  17
ATOM     17  C   UNL     1      -0.204   9.505  22.665  0.00  0.00    +0.000 C 
ATOM     18  F   UNL     1      -0.907  10.329  23.480  0.00  0.00    +0.000 F 
ATOM     19  F   UNL     1      -0.885   8.338  22.591  0.00  0.00    +0.000 F 
ATOM     20  F   UNL     1       0.970   9.238  23.290  0.00  0.00    +0.000 F 
ENDBRANCH  10  17
ENDBRANCH   5   7
BRANCH   1  21
ATOM     21  C   UNL     1       2.008   3.444  17.226  0.00  0.00    +0.000 C 
BRANCH  21  22
ATOM     22  C   UNL     1       2.280   2.164  18.028  0.00  0.00    +0.000 C 
BRANCH  22  28
ATOM     23  C   UNL     1       4.556   2.254  20.226  0.00  0.00    +0.000 C 
ATOM     24  N   UNL     1       3.143   2.433  20.426  0.00  0.00    +0.000 N 
ATOM     25  C   UNL     1       2.550   2.701  21.624  0.00  0.00    +0.000 A 
ATOM     26  N   UNL     1       1.258   2.829  21.453  0.00  0.00    +0.000 NA
ATOM     27  N   UNL     1       0.994   2.642  20.119  0.00  0.00    +0.000 NA
ATOM     28  C   UNL     1       2.132   2.399  19.497  0.00  0.00    +0.000 A 
ENDBRANCH  22  28
ENDBRANCH  21  22
ENDBRANCH   1  21
TORSDOF 5
ENDMDL
MODEL 2
REMARK VINA RESULT:      -8.7      2.415      3.839
REMARK  Name = 
REMARK  6 active torsions:
REMARK  status: ('A' for Active; 'I' for Inactive)
REMARK    1  A    between atoms: C_1  and  N_2
REMARK    2  A    between atoms: C_6  and  C_7
REMARK    3  A    between atoms: C_7  and  C_8
REMARK    4  A    between atoms: C_8  and  C_9
REMARK    5  A    between atoms: C_13  and  N_14
REMARK    6  A    between atoms: C_17  and  C_18
REMARK                            x       y       z     vdW  Elec       q    Type
REMARK                         _______ _______ _______ _____ _____    ______ ____
ROOT
ATOM      1  C   UNL     1       4.215   4.812  17.801  0.00  0.00    +0.000 A 
ATOM      2  C   UNL     1       4.155   3.820  18.788  0.00  0.00    +0.000 A 
ATOM      3  C   UNL     1       3.384   4.009  19.929  0.00  0.00    +0.000 A 
ATOM      4  C   UNL     1       2.702   5.210  20.116  0.00  0.00    +0.000 A 
ATOM      5  C   UNL     1       2.756   6.233  19.164  0.00  0.00    +0.000 A 
ATOM      6  C   UNL     1       3.478   5.997  17.981  0.00  0.00    +0.000 A 
ENDROOT
BRANCH   5   7
ATOM      7  N   UNL     1       2.160   7.492  19.432  0.00  0.00    +0.000 N 
ATOM      8  C   UNL     1       1.449   7.794  20.673  0.00  0.00    +0.000 C 
ATOM      9  C   UNL     1       0.910   9.184  20.461  0.00  0.00    +0.000 C 
ATOM     10  C   UNL     1       0.213   9.997  21.274  0.00  0.00    +0.000 C 
ATOM     11  C   UNL     1      -0.260  11.350  20.783  0.00  0.00    +0.000 C 
ATOM     12  C   UNL     1       0.069  11.718  19.313  0.00  0.00    +0.000 C 
ATOM     13  C   UNL     1       0.896  10.720  18.565  0.00  0.00    +0.000 C 
ATOM     14  C   UNL     1       1.268   9.569  19.134  0.00  0.00    +0.000 C 
ATOM     15  C   UNL     1       2.076   8.520  18.486  0.00  0.00    +0.000 C 
ATOM     16  O   UNL     1       2.490   8.597  17.344  0.00  0.00    +0.000 OA
BRANCH  10  17
ATOM     17  C   UNL     1      -0.134   9.636  22.682  0.00  0.00    +0.000 C 
ATOM     18  F   UNL     1       0.956   9.339  23.431  0.00  0.00    +0.000 F 
ATOM     19  F   UNL     1      -0.785  10.646  23.306  0.00  0.00    +0.000 F 
ATOM     20  F   UNL     1      -0.951   8.554  22.726  0.00  0.00    +0.000 F 
ENDBRANCH  10  17
ENDBRANCH   5   7
BRANCH   1  21
ATOM     21  C   UNL     1       5.161   4.678  16.623  0.00  0.00    +0.000 C 
BRANCH  21  22
ATOM     22  C   UNL     1       6.646   4.609  17.004  0.00  0.00    +0.000 C 
BRANCH  22  28
ATOM     23  C   UNL     1       8.049   5.488  19.701  0.00  0.00    +0.000 C 
ATOM     24  N   UNL     1       7.786   6.306  18.548  0.00  0.00    +0.000 N 
ATOM     25  C   UNL     1       8.132   7.619  18.425  0.00  0.00    +0.000 A 
ATOM     26  N   UNL     1       7.770   8.057  17.246  0.00  0.00    +0.000 NA
ATOM     27  N   UNL     1       7.174   7.016  16.579  0.00  0.00    +0.000 NA
ATOM     28  C   UNL     1       7.180   5.957  17.366  0.00  0.00    +0.000 A 
ENDBRANCH  22  28
ENDBRANCH  21  22
ENDBRANCH   1  21
TORSDOF 5
ENDMDL
MODEL 3
REMARK VINA RESULT:      -8.6      3.187      4.455
REMARK  Name = 
REMARK  6 active torsions:
REMARK  status: ('A' for Active; 'I' for Inactive)
REMARK    1  A    between atoms: C_1  and  N_2
REMARK    2  A    between atoms: C_6  and  C_7
REMARK    3  A    between atoms: C_7  and  C_8
REMARK    4  A    between atoms: C_8  and  C_9
REMARK    5  A    between atoms: C_13  and  N_14
REMARK    6  A    between atoms: C_17  and  C_18
REMARK                            x       y       z     vdW  Elec       q    Type
REMARK                         _______ _______ _______ _____ _____    ______ ____
ROOT
ATOM      1  C   UNL     1       4.547   4.664  18.066  0.00  0.00    +0.000 A 
ATOM      2  C   UNL     1       4.261   3.629  18.966  0.00  0.00    +0.000 A 
ATOM      3  C   UNL     1       3.277   3.791  19.934  0.00  0.00    +0.000 A 
ATOM      4  C   UNL     1       2.601   5.005  20.042  0.00  0.00    +0.000 A 
ATOM      5  C   UNL     1       2.875   6.069  19.177  0.00  0.00    +0.000 A 
ATOM      6  C   UNL     1       3.819   5.864  18.155  0.00  0.00    +0.000 A 
ENDROOT
BRANCH   5   7
ATOM      7  N   UNL     1       2.268   7.334  19.384  0.00  0.00    +0.000 N 
ATOM      8  C   UNL     1       1.561   7.692  20.612  0.00  0.00    +0.000 C 
ATOM      9  C   UNL     1       1.007   9.064  20.333  0.00  0.00    +0.000 C 
ATOM     10  C   UNL     1       0.306   9.910  21.108  0.00  0.00    +0.000 C 
ATOM     11  C   UNL     1      -0.182  11.233  20.552  0.00  0.00    +0.000 C 
ATOM     12  C   UNL     1       0.135  11.529  19.064  0.00  0.00    +0.000 C 
ATOM     13  C   UNL     1       0.969  10.502  18.362  0.00  0.00    +0.000 C 
ATOM     14  C   UNL     1       1.355   9.386  18.986  0.00  0.00    +0.000 C 
ATOM     15  C   UNL     1       2.170   8.312  18.388  0.00  0.00    +0.000 C 
ATOM     16  O   UNL     1       2.577   8.336  17.241  0.00  0.00    +0.000 OA
BRANCH  10  17
ATOM     17  C   UNL     1      -0.031   9.618  22.534  0.00  0.00    +0.000 C 
ATOM     18  F   UNL     1       1.057   9.284  23.272  0.00  0.00    +0.000 F 
ATOM     19  F   UNL     1      -0.610  10.684  23.135  0.00  0.00    +0.000 F 
ATOM     20  F   UNL     1      -0.907   8.587  22.632  0.00  0.00    +0.000 F 
ENDBRANCH  10  17
ENDBRANCH   5   7
BRANCH   1  21
ATOM     21  C   UNL     1       5.712   4.551  17.101  0.00  0.00    +0.000 C 
BRANCH  21  22
ATOM     22  C   UNL     1       5.307   4.287  15.644  0.00  0.00    +0.000 C 
BRANCH  22  28
ATOM     23  C   UNL     1       5.650   3.417  12.620  0.00  0.00    +0.000 C 
ATOM     24  N   UNL     1       6.520   4.267  13.387  0.00  0.00    +0.000 N 
ATOM     25  C   UNL     1       7.647   4.868  12.909  0.00  0.00    +0.000 A 
ATOM     26  N   UNL     1       8.191   5.591  13.856  0.00  0.00    +0.000 NA
ATOM     27  N   UNL     1       7.410   5.465  14.978  0.00  0.00    +0.000 NA
ATOM     28  C   UNL     1       6.401   4.662  14.697  0.00  0.00    +0.000 A 
ENDBRANCH  22  28
ENDBRANCH  21  22
ENDBRANCH   1  21
TORSDOF 5
ENDMDL
MODEL 4
REMARK VINA RESULT:      -8.4      4.380      8.323
REMARK  Name = 
REMARK  6 active torsions:
REMARK  status: ('A' for Active; 'I' for Inactive)
REMARK    1  A    between atoms: C_1  and  N_2
REMARK    2  A    between atoms: C_6  and  C_7
REMARK    3  A    between atoms: C_7  and  C_8
REMARK    4  A    between atoms: C_8  and  C_9
REMARK    5  A    between atoms: C_13  and  N_14
REMARK    6  A    between atoms: C_17  and  C_18
REMARK                            x       y       z     vdW  Elec       q    Type
REMARK                         _______ _______ _______ _____ _____    ______ ____
ROOT
ATOM      1  C   UNL     1       0.286  10.097  19.611  0.00  0.00    +0.000 A 
ATOM      2  C   UNL     1       0.066  10.076  20.994  0.00  0.00    +0.000 A 
ATOM      3  C   UNL     1       0.677   9.113  21.788  0.00  0.00    +0.000 A 
ATOM      4  C   UNL     1       1.477   8.134  21.202  0.00  0.00    +0.000 A 
ATOM      5  C   UNL     1       1.701   8.109  19.822  0.00  0.00    +0.000 A 
ATOM      6  C   UNL     1       1.138   9.134  19.042  0.00  0.00    +0.000 A 
ENDROOT
BRANCH   5   7
ATOM      7  N   UNL     1       2.412   7.032  19.232  0.00  0.00    +0.000 N 
ATOM      8  C   UNL     1       3.343   7.201  18.118  0.00  0.00    +0.000 C 
ATOM      9  C   UNL     1       3.763   5.797  17.771  0.00  0.00    +0.000 C 
ATOM     10  C   UNL     1       4.635   5.334  16.858  0.00  0.00    +0.000 C 
ATOM     11  C   UNL     1       4.834   3.842  16.676  0.00  0.00    +0.000 C 
ATOM     12  C   UNL     1       3.968   2.906  17.558  0.00  0.00    +0.000 C 
ATOM     13  C   UNL     1       3.086   3.588  18.557  0.00  0.00    +0.000 C 
ATOM     14  C   UNL     1       3.028   4.921  18.626  0.00  0.00    +0.000 C 
ATOM     15  C   UNL     1       2.192   5.691  19.567  0.00  0.00    +0.000 C 
ATOM     16  O   UNL     1       1.455   5.177  20.387  0.00  0.00    +0.000 OA
BRANCH  10  17
ATOM     17  C   UNL     1       5.450   6.230  15.983  0.00  0.00    +0.000 C 
ATOM     18  F   UNL     1       6.238   5.544  15.119  0.00  0.00    +0.000 F 
ATOM     19  F   UNL     1       4.665   7.049  15.245  0.00  0.00    +0.000 F 
ATOM     20  F   UNL     1       6.268   7.024  16.718  0.00  0.00    +0.000 F 
ENDBRANCH  10  17
ENDBRANCH   5   7
BRANCH   1  21
ATOM     21  C   UNL     1      -0.484  11.053  18.718  0.00  0.00    +0.000 C 
BRANCH  21  22
ATOM     22  C   UNL     1      -1.287  10.372  17.601  0.00  0.00    +0.000 C 
BRANCH  22  28
ATOM     23  C   UNL     1      -3.184  10.448  15.068  0.00  0.00    +0.000 C 
ATOM     24  N   UNL     1      -3.468  10.949  16.385  0.00  0.00    +0.000 N 
ATOM     25  C   UNL     1      -4.642  11.530  16.765  0.00  0.00    +0.000 A 
ATOM     26  N   UNL     1      -4.580  11.852  18.033  0.00  0.00    +0.000 NA
ATOM     27  N   UNL     1      -3.344  11.477  18.498  0.00  0.00    +0.000 NA
ATOM     28  C   UNL     1      -2.669  10.934  17.503  0.00  0.00    +0.000 A 
ENDBRANCH  22  28
ENDBRANCH  21  22
ENDBRANCH   1  21
TORSDOF 5
ENDMDL
MODEL 5
REMARK VINA RESULT:      -8.4      2.211      3.590
REMARK  Name = 
REMARK  6 active torsions:
REMARK  status: ('A' for Active; 'I' for Inactive)
REMARK    1  A    between atoms: C_1  and  N_2
REMARK    2  A    between atoms: C_6  and  C_7
REMARK    3  A    between atoms: C_7  and  C_8
REMARK    4  A    between atoms: C_8  and  C_9
REMARK    5  A    between atoms: C_13  and  N_14
REMARK    6  A    between atoms: C_17  and  C_18
REMARK                            x       y       z     vdW  Elec       q    Type
REMARK                         _______ _______ _______ _____ _____    ______ ____
ROOT
ATOM      1  C   UNL     1       3.836   4.614  17.766  0.00  0.00    +0.000 A 
ATOM      2  C   UNL     1       3.763   3.640  18.770  0.00  0.00    +0.000 A 
ATOM      3  C   UNL     1       3.064   3.891  19.944  0.00  0.00    +0.000 A 
ATOM      4  C   UNL     1       2.469   5.135  20.146  0.00  0.00    +0.000 A 
ATOM      5  C   UNL     1       2.541   6.141  19.177  0.00  0.00    +0.000 A 
ATOM      6  C   UNL     1       3.186   5.845  17.963  0.00  0.00    +0.000 A 
ENDROOT
BRANCH   5   7
ATOM      7  N   UNL     1       2.039   7.438  19.455  0.00  0.00    +0.000 N 
ATOM      8  C   UNL     1       1.354   7.783  20.699  0.00  0.00    +0.000 C 
ATOM      9  C   UNL     1       0.918   9.211  20.497  0.00  0.00    +0.000 C 
ATOM     10  C   UNL     1       0.284  10.067  21.317  0.00  0.00    +0.000 C 
ATOM     11  C   UNL     1      -0.088  11.455  20.837  0.00  0.00    +0.000 C 
ATOM     12  C   UNL     1       0.265  11.808  19.369  0.00  0.00    +0.000 C 
ATOM     13  C   UNL     1       1.016  10.757  18.612  0.00  0.00    +0.000 C 
ATOM     14  C   UNL     1       1.303   9.578  19.172  0.00  0.00    +0.000 C 
ATOM     15  C   UNL     1       2.031   8.476  18.516  0.00  0.00    +0.000 C 
ATOM     16  O   UNL     1       2.448   8.531  17.374  0.00  0.00    +0.000 OA
BRANCH  10  17
ATOM     17  C   UNL     1      -0.088   9.723  22.723  0.00  0.00    +0.000 C 
ATOM     18  F   UNL     1       0.975   9.322  23.463  0.00  0.00    +0.000 F 
ATOM     19  F   UNL     1      -0.644  10.780  23.361  0.00  0.00    +0.000 F 
ATOM     20  F   UNL     1      -0.997   8.717  22.760  0.00  0.00    +0.000 F 
ENDBRANCH  10  17
ENDBRANCH   5   7
BRANCH   1  21
ATOM     21  C   UNL     1       4.712   4.405  16.545  0.00  0.00    +0.000 C 
BRANCH  21  22
ATOM     22  C   UNL     1       5.768   5.496  16.324  0.00  0.00    +0.000 C 
BRANCH  22  28
ATOM     23  C   UNL     1       7.249   8.027  17.516  0.00  0.00    +0.000 C 
ATOM     24  N   UNL     1       7.373   6.661  17.947  0.00  0.00    +0.000 N 
ATOM     25  C   UNL     1       8.153   6.235  18.982  0.00  0.00    +0.000 A 
ATOM     26  N   UNL     1       8.019   4.941  19.124  0.00  0.00    +0.000 NA
ATOM     27  N   UNL     1       7.137   4.504  18.167  0.00  0.00    +0.000 NA
ATOM     28  C   UNL     1       6.748   5.543  17.452  0.00  0.00    +0.000 A 
ENDBRANCH  22  28
ENDBRANCH  21  22
ENDBRANCH   1  21
TORSDOF 5
ENDMDL
MODEL 6
REMARK VINA RESULT:      -8.4      2.514      3.952
REMARK  Name = 
REMARK  6 active torsions:
REMARK  status: ('A' for Active; 'I' for Inactive)
REMARK    1  A    between atoms: C_1  and  N_2
REMARK    2  A    between atoms: C_6  and  C_7
REMARK    3  A    between atoms: C_7  and  C_8
REMARK    4  A    between atoms: C_8  and  C_9
REMARK    5  A    between atoms: C_13  and  N_14
REMARK    6  A    between atoms: C_17  and  C_18
REMARK                            x       y       z     vdW  Elec       q    Type
REMARK                         _______ _______ _______ _____ _____    ______ ____
ROOT
ATOM      1  C   UNL     1       4.558   4.707  19.316  0.00  0.00    +0.000 A 
ATOM      2  C   UNL     1       3.774   3.572  19.562  0.00  0.00    +0.000 A 
ATOM      3  C   UNL     1       2.412   3.699  19.805  0.00  0.00    +0.000 A 
ATOM      4  C   UNL     1       1.828   4.963  19.850  0.00  0.00    +0.000 A 
ATOM      5  C   UNL     1       2.582   6.120  19.633  0.00  0.00    +0.000 A 
ATOM      6  C   UNL     1       3.943   5.972  19.312  0.00  0.00    +0.000 A 
ENDROOT
BRANCH   5   7
ATOM      7  N   UNL     1       1.996   7.400  19.809  0.00  0.00    +0.000 N 
ATOM      8  C   UNL     1       1.269   7.789  21.016  0.00  0.00    +0.000 C 
ATOM      9  C   UNL     1       0.748   9.168  20.705  0.00  0.00    +0.000 C 
ATOM     10  C   UNL     1       0.048  10.039  21.452  0.00  0.00    +0.000 C 
ATOM     11  C   UNL     1      -0.403  11.362  20.867  0.00  0.00    +0.000 C 
ATOM     12  C   UNL     1      -0.048  11.630  19.382  0.00  0.00    +0.000 C 
ATOM     13  C   UNL     1       0.780  10.577  18.713  0.00  0.00    +0.000 C 
ATOM     14  C   UNL     1       1.131   9.463  19.362  0.00  0.00    +0.000 C 
ATOM     15  C   UNL     1       1.938   8.365  18.797  0.00  0.00    +0.000 C 
ATOM     16  O   UNL     1       2.369   8.364  17.659  0.00  0.00    +0.000 OA
BRANCH  10  17
ATOM     17  C   UNL     1      -0.325   9.775  22.875  0.00  0.00    +0.000 C 
ATOM     18  F   UNL     1      -0.991  10.810  23.444  0.00  0.00    +0.000 F 
ATOM     19  F   UNL     1      -1.116   8.682  22.985  0.00  0.00    +0.000 F 
ATOM     20  F   UNL     1       0.773   9.545  23.637  0.00  0.00    +0.000 F 
ENDBRANCH  10  17
ENDBRANCH   5   7
BRANCH   1  21
ATOM     21  C   UNL     1       6.066   4.595  19.189  0.00  0.00    +0.000 C 
BRANCH  21  22
ATOM     22  C   UNL     1       6.722   5.722  18.379  0.00  0.00    +0.000 C 
BRANCH  22  28
ATOM     23  C   UNL     1       4.881   6.693  15.994  0.00  0.00    +0.000 C 
ATOM     24  N   UNL     1       6.010   5.805  15.919  0.00  0.00    +0.000 N 
ATOM     25  C   UNL     1       6.492   5.247  14.772  0.00  0.00    +0.000 A 
ATOM     26  N   UNL     1       7.538   4.511  15.050  0.00  0.00    +0.000 NA
ATOM     27  N   UNL     1       7.752   4.585  16.404  0.00  0.00    +0.000 NA
ATOM     28  C   UNL     1       6.827   5.364  16.932  0.00  0.00    +0.000 A 
ENDBRANCH  22  28
ENDBRANCH  21  22
ENDBRANCH   1  21
TORSDOF 5
ENDMDL
MODEL 7
REMARK VINA RESULT:      -8.4      0.671      1.223
REMARK  Name = 
REMARK  6 active torsions:
REMARK  status: ('A' for Active; 'I' for Inactive)
REMARK    1  A    between atoms: C_1  and  N_2
REMARK    2  A    between atoms: C_6  and  C_7
REMARK    3  A    between atoms: C_7  and  C_8
REMARK    4  A    between atoms: C_8  and  C_9
REMARK    5  A    between atoms: C_13  and  N_14
REMARK    6  A    between atoms: C_17  and  C_18
REMARK                            x       y       z     vdW  Elec       q    Type
REMARK                         _______ _______ _______ _____ _____    ______ ____
ROOT
ATOM      1  C   UNL     1       2.480   4.772  17.761  0.00  0.00    +0.000 A 
ATOM      2  C   UNL     1       3.796   4.891  17.295  0.00  0.00    +0.000 A 
ATOM      3  C   UNL     1       4.509   6.067  17.495  0.00  0.00    +0.000 A 
ATOM      4  C   UNL     1       3.899   7.152  18.120  0.00  0.00    +0.000 A 
ATOM      5  C   UNL     1       2.579   7.080  18.578  0.00  0.00    +0.000 A 
ATOM      6  C   UNL     1       1.897   5.859  18.437  0.00  0.00    +0.000 A 
ENDROOT
BRANCH   5   7
ATOM      7  N   UNL     1       1.938   8.235  19.096  0.00  0.00    +0.000 N 
ATOM      8  C   UNL     1       1.291   8.272  20.406  0.00  0.00    +0.000 C 
ATOM      9  C   UNL     1       0.669   9.643  20.472  0.00  0.00    +0.000 C 
ATOM     10  C   UNL     1      -0.016  10.257  21.452  0.00  0.00    +0.000 C 
ATOM     11  C   UNL     1      -0.587  11.644  21.234  0.00  0.00    +0.000 C 
ATOM     12  C   UNL     1      -0.370  12.281  19.837  0.00  0.00    +0.000 C 
ATOM     13  C   UNL     1       0.459  11.481  18.881  0.00  0.00    +0.000 C 
ATOM     14  C   UNL     1       0.924  10.274  19.217  0.00  0.00    +0.000 C 
ATOM     15  C   UNL     1       1.743   9.404  18.352  0.00  0.00    +0.000 C 
ATOM     16  O   UNL     1       2.079   9.704  17.222  0.00  0.00    +0.000 OA
BRANCH  10  17
ATOM     17  C   UNL     1      -0.255   9.637  22.790  0.00  0.00    +0.000 C 
ATOM     18  F   UNL     1      -0.989  10.429  23.611  0.00  0.00    +0.000 F 
ATOM     19  F   UNL     1      -0.911   8.458  22.679  0.00  0.00    +0.000 F 
ATOM     20  F   UNL     1       0.913   9.380  23.430  0.00  0.00    +0.000 F 
ENDBRANCH  10  17
ENDBRANCH   5   7
BRANCH   1  21
ATOM     21  C   UNL     1       1.646   3.550  17.426  0.00  0.00    +0.000 C 
BRANCH  21  22
ATOM     22  C   UNL     1       1.439   2.581  18.598  0.00  0.00    +0.000 C 
BRANCH  22  28
ATOM     23  C   UNL     1       2.136   3.466  21.556  0.00  0.00    +0.000 C 
ATOM     24  N   UNL     1       2.981   2.751  20.638  0.00  0.00    +0.000 N 
ATOM     25  C   UNL     1       4.242   2.311  20.915  0.00  0.00    +0.000 A 
ATOM     26  N   UNL     1       4.722   1.679  19.873  0.00  0.00    +0.000 NA
ATOM     27  N   UNL     1       3.763   1.704  18.891  0.00  0.00    +0.000 NA
ATOM     28  C   UNL     1       2.711   2.355  19.351  0.00  0.00    +0.000 A 
ENDBRANCH  22  28
ENDBRANCH  21  22
ENDBRANCH   1  21
TORSDOF 5
ENDMDL
MODEL 8
REMARK VINA RESULT:      -8.3      2.403      3.936
REMARK  Name = 
REMARK  6 active torsions:
REMARK  status: ('A' for Active; 'I' for Inactive)
REMARK    1  A    between atoms: C_1  and  N_2
REMARK    2  A    between atoms: C_6  and  C_7
REMARK    3  A    between atoms: C_7  and  C_8
REMARK    4  A    between atoms: C_8  and  C_9
REMARK    5  A    between atoms: C_13  and  N_14
REMARK    6  A    between atoms: C_17  and  C_18
REMARK                            x       y       z     vdW  Elec       q    Type
REMARK                         _______ _______ _______ _____ _____    ______ ____
ROOT
ATOM      1  C   UNL     1       4.201   6.009  17.327  0.00  0.00    +0.000 A 
ATOM      2  C   UNL     1       4.218   4.879  18.154  0.00  0.00    +0.000 A 
ATOM      3  C   UNL     1       3.420   4.827  19.290  0.00  0.00    +0.000 A 
ATOM      4  C   UNL     1       2.631   5.923  19.637  0.00  0.00    +0.000 A 
ATOM      5  C   UNL     1       2.606   7.078  18.849  0.00  0.00    +0.000 A 
ATOM      6  C   UNL     1       3.360   7.085  17.662  0.00  0.00    +0.000 A 
ENDROOT
BRANCH   5   7
ATOM      7  N   UNL     1       1.897   8.227  19.286  0.00  0.00    +0.000 N 
ATOM      8  C   UNL     1       1.213   8.304  20.575  0.00  0.00    +0.000 C 
ATOM      9  C   UNL     1       0.527   9.644  20.549  0.00  0.00    +0.000 C 
ATOM     10  C   UNL     1      -0.214  10.277  21.476  0.00  0.00    +0.000 C 
ATOM     11  C   UNL     1      -0.842  11.621  21.168  0.00  0.00    +0.000 C 
ATOM     12  C   UNL     1      -0.616  12.191  19.744  0.00  0.00    +0.000 C 
ATOM     13  C   UNL     1       0.275  11.381  18.855  0.00  0.00    +0.000 C 
ATOM     14  C   UNL     1       0.787  10.218  19.268  0.00  0.00    +0.000 C 
ATOM     15  C   UNL     1       1.669   9.343  18.474  0.00  0.00    +0.000 C 
ATOM     16  O   UNL     1       2.022   9.598  17.338  0.00  0.00    +0.000 OA
BRANCH  10  17
ATOM     17  C   UNL     1      -0.461   9.720  22.840  0.00  0.00    +0.000 C 
ATOM     18  F   UNL     1      -1.290  10.496  23.581  0.00  0.00    +0.000 F 
ATOM     19  F   UNL     1      -1.017   8.487  22.778  0.00  0.00    +0.000 F 
ATOM     20  F   UNL     1       0.695   9.596  23.539  0.00  0.00    +0.000 F 
ENDBRANCH  10  17
ENDBRANCH   5   7
BRANCH   1  21
ATOM     21  C   UNL     1       5.170   6.135  16.166  0.00  0.00    +0.000 C 
BRANCH  21  22
ATOM     22  C   UNL     1       6.612   5.722  16.493  0.00  0.00    +0.000 C 
BRANCH  22  28
ATOM     23  C   UNL     1       7.923   5.412  19.357  0.00  0.00    +0.000 C 
ATOM     24  N   UNL     1       7.869   6.598  18.546  0.00  0.00    +0.000 N 
ATOM     25  C   UNL     1       8.411   7.803  18.885  0.00  0.00    +0.000 A 
ATOM     26  N   UNL     1       8.206   8.661  17.919  0.00  0.00    +0.000 NA
ATOM     27  N   UNL     1       7.515   8.013  16.925  0.00  0.00    +0.000 NA
ATOM     28  C   UNL     1       7.308   6.766  17.304  0.00  0.00    +0.000 A 
ENDBRANCH  22  28
ENDBRANCH  21  22
ENDBRANCH   1  21
TORSDOF 5
ENDMDL
MODEL 9
REMARK VINA RESULT:      -8.2      4.265      8.457
REMARK  Name = 
REMARK  6 active torsions:
REMARK  status: ('A' for Active; 'I' for Inactive)
REMARK    1  A    between atoms: C_1  and  N_2
REMARK    2  A    between atoms: C_6  and  C_7
REMARK    3  A    between atoms: C_7  and  C_8
REMARK    4  A    between atoms: C_8  and  C_9
REMARK    5  A    between atoms: C_13  and  N_14
REMARK    6  A    between atoms: C_17  and  C_18
REMARK                            x       y       z     vdW  Elec       q    Type
REMARK                         _______ _______ _______ _____ _____    ______ ____
ROOT
ATOM      1  C   UNL     1       0.383  10.262  19.539  0.00  0.00    +0.000 A 
ATOM      2  C   UNL     1       0.024  10.184  20.891  0.00  0.00    +0.000 A 
ATOM      3  C   UNL     1       0.511   9.156  21.690  0.00  0.00    +0.000 A 
ATOM      4  C   UNL     1       1.326   8.171  21.135  0.00  0.00    +0.000 A 
ATOM      5  C   UNL     1       1.687   8.202  19.784  0.00  0.00    +0.000 A 
ATOM      6  C   UNL     1       1.249   9.289  19.008  0.00  0.00    +0.000 A 
ENDROOT
BRANCH   5   7
ATOM      7  N   UNL     1       2.410   7.124  19.212  0.00  0.00    +0.000 N 
ATOM      8  C   UNL     1       3.324   7.282  18.083  0.00  0.00    +0.000 C 
ATOM      9  C   UNL     1       3.764   5.877  17.765  0.00  0.00    +0.000 C 
ATOM     10  C   UNL     1       4.633   5.406  16.853  0.00  0.00    +0.000 C 
ATOM     11  C   UNL     1       4.856   3.915  16.705  0.00  0.00    +0.000 C 
ATOM     12  C   UNL     1       4.017   2.986  17.620  0.00  0.00    +0.000 C 
ATOM     13  C   UNL     1       3.136   3.677  18.613  0.00  0.00    +0.000 C 
ATOM     14  C   UNL     1       3.055   5.010  18.651  0.00  0.00    +0.000 C 
ATOM     15  C   UNL     1       2.217   5.788  19.582  0.00  0.00    +0.000 C 
ATOM     16  O   UNL     1       1.499   5.282  20.424  0.00  0.00    +0.000 OA
BRANCH  10  17
ATOM     17  C   UNL     1       5.422   6.294  15.946  0.00  0.00    +0.000 C 
ATOM     18  F   UNL     1       4.637   7.082  15.170  0.00  0.00    +0.000 F 
ATOM     19  F   UNL     1       6.242   7.113  16.646  0.00  0.00    +0.000 F 
ATOM     20  F   UNL     1       6.207   5.571  15.109  0.00  0.00    +0.000 F 
ENDBRANCH  10  17
ENDBRANCH   5   7
BRANCH   1  21
ATOM     21  C   UNL     1      -0.252  11.294  18.627  0.00  0.00    +0.000 C 
BRANCH  21  22
ATOM     22  C   UNL     1      -1.647  11.760  19.067  0.00  0.00    +0.000 C 
BRANCH  22  28
ATOM     23  C   UNL     1      -4.781  12.172  19.232  0.00  0.00    +0.000 C 
ATOM     24  N   UNL     1      -4.019  11.722  18.099  0.00  0.00    +0.000 N 
ATOM     25  C   UNL     1      -4.541  11.417  16.876  0.00  0.00    +0.000 A 
ATOM     26  N   UNL     1      -3.576  11.064  16.065  0.00  0.00    +0.000 NA
ATOM     27  N   UNL     1      -2.396  11.137  16.764  0.00  0.00    +0.000 NA
ATOM     28  C   UNL     1      -2.662  11.531  17.995  0.00  0.00    +0.000 A 
ENDBRANCH  22  28
ENDBRANCH  21  22
ENDBRANCH   1  21
TORSDOF 5
ENDMDL
