MODEL 1
REMARK VINA RESULT:      -7.0      0.000      0.000
REMARK  Name = 
REMARK  7 active torsions:
REMARK  status: ('A' for Active; 'I' for Inactive)
REMARK    1  A    between atoms: C_1  and  C_2
REMARK    2  A    between atoms: C_4  and  C_5
REMARK    3  A    between atoms: C_12  and  C_13
REMARK    4  A    between atoms: C_13  and  C_14
REMARK    5  A    between atoms: C_13  and  S_15
REMARK    6  A    between atoms: S_15  and  C_16
REMARK    7  A    between atoms: N_20  and  C_21
REMARK                            x       y       z     vdW  Elec       q    Type
REMARK                         _______ _______ _______ _____ _____    ______ ____
ROOT
ATOM      1  C   UNL     1       0.576   9.844  22.087  0.00  0.00    +0.000 C 
ATOM      2  O   UNL     1       0.934   9.663  23.260  0.00  0.00    +0.000 OA
ATOM      3  N   UNL     1      -0.442  10.846  21.780  0.00  0.00    +0.000 N 
ATOM      4  C   UNL     1      -1.061  11.446  23.010  0.00  0.00    +0.000 C 
ATOM      5  C   UNL     1      -2.565  11.704  22.866  0.00  0.00    +0.000 C 
ATOM      6  C   UNL     1      -2.843  12.634  21.710  0.00  0.00    +0.000 C 
ATOM      7  C   UNL     1      -1.947  12.312  20.577  0.00  0.00    +0.000 C 
ATOM      8  C   UNL     1      -0.886  11.475  20.579  0.00  0.00    +0.000 C 
ENDROOT
BRANCH   1  12
ATOM      9  C   UNL     1       2.299   8.738  17.544  0.00  0.00    +0.000 C 
ATOM     10  C   UNL     1       2.062   8.219  18.945  0.00  0.00    +0.000 A 
ATOM     11  C   UNL     1       1.879   9.139  19.994  0.00  0.00    +0.000 A 
ATOM     12  C   UNL     1       1.167   8.823  21.141  0.00  0.00    +0.000 A 
ATOM     13  C   UNL     1       1.149   7.457  21.462  0.00  0.00    +0.000 A 
ATOM     14  C   UNL     1       1.549   6.469  20.517  0.00  0.00    +0.000 A 
ATOM     15  C   UNL     1       1.572   5.085  20.809  0.00  0.00    +0.000 A 
ATOM     16  C   UNL     1       1.801   4.146  19.800  0.00  0.00    +0.000 A 
ATOM     17  C   UNL     1       1.990   4.548  18.483  0.00  0.00    +0.000 A 
ATOM     18  C   UNL     1       2.026   5.903  18.185  0.00  0.00    +0.000 A 
ATOM     19  C   UNL     1       1.874   6.861  19.202  0.00  0.00    +0.000 A 
ENDBRANCH   1  12
BRANCH   8  20
ATOM     20  C   UNL     1      -0.189  11.489  19.245  0.00  0.00    +0.000 C 
ATOM     21  C   UNL     1      -1.016  10.684  18.211  0.00  0.00    +0.000 C 
BRANCH  20  22
ATOM     22  S   UNL     1       0.543  13.096  18.868  0.00  0.00    +0.000 S 
BRANCH  22  23
ATOM     23  C   UNL     1       1.494  13.722  20.152  0.00  0.00    +0.000 A 
ATOM     24  N   UNL     1       2.182  12.984  20.991  0.00  0.00    +0.000 NA
ATOM     25  N   UNL     1       3.226  13.755  21.480  0.00  0.00    +0.000 NA
ATOM     26  C   UNL     1       3.125  14.942  20.941  0.00  0.00    +0.000 A 
ATOM     27  N   UNL     1       2.028  14.997  20.130  0.00  0.00    +0.000 N 
ATOM     28  C   UNL     1       1.627  16.161  19.390  0.00  0.00    +0.000 C 
ENDBRANCH  22  23
ENDBRANCH  20  22
ENDBRANCH   8  20
TORSDOF 4
ENDMDL
MODEL 2
REMARK VINA RESULT:      -6.9      1.070      2.171
REMARK  Name = 
REMARK  7 active torsions:
REMARK  status: ('A' for Active; 'I' for Inactive)
REMARK    1  A    between atoms: C_1  and  C_2
REMARK    2  A    between atoms: C_4  and  C_5
REMARK    3  A    between atoms: C_12  and  C_13
REMARK    4  A    between atoms: C_13  and  C_14
REMARK    5  A    between atoms: C_13  and  S_15
REMARK    6  A    between atoms: S_15  and  C_16
REMARK    7  A    between atoms: N_20  and  C_21
REMARK                            x       y       z     vdW  Elec       q    Type
REMARK                         _______ _______ _______ _____ _____    ______ ____
ROOT
ATOM      1  C   UNL     1       0.769   9.626  21.933  0.00  0.00    +0.000 C 
ATOM      2  O   UNL     1       1.249   9.484  23.068  0.00  0.00    +0.000 OA
ATOM      3  N   UNL     1      -0.246  10.650  21.692  0.00  0.00    +0.000 N 
ATOM      4  C   UNL     1      -0.708  11.322  22.952  0.00  0.00    +0.000 C 
ATOM      5  C   UNL     1      -2.211  11.626  22.961  0.00  0.00    +0.000 C 
ATOM      6  C   UNL     1      -2.586  12.514  21.799  0.00  0.00    +0.000 C 
ATOM      7  C   UNL     1      -1.831  12.113  20.593  0.00  0.00    +0.000 C 
ATOM      8  C   UNL     1      -0.801  11.241  20.518  0.00  0.00    +0.000 C 
ENDROOT
BRANCH   1  12
ATOM      9  C   UNL     1       1.810   4.823  21.109  0.00  0.00    +0.000 C 
ATOM     10  C   UNL     1       1.715   6.200  20.490  0.00  0.00    +0.000 A 
ATOM     11  C   UNL     1       0.964   7.195  21.143  0.00  0.00    +0.000 A 
ATOM     12  C   UNL     1       1.223   8.546  20.977  0.00  0.00    +0.000 A 
ATOM     13  C   UNL     1       1.825   8.883  19.754  0.00  0.00    +0.000 A 
ATOM     14  C   UNL     1       2.406   7.887  18.918  0.00  0.00    +0.000 A 
ATOM     15  C   UNL     1       2.998   8.179  17.666  0.00  0.00    +0.000 A 
ATOM     16  C   UNL     1       3.708   7.201  16.966  0.00  0.00    +0.000 A 
ATOM     17  C   UNL     1       3.867   5.924  17.492  0.00  0.00    +0.000 A 
ATOM     18  C   UNL     1       3.248   5.601  18.692  0.00  0.00    +0.000 A 
ATOM     19  C   UNL     1       2.467   6.553  19.369  0.00  0.00    +0.000 A 
ENDBRANCH   1  12
BRANCH   8  20
ATOM     20  C   UNL     1      -0.255  11.173  19.118  0.00  0.00    +0.000 C 
ATOM     21  C   UNL     1      -1.105  10.196  18.268  0.00  0.00    +0.000 C 
BRANCH  20  22
ATOM     22  S   UNL     1       0.274  12.788  18.507  0.00  0.00    +0.000 S 
BRANCH  22  23
ATOM     23  C   UNL     1       1.850  13.224  19.030  0.00  0.00    +0.000 A 
ATOM     24  N   UNL     1       2.886  13.347  18.234  0.00  0.00    +0.000 NA
ATOM     25  N   UNL     1       3.781  14.222  18.831  0.00  0.00    +0.000 NA
ATOM     26  C   UNL     1       3.271  14.584  19.980  0.00  0.00    +0.000 A 
ATOM     27  N   UNL     1       2.077  13.954  20.181  0.00  0.00    +0.000 N 
ATOM     28  C   UNL     1       1.259  14.127  21.349  0.00  0.00    +0.000 C 
ENDBRANCH  22  23
ENDBRANCH  20  22
ENDBRANCH   8  20
TORSDOF 4
ENDMDL
MODEL 3
REMARK VINA RESULT:      -6.9      0.872      1.989
REMARK  Name = 
REMARK  7 active torsions:
REMARK  status: ('A' for Active; 'I' for Inactive)
REMARK    1  A    between atoms: C_1  and  C_2
REMARK    2  A    between atoms: C_4  and  C_5
REMARK    3  A    between atoms: C_12  and  C_13
REMARK    4  A    between atoms: C_13  and  C_14
REMARK    5  A    between atoms: C_13  and  S_15
REMARK    6  A    between atoms: S_15  and  C_16
REMARK    7  A    between atoms: N_20  and  C_21
REMARK                            x       y       z     vdW  Elec       q    Type
REMARK                         _______ _______ _______ _____ _____    ______ ____
ROOT
ATOM      1  C   UNL     1       0.728   9.501  21.977  0.00  0.00    +0.000 C 
ATOM      2  O   UNL     1       1.148   9.317  23.129  0.00  0.00    +0.000 OA
ATOM      3  N   UNL     1      -0.247  10.558  21.716  0.00  0.00    +0.000 N 
ATOM      4  C   UNL     1      -0.752  11.211  22.970  0.00  0.00    +0.000 C 
ATOM      5  C   UNL     1      -2.244  11.556  22.915  0.00  0.00    +0.000 C 
ATOM      6  C   UNL     1      -2.539  12.483  21.761  0.00  0.00    +0.000 C 
ATOM      7  C   UNL     1      -1.737  12.094  20.582  0.00  0.00    +0.000 C 
ATOM      8  C   UNL     1      -0.728  11.195  20.533  0.00  0.00    +0.000 C 
ENDROOT
BRANCH   1  12
ATOM      9  C   UNL     1       1.839   4.719  21.123  0.00  0.00    +0.000 C 
ATOM     10  C   UNL     1       1.725   6.099  20.512  0.00  0.00    +0.000 A 
ATOM     11  C   UNL     1       0.959   7.079  21.171  0.00  0.00    +0.000 A 
ATOM     12  C   UNL     1       1.198   8.435  21.014  0.00  0.00    +0.000 A 
ATOM     13  C   UNL     1       1.798   8.788  19.795  0.00  0.00    +0.000 A 
ATOM     14  C   UNL     1       2.395   7.806  18.953  0.00  0.00    +0.000 A 
ATOM     15  C   UNL     1       2.985   8.115  17.705  0.00  0.00    +0.000 A 
ATOM     16  C   UNL     1       3.710   7.151  17.000  0.00  0.00    +0.000 A 
ATOM     17  C   UNL     1       3.887   5.873  17.517  0.00  0.00    +0.000 A 
ATOM     18  C   UNL     1       3.270   5.534  18.713  0.00  0.00    +0.000 A 
ATOM     19  C   UNL     1       2.474   6.469  19.396  0.00  0.00    +0.000 A 
ENDBRANCH   1  12
BRANCH   8  20
ATOM     20  C   UNL     1      -0.116  11.148  19.159  0.00  0.00    +0.000 C 
ATOM     21  C   UNL     1      -1.201  10.795  18.111  0.00  0.00    +0.000 C 
BRANCH  20  22
ATOM     22  S   UNL     1       1.095  12.463  18.900  0.00  0.00    +0.000 S 
BRANCH  22  23
ATOM     23  C   UNL     1       1.389  13.396  20.310  0.00  0.00    +0.000 A 
ATOM     24  N   UNL     1       2.274  13.091  21.229  0.00  0.00    +0.000 NA
ATOM     25  N   UNL     1       2.650  14.263  21.866  0.00  0.00    +0.000 NA
ATOM     26  C   UNL     1       1.966  15.240  21.330  0.00  0.00    +0.000 A 
ATOM     27  N   UNL     1       1.121  14.751  20.375  0.00  0.00    +0.000 N 
ATOM     28  C   UNL     1       0.224  15.560  19.599  0.00  0.00    +0.000 C 
ENDBRANCH  22  23
ENDBRANCH  20  22
ENDBRANCH   8  20
TORSDOF 4
ENDMDL
MODEL 4
REMARK VINA RESULT:      -6.9      5.051      8.870
REMARK  Name = 
REMARK  7 active torsions:
REMARK  status: ('A' for Active; 'I' for Inactive)
REMARK    1  A    between atoms: C_1  and  C_2
REMARK    2  A    between atoms: C_4  and  C_5
REMARK    3  A    between atoms: C_12  and  C_13
REMARK    4  A    between atoms: C_13  and  C_14
REMARK    5  A    between atoms: C_13  and  S_15
REMARK    6  A    between atoms: S_15  and  C_16
REMARK    7  A    between atoms: N_20  and  C_21
REMARK                            x       y       z     vdW  Elec       q    Type
REMARK                         _______ _______ _______ _____ _____    ______ ____
ROOT
ATOM      1  C   UNL     1       4.989   6.965  17.539  0.00  0.00    +0.000 C 
ATOM      2  O   UNL     1       5.921   7.781  17.591  0.00  0.00    +0.000 OA
ATOM      3  N   UNL     1       5.170   5.693  16.842  0.00  0.00    +0.000 N 
ATOM      4  C   UNL     1       6.479   5.608  16.112  0.00  0.00    +0.000 C 
ATOM      5  C   UNL     1       6.374   4.890  14.762  0.00  0.00    +0.000 C 
ATOM      6  C   UNL     1       5.853   3.485  14.939  0.00  0.00    +0.000 C 
ATOM      7  C   UNL     1       4.792   3.466  15.970  0.00  0.00    +0.000 C 
ATOM      8  C   UNL     1       4.441   4.467  16.808  0.00  0.00    +0.000 C 
ENDROOT
BRANCH   1  12
ATOM      9  C   UNL     1       1.672  10.681  17.687  0.00  0.00    +0.000 C 
ATOM     10  C   UNL     1       2.011   9.294  18.188  0.00  0.00    +0.000 A 
ATOM     11  C   UNL     1       2.953   8.522  17.484  0.00  0.00    +0.000 A 
ATOM     12  C   UNL     1       3.700   7.526  18.094  0.00  0.00    +0.000 A 
ATOM     13  C   UNL     1       3.096   6.947  19.221  0.00  0.00    +0.000 A 
ATOM     14  C   UNL     1       1.977   7.558  19.856  0.00  0.00    +0.000 A 
ATOM     15  C   UNL     1       1.322   6.995  20.977  0.00  0.00    +0.000 A 
ATOM     16  C   UNL     1       0.345   7.714  21.670  0.00  0.00    +0.000 A 
ATOM     17  C   UNL     1       0.009   9.008  21.288  0.00  0.00    +0.000 A 
ATOM     18  C   UNL     1       0.600   9.558  20.159  0.00  0.00    +0.000 A 
ATOM     19  C   UNL     1       1.527   8.817  19.407  0.00  0.00    +0.000 A 
ENDBRANCH   1  12
BRANCH   8  20
ATOM     20  C   UNL     1       3.369   4.017  17.763  0.00  0.00    +0.000 C 
ATOM     21  C   UNL     1       1.973   4.243  17.131  0.00  0.00    +0.000 C 
BRANCH  20  22
ATOM     22  S   UNL     1       3.811   2.493  18.626  0.00  0.00    +0.000 S 
BRANCH  22  23
ATOM     23  C   UNL     1       2.969   2.289  20.108  0.00  0.00    +0.000 A 
ATOM     24  N   UNL     1       3.484   2.527  21.290  0.00  0.00    +0.000 NA
ATOM     25  N   UNL     1       2.444   2.819  22.159  0.00  0.00    +0.000 NA
ATOM     26  C   UNL     1       1.329   2.729  21.483  0.00  0.00    +0.000 A 
ATOM     27  N   UNL     1       1.591   2.355  20.196  0.00  0.00    +0.000 N 
ATOM     28  C   UNL     1       0.584   2.160  19.190  0.00  0.00    +0.000 C 
ENDBRANCH  22  23
ENDBRANCH  20  22
ENDBRANCH   8  20
TORSDOF 4
ENDMDL
MODEL 5
REMARK VINA RESULT:      -6.9      2.980      7.367
REMARK  Name = 
REMARK  7 active torsions:
REMARK  status: ('A' for Active; 'I' for Inactive)
REMARK    1  A    between atoms: C_1  and  C_2
REMARK    2  A    between atoms: C_4  and  C_5
REMARK    3  A    between atoms: C_12  and  C_13
REMARK    4  A    between atoms: C_13  and  C_14
REMARK    5  A    between atoms: C_13  and  S_15
REMARK    6  A    between atoms: S_15  and  C_16
REMARK    7  A    between atoms: N_20  and  C_21
REMARK                            x       y       z     vdW  Elec       q    Type
REMARK                         _______ _______ _______ _____ _____    ______ ____
ROOT
ATOM      1  C   UNL     1      -0.537  13.083  21.405  0.00  0.00    +0.000 C 
ATOM      2  O   UNL     1      -1.113  13.664  22.336  0.00  0.00    +0.000 OA
ATOM      3  N   UNL     1      -0.441  11.624  21.403  0.00  0.00    +0.000 N 
ATOM      4  C   UNL     1      -0.943  11.004  22.674  0.00  0.00    +0.000 C 
ATOM      5  C   UNL     1      -0.111   9.800  23.131  0.00  0.00    +0.000 C 
ATOM      6  C   UNL     1      -0.091   8.727  22.070  0.00  0.00    +0.000 C 
ATOM      7  C   UNL     1       0.014   9.343  20.730  0.00  0.00    +0.000 C 
ATOM      8  C   UNL     1      -0.097  10.653  20.415  0.00  0.00    +0.000 C 
ENDROOT
BRANCH   1  12
ATOM      9  C   UNL     1       3.653  15.331  19.913  0.00  0.00    +0.000 C 
ATOM     10  C   UNL     1       2.173  15.156  19.651  0.00  0.00    +0.000 A 
ATOM     11  C   UNL     1       1.509  14.039  20.191  0.00  0.00    +0.000 A 
ATOM     12  C   UNL     1       0.150  14.045  20.462  0.00  0.00    +0.000 A 
ATOM     13  C   UNL     1      -0.602  14.931  19.675  0.00  0.00    +0.000 A 
ATOM     14  C   UNL     1       0.026  15.953  18.907  0.00  0.00    +0.000 A 
ATOM     15  C   UNL     1      -0.690  16.849  18.080  0.00  0.00    +0.000 A 
ATOM     16  C   UNL     1      -0.051  17.941  17.487  0.00  0.00    +0.000 A 
ATOM     17  C   UNL     1       1.299  18.185  17.713  0.00  0.00    +0.000 A 
ATOM     18  C   UNL     1       2.032  17.287  18.476  0.00  0.00    +0.000 A 
ATOM     19  C   UNL     1       1.420  16.143  19.015  0.00  0.00    +0.000 A 
ENDBRANCH   1  12
BRANCH   8  20
ATOM     20  C   UNL     1      -0.010  10.858  18.927  0.00  0.00    +0.000 C 
ATOM     21  C   UNL     1       1.475  10.944  18.494  0.00  0.00    +0.000 C 
BRANCH  20  22
ATOM     22  S   UNL     1      -1.231   9.880  18.025  0.00  0.00    +0.000 S 
BRANCH  22  23
ATOM     23  C   UNL     1      -2.349  10.842  17.148  0.00  0.00    +0.000 A 
ATOM     24  N   UNL     1      -2.615  10.690  15.872  0.00  0.00    +0.000 NA
ATOM     25  N   UNL     1      -3.890  11.182  15.639  0.00  0.00    +0.000 NA
ATOM     26  C   UNL     1      -4.350  11.637  16.775  0.00  0.00    +0.000 A 
ATOM     27  N   UNL     1      -3.409  11.492  17.754  0.00  0.00    +0.000 N 
ATOM     28  C   UNL     1      -3.593  11.898  19.119  0.00  0.00    +0.000 C 
ENDBRANCH  22  23
ENDBRANCH  20  22
ENDBRANCH   8  20
TORSDOF 4
ENDMDL
MODEL 6
REMARK VINA RESULT:      -6.8      3.932      7.873
REMARK  Name = 
REMARK  7 active torsions:
REMARK  status: ('A' for Active; 'I' for Inactive)
REMARK    1  A    between atoms: C_1  and  C_2
REMARK    2  A    between atoms: C_4  and  C_5
REMARK    3  A    between atoms: C_12  and  C_13
REMARK    4  A    between atoms: C_13  and  C_14
REMARK    5  A    between atoms: C_13  and  S_15
REMARK    6  A    between atoms: S_15  and  C_16
REMARK    7  A    between atoms: N_20  and  C_21
REMARK                            x       y       z     vdW  Elec       q    Type
REMARK                         _______ _______ _______ _____ _____    ______ ____
ROOT
ATOM      1  C   UNL     1      -5.015  12.944  22.770  0.00  0.00    +0.000 C 
ATOM      2  O   UNL     1      -5.751  12.402  23.607  0.00  0.00    +0.000 OA
ATOM      3  N   UNL     1      -3.753  13.550  23.190  0.00  0.00    +0.000 N 
ATOM      4  C   UNL     1      -3.583  13.571  24.681  0.00  0.00    +0.000 C 
ATOM      5  C   UNL     1      -2.915  14.851  25.196  0.00  0.00    +0.000 C 
ATOM      6  C   UNL     1      -1.553  15.035  24.573  0.00  0.00    +0.000 C 
ATOM      7  C   UNL     1      -1.590  14.638  23.149  0.00  0.00    +0.000 C 
ATOM      8  C   UNL     1      -2.592  14.006  22.497  0.00  0.00    +0.000 C 
ENDROOT
BRANCH   1  12
ATOM      9  C   UNL     1      -6.488  10.671  18.587  0.00  0.00    +0.000 C 
ATOM     10  C   UNL     1      -6.446  11.980  19.343  0.00  0.00    +0.000 A 
ATOM     11  C   UNL     1      -6.223  11.962  20.733  0.00  0.00    +0.000 A 
ATOM     12  C   UNL     1      -5.664  13.036  21.407  0.00  0.00    +0.000 A 
ATOM     13  C   UNL     1      -5.868  14.284  20.796  0.00  0.00    +0.000 A 
ATOM     14  C   UNL     1      -6.323  14.383  19.450  0.00  0.00    +0.000 A 
ATOM     15  C   UNL     1      -6.567  15.618  18.807  0.00  0.00    +0.000 A 
ATOM     16  C   UNL     1      -6.842  15.668  17.437  0.00  0.00    +0.000 A 
ATOM     17  C   UNL     1      -6.860  14.508  16.672  0.00  0.00    +0.000 A 
ATOM     18  C   UNL     1      -6.677  13.281  17.294  0.00  0.00    +0.000 A 
ATOM     19  C   UNL     1      -6.477  13.209  18.683  0.00  0.00    +0.000 A 
ENDBRANCH   1  12
BRANCH   8  20
ATOM     20  C   UNL     1      -2.203  13.710  21.074  0.00  0.00    +0.000 C 
ATOM     21  C   UNL     1      -1.203  14.778  20.568  0.00  0.00    +0.000 C 
BRANCH  20  22
ATOM     22  S   UNL     1      -1.974  11.943  20.777  0.00  0.00    +0.000 S 
BRANCH  22  23
ATOM     23  C   UNL     1      -0.751  11.248  21.761  0.00  0.00    +0.000 A 
ATOM     24  N   UNL     1      -0.841  11.105  23.062  0.00  0.00    +0.000 NA
ATOM     25  N   UNL     1      -0.018  10.052  23.433  0.00  0.00    +0.000 NA
ATOM     26  C   UNL     1       0.562   9.605  22.351  0.00  0.00    +0.000 A 
ATOM     27  N   UNL     1       0.175  10.345  21.271  0.00  0.00    +0.000 N 
ATOM     28  C   UNL     1       0.633  10.119  19.929  0.00  0.00    +0.000 C 
ENDBRANCH  22  23
ENDBRANCH  20  22
ENDBRANCH   8  20
TORSDOF 4
ENDMDL
MODEL 7
REMARK VINA RESULT:      -6.8      0.821      1.010
REMARK  Name = 
REMARK  7 active torsions:
REMARK  status: ('A' for Active; 'I' for Inactive)
REMARK    1  A    between atoms: C_1  and  C_2
REMARK    2  A    between atoms: C_4  and  C_5
REMARK    3  A    between atoms: C_12  and  C_13
REMARK    4  A    between atoms: C_13  and  C_14
REMARK    5  A    between atoms: C_13  and  S_15
REMARK    6  A    between atoms: S_15  and  C_16
REMARK    7  A    between atoms: N_20  and  C_21
REMARK                            x       y       z     vdW  Elec       q    Type
REMARK                         _______ _______ _______ _____ _____    ______ ____
ROOT
ATOM      1  C   UNL     1       0.782   9.685  21.954  0.00  0.00    +0.000 C 
ATOM      2  O   UNL     1       1.199   9.549  23.114  0.00  0.00    +0.000 OA
ATOM      3  N   UNL     1      -0.242  10.685  21.659  0.00  0.00    +0.000 N 
ATOM      4  C   UNL     1      -0.790  11.342  22.892  0.00  0.00    +0.000 C 
ATOM      5  C   UNL     1      -2.297  11.611  22.816  0.00  0.00    +0.000 C 
ATOM      6  C   UNL     1      -2.627  12.495  21.637  0.00  0.00    +0.000 C 
ATOM      7  C   UNL     1      -1.794  12.117  20.474  0.00  0.00    +0.000 C 
ATOM      8  C   UNL     1      -0.742  11.269  20.456  0.00  0.00    +0.000 C 
ENDROOT
BRANCH   1  12
ATOM      9  C   UNL     1       2.515   8.438  17.451  0.00  0.00    +0.000 C 
ATOM     10  C   UNL     1       2.208   7.943  18.848  0.00  0.00    +0.000 A 
ATOM     11  C   UNL     1       2.072   8.877  19.892  0.00  0.00    +0.000 A 
ATOM     12  C   UNL     1       1.314   8.620  21.022  0.00  0.00    +0.000 A 
ATOM     13  C   UNL     1       1.184   7.259  21.345  0.00  0.00    +0.000 A 
ATOM     14  C   UNL     1       1.527   6.241  20.410  0.00  0.00    +0.000 A 
ATOM     15  C   UNL     1       1.438   4.861  20.703  0.00  0.00    +0.000 A 
ATOM     16  C   UNL     1       1.616   3.904  19.701  0.00  0.00    +0.000 A 
ATOM     17  C   UNL     1       1.865   4.287  18.388  0.00  0.00    +0.000 A 
ATOM     18  C   UNL     1       2.011   5.634  18.089  0.00  0.00    +0.000 A 
ATOM     19  C   UNL     1       1.911   6.604  19.102  0.00  0.00    +0.000 A 
ENDBRANCH   1  12
BRANCH   8  20
ATOM     20  C   UNL     1      -0.116  11.219  19.089  0.00  0.00    +0.000 C 
ATOM     21  C   UNL     1      -0.886  10.218  18.193  0.00  0.00    +0.000 C 
BRANCH  20  22
ATOM     22  S   UNL     1       0.397  12.850  18.508  0.00  0.00    +0.000 S 
BRANCH  22  23
ATOM     23  C   UNL     1       1.943  13.317  19.089  0.00  0.00    +0.000 A 
ATOM     24  N   UNL     1       3.003  13.471  18.331  0.00  0.00    +0.000 NA
ATOM     25  N   UNL     1       3.856  14.361  18.965  0.00  0.00    +0.000 NA
ATOM     26  C   UNL     1       3.299  14.702  20.097  0.00  0.00    +0.000 A 
ATOM     27  N   UNL     1       2.113  14.044  20.253  0.00  0.00    +0.000 N 
ATOM     28  C   UNL     1       1.251  14.189  21.392  0.00  0.00    +0.000 C 
ENDBRANCH  22  23
ENDBRANCH  20  22
ENDBRANCH   8  20
TORSDOF 4
ENDMDL
MODEL 8
REMARK VINA RESULT:      -6.8      3.025      6.990
REMARK  Name = 
REMARK  7 active torsions:
REMARK  status: ('A' for Active; 'I' for Inactive)
REMARK    1  A    between atoms: C_1  and  C_2
REMARK    2  A    between atoms: C_4  and  C_5
REMARK    3  A    between atoms: C_12  and  C_13
REMARK    4  A    between atoms: C_13  and  C_14
REMARK    5  A    between atoms: C_13  and  S_15
REMARK    6  A    between atoms: S_15  and  C_16
REMARK    7  A    between atoms: N_20  and  C_21
REMARK                            x       y       z     vdW  Elec       q    Type
REMARK                         _______ _______ _______ _____ _____    ______ ____
ROOT
ATOM      1  C   UNL     1      -0.339  13.142  21.888  0.00  0.00    +0.000 C 
ATOM      2  O   UNL     1      -0.868  13.619  22.903  0.00  0.00    +0.000 OA
ATOM      3  N   UNL     1      -0.359  11.698  21.664  0.00  0.00    +0.000 N 
ATOM      4  C   UNL     1      -0.910  10.933  22.832  0.00  0.00    +0.000 C 
ATOM      5  C   UNL     1      -0.176   9.613  23.092  0.00  0.00    +0.000 C 
ATOM      6  C   UNL     1      -0.240   8.714  21.881  0.00  0.00    +0.000 C 
ATOM      7  C   UNL     1      -0.086   9.517  20.648  0.00  0.00    +0.000 C 
ATOM      8  C   UNL     1      -0.092  10.864  20.537  0.00  0.00    +0.000 C 
ENDROOT
BRANCH   1  12
ATOM      9  C   UNL     1      -0.338  16.635  18.334  0.00  0.00    +0.000 C 
ATOM     10  C   UNL     1       0.489  15.933  19.389  0.00  0.00    +0.000 A 
ATOM     11  C   UNL     1      -0.167  15.239  20.424  0.00  0.00    +0.000 A 
ATOM     12  C   UNL     1       0.422  14.179  21.094  0.00  0.00    +0.000 A 
ATOM     13  C   UNL     1       1.826  14.206  21.116  0.00  0.00    +0.000 A 
ATOM     14  C   UNL     1       2.563  15.064  20.250  0.00  0.00    +0.000 A 
ATOM     15  C   UNL     1       3.975  15.142  20.258  0.00  0.00    +0.000 A 
ATOM     16  C   UNL     1       4.657  15.864  19.275  0.00  0.00    +0.000 A 
ATOM     17  C   UNL     1       3.964  16.504  18.254  0.00  0.00    +0.000 A 
ATOM     18  C   UNL     1       2.576  16.486  18.259  0.00  0.00    +0.000 A 
ATOM     19  C   UNL     1       1.876  15.829  19.284  0.00  0.00    +0.000 A 
ENDBRANCH   1  12
BRANCH   8  20
ATOM     20  C   UNL     1       0.012  11.285  19.096  0.00  0.00    +0.000 C 
ATOM     21  C   UNL     1       1.461  11.732  18.782  0.00  0.00    +0.000 C 
BRANCH  20  22
ATOM     22  S   UNL     1      -0.935  10.211  17.996  0.00  0.00    +0.000 S 
BRANCH  22  23
ATOM     23  C   UNL     1      -2.597  10.631  17.909  0.00  0.00    +0.000 A 
ATOM     24  N   UNL     1      -3.215  11.390  18.783  0.00  0.00    +0.000 NA
ATOM     25  N   UNL     1      -4.299  11.976  18.149  0.00  0.00    +0.000 NA
ATOM     26  C   UNL     1      -4.319  11.539  16.917  0.00  0.00    +0.000 A 
ATOM     27  N   UNL     1      -3.298  10.654  16.718  0.00  0.00    +0.000 N 
ATOM     28  C   UNL     1      -3.040   9.984  15.474  0.00  0.00    +0.000 C 
ENDBRANCH  22  23
ENDBRANCH  20  22
ENDBRANCH   8  20
TORSDOF 4
ENDMDL
MODEL 9
REMARK VINA RESULT:      -6.8      1.209      1.607
REMARK  Name = 
REMARK  7 active torsions:
REMARK  status: ('A' for Active; 'I' for Inactive)
REMARK    1  A    between atoms: C_1  and  C_2
REMARK    2  A    between atoms: C_4  and  C_5
REMARK    3  A    between atoms: C_12  and  C_13
REMARK    4  A    between atoms: C_13  and  C_14
REMARK    5  A    between atoms: C_13  and  S_15
REMARK    6  A    between atoms: S_15  and  C_16
REMARK    7  A    between atoms: N_20  and  C_21
REMARK                            x       y       z     vdW  Elec       q    Type
REMARK                         _______ _______ _______ _____ _____    ______ ____
ROOT
ATOM      1  C   UNL     1       1.110   9.241  21.742  0.00  0.00    +0.000 C 
ATOM      2  O   UNL     1       1.621   9.186  22.870  0.00  0.00    +0.000 OA
ATOM      3  N   UNL     1       0.091  10.247  21.450  0.00  0.00    +0.000 N 
ATOM      4  C   UNL     1      -0.335  11.018  22.665  0.00  0.00    +0.000 C 
ATOM      5  C   UNL     1      -1.835  11.328  22.691  0.00  0.00    +0.000 C 
ATOM      6  C   UNL     1      -2.241  12.124  21.475  0.00  0.00    +0.000 C 
ATOM      7  C   UNL     1      -1.520  11.628  20.282  0.00  0.00    +0.000 C 
ATOM      8  C   UNL     1      -0.494  10.747  20.248  0.00  0.00    +0.000 C 
ENDROOT
BRANCH   1  12
ATOM      9  C   UNL     1       2.922   7.649  17.381  0.00  0.00    +0.000 C 
ATOM     10  C   UNL     1       2.455   7.237  18.760  0.00  0.00    +0.000 A 
ATOM     11  C   UNL     1       2.395   8.204  19.780  0.00  0.00    +0.000 A 
ATOM     12  C   UNL     1       1.535   8.088  20.861  0.00  0.00    +0.000 A 
ATOM     13  C   UNL     1       1.181   6.770  21.191  0.00  0.00    +0.000 A 
ATOM     14  C   UNL     1       1.426   5.692  20.293  0.00  0.00    +0.000 A 
ATOM     15  C   UNL     1       1.111   4.347  20.597  0.00  0.00    +0.000 A 
ATOM     16  C   UNL     1       1.208   3.352  19.620  0.00  0.00    +0.000 A 
ATOM     17  C   UNL     1       1.595   3.664  18.322  0.00  0.00    +0.000 A 
ATOM     18  C   UNL     1       1.962   4.968  18.018  0.00  0.00    +0.000 A 
ATOM     19  C   UNL     1       1.944   5.963  19.009  0.00  0.00    +0.000 A 
ENDBRANCH   1  12
BRANCH   8  20
ATOM     20  C   UNL     1       0.013  10.568  18.843  0.00  0.00    +0.000 C 
ATOM     21  C   UNL     1      -1.180  10.386  17.872  0.00  0.00    +0.000 C 
BRANCH  20  22
ATOM     22  S   UNL     1       1.412  11.648  18.474  0.00  0.00    +0.000 S 
BRANCH  22  23
ATOM     23  C   UNL     1       1.082  13.305  18.773  0.00  0.00    +0.000 A 
ATOM     24  N   UNL     1       0.054  13.955  18.281  0.00  0.00    +0.000 NA
ATOM     25  N   UNL     1      -0.226  15.015  19.130  0.00  0.00    +0.000 NA
ATOM     26  C   UNL     1       0.653  14.989  20.097  0.00  0.00    +0.000 A 
ATOM     27  N   UNL     1       1.531  13.962  19.903  0.00  0.00    +0.000 N 
ATOM     28  C   UNL     1       2.626  13.658  20.782  0.00  0.00    +0.000 C 
ENDBRANCH  22  23
ENDBRANCH  20  22
ENDBRANCH   8  20
TORSDOF 4
ENDMDL
