MODEL 1
REMARK VINA RESULT:      -9.0      0.000      0.000
REMARK  Name = 
REMARK  6 active torsions:
REMARK  status: ('A' for Active; 'I' for Inactive)
REMARK    1  A    between atoms: C_1  and  C_2
REMARK    2  A    between atoms: C_4  and  C_5
REMARK    3  A    between atoms: C_5  and  N_6
REMARK    4  A    between atoms: N_9  and  C_10
REMARK    5  A    between atoms: C_13  and  C_14
REMARK    6  A    between atoms: C_14  and  N_15
REMARK                            x       y       z     vdW  Elec       q    Type
REMARK                         _______ _______ _______ _____ _____    ______ ____
ROOT
ATOM      1  N   UNL     1       8.374   9.339  17.783  0.00  0.00    +0.000 N 
ATOM      2  C   UNL     1       7.706   8.145  17.946  0.00  0.00    +0.000 C 
ATOM      3  O   UNL     1       8.048   7.358  18.825  0.00  0.00    +0.000 OA
ATOM      4  N   UNL     1       6.720   7.937  17.011  0.00  0.00    +0.000 N 
ATOM      5  H   UNL     1       7.901  10.137  17.386  0.00  0.00    +0.000 HD
ATOM      6  H   UNL     1       6.761   8.527  16.194  0.00  0.00    +0.000 HD
ENDROOT
BRANCH   4   7
ATOM      7  C   UNL     1       5.977   6.732  16.906  0.00  0.00    +0.000 A 
ATOM      8  C   UNL     1       4.617   6.657  17.221  0.00  0.00    +0.000 A 
ATOM      9  C   UNL     1       3.967   5.427  17.312  0.00  0.00    +0.000 A 
ATOM     10  C   UNL     1       4.661   4.240  17.069  0.00  0.00    +0.000 A 
ATOM     11  C   UNL     1       5.984   4.318  16.612  0.00  0.00    +0.000 A 
ATOM     12  C   UNL     1       6.639   5.559  16.530  0.00  0.00    +0.000 A 
BRANCH  10  13
ATOM     13  C   UNL     1       3.991   2.913  17.336  0.00  0.00    +0.000 C 
BRANCH  13  14
ATOM     14  N   UNL     1       3.228   2.918  18.561  0.00  0.00    +0.000 N 
ATOM     15  C   UNL     1       3.789   2.742  19.789  0.00  0.00    +0.000 C 
ATOM     16  O   UNL     1       4.977   2.608  20.041  0.00  0.00    +0.000 OA
ATOM     17  C   UNL     1       2.699   2.728  20.817  0.00  0.00    +0.000 C 
ATOM     18  C   UNL     1       1.455   3.145  20.055  0.00  0.00    +0.000 C 
ATOM     19  C   UNL     1       1.891   3.181  18.618  0.00  0.00    +0.000 C 
ATOM     20  O   UNL     1       1.151   3.450  17.684  0.00  0.00    +0.000 OA
ENDBRANCH  13  14
ENDBRANCH  10  13
ENDBRANCH   4   7
BRANCH   1  21
ATOM     21  C   UNL     1       9.413   9.614  18.747  0.00  0.00    +0.000 C 
BRANCH  21  25
ATOM     22  C   UNL     1      11.410  13.801  16.955  0.00  0.00    +0.000 C 
ATOM     23  C   UNL     1      10.776  12.809  17.858  0.00  0.00    +0.000 A 
ATOM     24  N   UNL     1      10.443  11.571  17.531  0.00  0.00    +0.000 NA
ATOM     25  C   UNL     1       9.912  11.011  18.676  0.00  0.00    +0.000 A 
ATOM     26  C   UNL     1       9.902  11.935  19.700  0.00  0.00    +0.000 A 
ATOM     27  C   UNL     1       9.476  11.951  21.058  0.00  0.00    +0.000 A 
ATOM     28  C   UNL     1       9.628  13.075  21.786  0.00  0.00    +0.000 A 
ATOM     29  C   UNL     1      10.219  14.274  21.213  0.00  0.00    +0.000 A 
ATOM     30  C   UNL     1      10.620  14.257  19.929  0.00  0.00    +0.000 A 
ATOM     31  N   UNL     1      10.460  13.090  19.176  0.00  0.00    +0.000 N 
ENDBRANCH  21  25
ENDBRANCH   1  21
TORSDOF 5
ENDMDL
MODEL 2
REMARK VINA RESULT:      -8.9      0.826      2.374
REMARK  Name = 
REMARK  6 active torsions:
REMARK  status: ('A' for Active; 'I' for Inactive)
REMARK    1  A    between atoms: C_1  and  C_2
REMARK    2  A    between atoms: C_4  and  C_5
REMARK    3  A    between atoms: C_5  and  N_6
REMARK    4  A    between atoms: N_9  and  C_10
REMARK    5  A    between atoms: C_13  and  C_14
REMARK    6  A    between atoms: C_14  and  N_15
REMARK                            x       y       z     vdW  Elec       q    Type
REMARK                         _______ _______ _______ _____ _____    ______ ____
ROOT
ATOM      1  N   UNL     1       8.182   9.169  17.761  0.00  0.00    +0.000 N 
ATOM      2  C   UNL     1       7.556   7.953  17.918  0.00  0.00    +0.000 C 
ATOM      3  O   UNL     1       8.071   7.075  18.606  0.00  0.00    +0.000 OA
ATOM      4  N   UNL     1       6.393   7.836  17.194  0.00  0.00    +0.000 N 
ATOM      5  H   UNL     1       7.642  10.000  17.568  0.00  0.00    +0.000 HD
ATOM      6  H   UNL     1       6.265   8.519  16.461  0.00  0.00    +0.000 HD
ENDROOT
BRANCH   4   7
ATOM      7  C   UNL     1       5.637   6.639  17.105  0.00  0.00    +0.000 A 
ATOM      8  C   UNL     1       4.294   6.568  17.486  0.00  0.00    +0.000 A 
ATOM      9  C   UNL     1       3.639   5.341  17.590  0.00  0.00    +0.000 A 
ATOM     10  C   UNL     1       4.312   4.154  17.293  0.00  0.00    +0.000 A 
ATOM     11  C   UNL     1       5.611   4.230  16.773  0.00  0.00    +0.000 A 
ATOM     12  C   UNL     1       6.270   5.468  16.678  0.00  0.00    +0.000 A 
BRANCH  10  13
ATOM     13  C   UNL     1       3.646   2.827  17.571  0.00  0.00    +0.000 C 
BRANCH  13  14
ATOM     14  N   UNL     1       3.011   2.791  18.866  0.00  0.00    +0.000 N 
ATOM     15  C   UNL     1       1.660   2.850  19.037  0.00  0.00    +0.000 C 
ATOM     16  O   UNL     1       0.811   2.890  18.159  0.00  0.00    +0.000 OA
ATOM     17  C   UNL     1       1.362   2.866  20.504  0.00  0.00    +0.000 C 
ATOM     18  C   UNL     1       2.697   2.582  21.165  0.00  0.00    +0.000 C 
ATOM     19  C   UNL     1       3.687   2.612  20.036  0.00  0.00    +0.000 C 
ATOM     20  O   UNL     1       4.890   2.453  20.176  0.00  0.00    +0.000 OA
ENDBRANCH  13  14
ENDBRANCH  10  13
ENDBRANCH   4   7
BRANCH   1  21
ATOM     21  C   UNL     1       9.403   9.349  18.509  0.00  0.00    +0.000 C 
BRANCH  21  25
ATOM     22  C   UNL     1       9.006  12.717  22.146  0.00  0.00    +0.000 C 
ATOM     23  C   UNL     1       9.275  12.073  20.837  0.00  0.00    +0.000 A 
ATOM     24  N   UNL     1       9.107  10.791  20.559  0.00  0.00    +0.000 NA
ATOM     25  C   UNL     1       9.454  10.647  19.230  0.00  0.00    +0.000 A 
ATOM     26  C   UNL     1       9.862  11.857  18.709  0.00  0.00    +0.000 A 
ATOM     27  C   UNL     1      10.338  12.318  17.449  0.00  0.00    +0.000 A 
ATOM     28  C   UNL     1      10.654  13.619  17.298  0.00  0.00    +0.000 A 
ATOM     29  C   UNL     1      10.518  14.564  18.395  0.00  0.00    +0.000 A 
ATOM     30  C   UNL     1      10.069  14.125  19.584  0.00  0.00    +0.000 A 
ATOM     31  N   UNL     1       9.744  12.775  19.740  0.00  0.00    +0.000 N 
ENDBRANCH  21  25
ENDBRANCH   1  21
TORSDOF 5
ENDMDL
MODEL 3
REMARK VINA RESULT:      -8.8      0.620      1.522
REMARK  Name = 
REMARK  6 active torsions:
REMARK  status: ('A' for Active; 'I' for Inactive)
REMARK    1  A    between atoms: C_1  and  C_2
REMARK    2  A    between atoms: C_4  and  C_5
REMARK    3  A    between atoms: C_5  and  N_6
REMARK    4  A    between atoms: N_9  and  C_10
REMARK    5  A    between atoms: C_13  and  C_14
REMARK    6  A    between atoms: C_14  and  N_15
REMARK                            x       y       z     vdW  Elec       q    Type
REMARK                         _______ _______ _______ _____ _____    ______ ____
ROOT
ATOM      1  N   UNL     1       8.503   9.662  17.995  0.00  0.00    +0.000 N 
ATOM      2  C   UNL     1       8.013   8.382  18.133  0.00  0.00    +0.000 C 
ATOM      3  O   UNL     1       8.515   7.609  18.945  0.00  0.00    +0.000 OA
ATOM      4  N   UNL     1       7.002   8.084  17.250  0.00  0.00    +0.000 N 
ATOM      5  H   UNL     1       7.902  10.405  17.671  0.00  0.00    +0.000 HD
ATOM      6  H   UNL     1       6.908   8.711  16.465  0.00  0.00    +0.000 HD
ENDROOT
BRANCH   4   7
ATOM      7  C   UNL     1       6.420   6.795  17.124  0.00  0.00    +0.000 A 
ATOM      8  C   UNL     1       5.301   6.550  16.325  0.00  0.00    +0.000 A 
ATOM      9  C   UNL     1       4.626   5.331  16.385  0.00  0.00    +0.000 A 
ATOM     10  C   UNL     1       5.072   4.318  17.236  0.00  0.00    +0.000 A 
ATOM     11  C   UNL     1       6.276   4.506  17.930  0.00  0.00    +0.000 A 
ATOM     12  C   UNL     1       6.947   5.738  17.874  0.00  0.00    +0.000 A 
BRANCH  10  13
ATOM     13  C   UNL     1       4.238   3.071  17.416  0.00  0.00    +0.000 C 
BRANCH  13  14
ATOM     14  N   UNL     1       3.379   3.146  18.573  0.00  0.00    +0.000 N 
ATOM     15  C   UNL     1       2.082   3.556  18.513  0.00  0.00    +0.000 C 
ATOM     16  O   UNL     1       1.455   3.863  17.509  0.00  0.00    +0.000 OA
ATOM     17  C   UNL     1       1.522   3.583  19.901  0.00  0.00    +0.000 C 
ATOM     18  C   UNL     1       2.589   2.922  20.752  0.00  0.00    +0.000 C 
ATOM     19  C   UNL     1       3.751   2.738  19.820  0.00  0.00    +0.000 C 
ATOM     20  O   UNL     1       4.824   2.257  20.149  0.00  0.00    +0.000 OA
ENDBRANCH  13  14
ENDBRANCH  10  13
ENDBRANCH   4   7
BRANCH   1  21
ATOM     21  C   UNL     1       9.559  10.032  18.907  0.00  0.00    +0.000 C 
BRANCH  21  25
ATOM     22  C   UNL     1      11.410  14.109  16.743  0.00  0.00    +0.000 C 
ATOM     23  C   UNL     1      10.825  13.176  17.737  0.00  0.00    +0.000 A 
ATOM     24  N   UNL     1      10.509  11.911  17.516  0.00  0.00    +0.000 NA
ATOM     25  C   UNL     1      10.026  11.429  18.716  0.00  0.00    +0.000 A 
ATOM     26  C   UNL     1      10.026  12.428  19.667  0.00  0.00    +0.000 A 
ATOM     27  C   UNL     1       9.641  12.538  21.033  0.00  0.00    +0.000 A 
ATOM     28  C   UNL     1       9.790  13.717  21.668  0.00  0.00    +0.000 A 
ATOM     29  C   UNL     1      10.338  14.880  20.989  0.00  0.00    +0.000 A 
ATOM     30  C   UNL     1      10.701  14.773  19.698  0.00  0.00    +0.000 A 
ATOM     31  N   UNL     1      10.543  13.550  19.040  0.00  0.00    +0.000 N 
ENDBRANCH  21  25
ENDBRANCH   1  21
TORSDOF 5
ENDMDL
MODEL 4
REMARK VINA RESULT:      -8.8      0.692      1.901
REMARK  Name = 
REMARK  6 active torsions:
REMARK  status: ('A' for Active; 'I' for Inactive)
REMARK    1  A    between atoms: C_1  and  C_2
REMARK    2  A    between atoms: C_4  and  C_5
REMARK    3  A    between atoms: C_5  and  N_6
REMARK    4  A    between atoms: N_9  and  C_10
REMARK    5  A    between atoms: C_13  and  C_14
REMARK    6  A    between atoms: C_14  and  N_15
REMARK                            x       y       z     vdW  Elec       q    Type
REMARK                         _______ _______ _______ _____ _____    ______ ____
ROOT
ATOM      1  N   UNL     1       8.381   9.332  17.857  0.00  0.00    +0.000 N 
ATOM      2  C   UNL     1       7.752   8.114  17.992  0.00  0.00    +0.000 C 
ATOM      3  O   UNL     1       8.183   7.277  18.783  0.00  0.00    +0.000 OA
ATOM      4  N   UNL     1       6.692   7.945  17.133  0.00  0.00    +0.000 N 
ATOM      5  H   UNL     1       7.861  10.143  17.558  0.00  0.00    +0.000 HD
ATOM      6  H   UNL     1       6.652   8.590  16.358  0.00  0.00    +0.000 HD
ENDROOT
BRANCH   4   7
ATOM      7  C   UNL     1       5.965   6.732  17.007  0.00  0.00    +0.000 A 
ATOM      8  C   UNL     1       4.608   6.634  17.323  0.00  0.00    +0.000 A 
ATOM      9  C   UNL     1       3.974   5.394  17.394  0.00  0.00    +0.000 A 
ATOM     10  C   UNL     1       4.684   4.221  17.129  0.00  0.00    +0.000 A 
ATOM     11  C   UNL     1       6.004   4.325  16.671  0.00  0.00    +0.000 A 
ATOM     12  C   UNL     1       6.642   5.575  16.610  0.00  0.00    +0.000 A 
BRANCH  10  13
ATOM     13  C   UNL     1       4.032   2.881  17.374  0.00  0.00    +0.000 C 
BRANCH  13  14
ATOM     14  N   UNL     1       3.280   2.851  18.605  0.00  0.00    +0.000 N 
ATOM     15  C   UNL     1       3.857   2.674  19.826  0.00  0.00    +0.000 C 
ATOM     16  O   UNL     1       5.051   2.570  20.066  0.00  0.00    +0.000 OA
ATOM     17  C   UNL     1       2.778   2.619  20.864  0.00  0.00    +0.000 C 
ATOM     18  C   UNL     1       1.517   3.011  20.118  0.00  0.00    +0.000 C 
ATOM     19  C   UNL     1       1.938   3.076  18.678  0.00  0.00    +0.000 C 
ATOM     20  O   UNL     1       1.182   3.336  17.754  0.00  0.00    +0.000 OA
ENDBRANCH  13  14
ENDBRANCH  10  13
ENDBRANCH   4   7
BRANCH   1  21
ATOM     21  C   UNL     1       9.495   9.566  18.745  0.00  0.00    +0.000 C 
BRANCH  21  25
ATOM     22  C   UNL     1       8.957  13.546  21.679  0.00  0.00    +0.000 C 
ATOM     23  C   UNL     1       9.316  12.665  20.540  0.00  0.00    +0.000 A 
ATOM     24  N   UNL     1       9.088  11.364  20.469  0.00  0.00    +0.000 NA
ATOM     25  C   UNL     1       9.561  10.967  19.234  0.00  0.00    +0.000 A 
ATOM     26  C   UNL     1      10.104  12.042  18.562  0.00  0.00    +0.000 A 
ATOM     27  C   UNL     1      10.739  12.247  17.304  0.00  0.00    +0.000 A 
ATOM     28  C   UNL     1      11.159  13.482  16.968  0.00  0.00    +0.000 A 
ATOM     29  C   UNL     1      10.976  14.613  17.864  0.00  0.00    +0.000 A 
ATOM     30  C   UNL     1      10.377  14.418  19.052  0.00  0.00    +0.000 A 
ATOM     31  N   UNL     1       9.944  13.135  19.399  0.00  0.00    +0.000 N 
ENDBRANCH  21  25
ENDBRANCH   1  21
TORSDOF 5
ENDMDL
MODEL 5
REMARK VINA RESULT:      -8.5      5.826      9.014
REMARK  Name = 
REMARK  6 active torsions:
REMARK  status: ('A' for Active; 'I' for Inactive)
REMARK    1  A    between atoms: C_1  and  C_2
REMARK    2  A    between atoms: C_4  and  C_5
REMARK    3  A    between atoms: C_5  and  N_6
REMARK    4  A    between atoms: N_9  and  C_10
REMARK    5  A    between atoms: C_13  and  C_14
REMARK    6  A    between atoms: C_14  and  N_15
REMARK                            x       y       z     vdW  Elec       q    Type
REMARK                         _______ _______ _______ _____ _____    ______ ____
ROOT
ATOM      1  N   UNL     1       2.921   5.387  20.372  0.00  0.00    +0.000 N 
ATOM      2  C   UNL     1       2.319   6.453  19.741  0.00  0.00    +0.000 C 
ATOM      3  O   UNL     1       2.301   6.518  18.514  0.00  0.00    +0.000 OA
ATOM      4  N   UNL     1       1.837   7.404  20.609  0.00  0.00    +0.000 N 
ATOM      5  H   UNL     1       2.616   5.100  21.290  0.00  0.00    +0.000 HD
ATOM      6  H   UNL     1       2.187   7.349  21.554  0.00  0.00    +0.000 HD
ENDROOT
BRANCH   4   7
ATOM      7  C   UNL     1       1.282   8.642  20.192  0.00  0.00    +0.000 A 
ATOM      8  C   UNL     1       0.259   9.282  20.897  0.00  0.00    +0.000 A 
ATOM      9  C   UNL     1      -0.410  10.379  20.356  0.00  0.00    +0.000 A 
ATOM     10  C   UNL     1      -0.054  10.876  19.100  0.00  0.00    +0.000 A 
ATOM     11  C   UNL     1       1.065  10.329  18.456  0.00  0.00    +0.000 A 
ATOM     12  C   UNL     1       1.730   9.218  19.000  0.00  0.00    +0.000 A 
BRANCH  10  13
ATOM     13  C   UNL     1      -0.894  11.953  18.456  0.00  0.00    +0.000 C 
BRANCH  13  14
ATOM     14  N   UNL     1      -2.262  11.539  18.258  0.00  0.00    +0.000 N 
ATOM     15  C   UNL     1      -2.631  10.593  17.349  0.00  0.00    +0.000 C 
ATOM     16  O   UNL     1      -1.891   9.940  16.629  0.00  0.00    +0.000 OA
ATOM     17  C   UNL     1      -4.123  10.474  17.360  0.00  0.00    +0.000 C 
ATOM     18  C   UNL     1      -4.561  11.308  18.549  0.00  0.00    +0.000 C 
ATOM     19  C   UNL     1      -3.305  11.990  19.010  0.00  0.00    +0.000 C 
ATOM     20  O   UNL     1      -3.257  12.779  19.942  0.00  0.00    +0.000 OA
ENDBRANCH  13  14
ENDBRANCH  10  13
ENDBRANCH   4   7
BRANCH   1  21
ATOM     21  C   UNL     1       3.434   4.352  19.506  0.00  0.00    +0.000 C 
BRANCH  21  25
ATOM     22  C   UNL     1       8.180   5.822  19.281  0.00  0.00    +0.000 C 
ATOM     23  C   UNL     1       6.839   5.304  18.911  0.00  0.00    +0.000 A 
ATOM     24  N   UNL     1       5.820   5.142  19.737  0.00  0.00    +0.000 NA
ATOM     25  C   UNL     1       4.780   4.667  18.963  0.00  0.00    +0.000 A 
ATOM     26  C   UNL     1       5.190   4.516  17.654  0.00  0.00    +0.000 A 
ATOM     27  C   UNL     1       4.594   4.065  16.443  0.00  0.00    +0.000 A 
ATOM     28  C   UNL     1       5.324   4.054  15.311  0.00  0.00    +0.000 A 
ATOM     29  C   UNL     1       6.710   4.496  15.299  0.00  0.00    +0.000 A 
ATOM     30  C   UNL     1       7.271   4.921  16.445  0.00  0.00    +0.000 A 
ATOM     31  N   UNL     1       6.512   4.929  17.619  0.00  0.00    +0.000 N 
ENDBRANCH  21  25
ENDBRANCH   1  21
TORSDOF 5
ENDMDL
MODEL 6
REMARK VINA RESULT:      -8.5      5.854      9.032
REMARK  Name = 
REMARK  6 active torsions:
REMARK  status: ('A' for Active; 'I' for Inactive)
REMARK    1  A    between atoms: C_1  and  C_2
REMARK    2  A    between atoms: C_4  and  C_5
REMARK    3  A    between atoms: C_5  and  N_6
REMARK    4  A    between atoms: N_9  and  C_10
REMARK    5  A    between atoms: C_13  and  C_14
REMARK    6  A    between atoms: C_14  and  N_15
REMARK                            x       y       z     vdW  Elec       q    Type
REMARK                         _______ _______ _______ _____ _____    ______ ____
ROOT
ATOM      1  N   UNL     1       2.914   5.361  20.359  0.00  0.00    +0.000 N 
ATOM      2  C   UNL     1       2.308   6.427  19.732  0.00  0.00    +0.000 C 
ATOM      3  O   UNL     1       2.290   6.496  18.505  0.00  0.00    +0.000 OA
ATOM      4  N   UNL     1       1.821   7.372  20.604  0.00  0.00    +0.000 N 
ATOM      5  H   UNL     1       2.610   5.069  21.276  0.00  0.00    +0.000 HD
ATOM      6  H   UNL     1       2.171   7.316  21.549  0.00  0.00    +0.000 HD
ENDROOT
BRANCH   4   7
ATOM      7  C   UNL     1       1.260   8.609  20.191  0.00  0.00    +0.000 A 
ATOM      8  C   UNL     1       0.260   9.260  20.917  0.00  0.00    +0.000 A 
ATOM      9  C   UNL     1      -0.419  10.356  20.385  0.00  0.00    +0.000 A 
ATOM     10  C   UNL     1      -0.094  10.840  19.116  0.00  0.00    +0.000 A 
ATOM     11  C   UNL     1       1.004  10.283  18.446  0.00  0.00    +0.000 A 
ATOM     12  C   UNL     1       1.679   9.173  18.982  0.00  0.00    +0.000 A 
BRANCH  10  13
ATOM     13  C   UNL     1      -0.946  11.915  18.485  0.00  0.00    +0.000 C 
BRANCH  13  14
ATOM     14  N   UNL     1      -2.317  11.500  18.311  0.00  0.00    +0.000 N 
ATOM     15  C   UNL     1      -3.345  11.990  19.058  0.00  0.00    +0.000 C 
ATOM     16  O   UNL     1      -3.279  12.856  19.919  0.00  0.00    +0.000 OA
ATOM     17  C   UNL     1      -4.605  11.286  18.662  0.00  0.00    +0.000 C 
ATOM     18  C   UNL     1      -4.220  10.484  17.433  0.00  0.00    +0.000 C 
ATOM     19  C   UNL     1      -2.730  10.643  17.334  0.00  0.00    +0.000 C 
ATOM     20  O   UNL     1      -2.040  10.114  16.477  0.00  0.00    +0.000 OA
ENDBRANCH  13  14
ENDBRANCH  10  13
ENDBRANCH   4   7
BRANCH   1  21
ATOM     21  C   UNL     1       3.433   4.332  19.490  0.00  0.00    +0.000 C 
BRANCH  21  25
ATOM     22  C   UNL     1       8.178   5.808  19.299  0.00  0.00    +0.000 C 
ATOM     23  C   UNL     1       6.840   5.291  18.919  0.00  0.00    +0.000 A 
ATOM     24  N   UNL     1       5.816   5.124  19.739  0.00  0.00    +0.000 NA
ATOM     25  C   UNL     1       4.782   4.651  18.957  0.00  0.00    +0.000 A 
ATOM     26  C   UNL     1       5.199   4.506  17.650  0.00  0.00    +0.000 A 
ATOM     27  C   UNL     1       4.611   4.059  16.432  0.00  0.00    +0.000 A 
ATOM     28  C   UNL     1       5.348   4.055  15.305  0.00  0.00    +0.000 A 
ATOM     29  C   UNL     1       6.733   4.498  15.303  0.00  0.00    +0.000 A 
ATOM     30  C   UNL     1       7.287   4.919  16.455  0.00  0.00    +0.000 A 
ATOM     31  N   UNL     1       6.521   4.921  17.624  0.00  0.00    +0.000 N 
ENDBRANCH  21  25
ENDBRANCH   1  21
TORSDOF 5
ENDMDL
MODEL 7
REMARK VINA RESULT:      -8.4      7.090      9.856
REMARK  Name = 
REMARK  6 active torsions:
REMARK  status: ('A' for Active; 'I' for Inactive)
REMARK    1  A    between atoms: C_1  and  C_2
REMARK    2  A    between atoms: C_4  and  C_5
REMARK    3  A    between atoms: C_5  and  N_6
REMARK    4  A    between atoms: N_9  and  C_10
REMARK    5  A    between atoms: C_13  and  C_14
REMARK    6  A    between atoms: C_14  and  N_15
REMARK                            x       y       z     vdW  Elec       q    Type
REMARK                         _______ _______ _______ _____ _____    ______ ____
ROOT
ATOM      1  N   UNL     1      -0.624  10.917  20.738  0.00  0.00    +0.000 N 
ATOM      2  C   UNL     1       0.344  10.306  19.972  0.00  0.00    +0.000 C 
ATOM      3  O   UNL     1       0.726  10.825  18.926  0.00  0.00    +0.000 OA
ATOM      4  N   UNL     1       0.746   9.087  20.466  0.00  0.00    +0.000 N 
ATOM      5  H   UNL     1      -0.663  10.757  21.734  0.00  0.00    +0.000 HD
ATOM      6  H   UNL     1       0.137   8.673  21.156  0.00  0.00    +0.000 HD
ENDROOT
BRANCH   4   7
ATOM      7  C   UNL     1       1.645   8.222  19.790  0.00  0.00    +0.000 A 
ATOM      8  C   UNL     1       2.155   8.509  18.521  0.00  0.00    +0.000 A 
ATOM      9  C   UNL     1       2.862   7.551  17.796  0.00  0.00    +0.000 A 
ATOM     10  C   UNL     1       3.093   6.284  18.337  0.00  0.00    +0.000 A 
ATOM     11  C   UNL     1       2.712   6.041  19.663  0.00  0.00    +0.000 A 
ATOM     12  C   UNL     1       1.992   7.006  20.387  0.00  0.00    +0.000 A 
BRANCH  10  13
ATOM     13  C   UNL     1       3.710   5.206  17.478  0.00  0.00    +0.000 C 
BRANCH  13  14
ATOM     14  N   UNL     1       5.149   5.299  17.426  0.00  0.00    +0.000 N 
ATOM     15  C   UNL     1       5.969   4.659  18.305  0.00  0.00    +0.000 C 
ATOM     16  O   UNL     1       5.634   3.900  19.202  0.00  0.00    +0.000 OA
ATOM     17  C   UNL     1       7.386   5.040  18.004  0.00  0.00    +0.000 C 
ATOM     18  C   UNL     1       7.302   5.806  16.697  0.00  0.00    +0.000 C 
ATOM     19  C   UNL     1       5.830   5.965  16.451  0.00  0.00    +0.000 C 
ATOM     20  O   UNL     1       5.356   6.561  15.496  0.00  0.00    +0.000 OA
ENDBRANCH  13  14
ENDBRANCH  10  13
ENDBRANCH   4   7
BRANCH   1  21
ATOM     21  C   UNL     1      -1.074  12.207  20.271  0.00  0.00    +0.000 C 
BRANCH  21  25
ATOM     22  C   UNL     1      -6.008  12.712  19.901  0.00  0.00    +0.000 C 
ATOM     23  C   UNL     1      -4.588  12.416  19.588  0.00  0.00    +0.000 A 
ATOM     24  N   UNL     1      -3.563  12.606  20.402  0.00  0.00    +0.000 NA
ATOM     25  C   UNL     1      -2.449  12.172  19.710  0.00  0.00    +0.000 A 
ATOM     26  C   UNL     1      -2.808  11.738  18.451  0.00  0.00    +0.000 A 
ATOM     27  C   UNL     1      -2.125  11.215  17.317  0.00  0.00    +0.000 A 
ATOM     28  C   UNL     1      -2.827  10.886  16.215  0.00  0.00    +0.000 A 
ATOM     29  C   UNL     1      -4.271  11.053  16.160  0.00  0.00    +0.000 A 
ATOM     30  C   UNL     1      -4.914  11.548  17.232  0.00  0.00    +0.000 A 
ATOM     31  N   UNL     1      -4.183  11.891  18.373  0.00  0.00    +0.000 N 
ENDBRANCH  21  25
ENDBRANCH   1  21
TORSDOF 5
ENDMDL
MODEL 8
REMARK VINA RESULT:      -8.4      2.926     10.555
REMARK  Name = 
REMARK  6 active torsions:
REMARK  status: ('A' for Active; 'I' for Inactive)
REMARK    1  A    between atoms: C_1  and  C_2
REMARK    2  A    between atoms: C_4  and  C_5
REMARK    3  A    between atoms: C_5  and  N_6
REMARK    4  A    between atoms: N_9  and  C_10
REMARK    5  A    between atoms: C_13  and  C_14
REMARK    6  A    between atoms: C_14  and  N_15
REMARK                            x       y       z     vdW  Elec       q    Type
REMARK                         _______ _______ _______ _____ _____    ______ ____
ROOT
ATOM      1  N   UNL     1       8.052   6.838  18.329  0.00  0.00    +0.000 N 
ATOM      2  C   UNL     1       8.165   8.206  18.212  0.00  0.00    +0.000 C 
ATOM      3  O   UNL     1       7.619   8.796  17.283  0.00  0.00    +0.000 OA
ATOM      4  N   UNL     1       8.973   8.773  19.168  0.00  0.00    +0.000 N 
ATOM      5  H   UNL     1       8.122   6.396  19.234  0.00  0.00    +0.000 HD
ATOM      6  H   UNL     1       9.573   8.134  19.668  0.00  0.00    +0.000 HD
ENDROOT
BRANCH   4   7
ATOM      7  C   UNL     1       9.332  10.147  19.182  0.00  0.00    +0.000 A 
ATOM      8  C   UNL     1       9.732  10.831  18.031  0.00  0.00    +0.000 A 
ATOM      9  C   UNL     1      10.278  12.111  18.109  0.00  0.00    +0.000 A 
ATOM     10  C   UNL     1      10.419  12.746  19.345  0.00  0.00    +0.000 A 
ATOM     11  C   UNL     1       9.887  12.124  20.483  0.00  0.00    +0.000 A 
ATOM     12  C   UNL     1       9.345  10.831  20.402  0.00  0.00    +0.000 A 
BRANCH  10  13
ATOM     13  C   UNL     1      11.164  14.057  19.432  0.00  0.00    +0.000 C 
BRANCH  13  14
ATOM     14  N   UNL     1      10.378  15.170  18.958  0.00  0.00    +0.000 N 
ATOM     15  C   UNL     1       9.474  15.829  19.735  0.00  0.00    +0.000 C 
ATOM     16  O   UNL     1       9.234  15.624  20.916  0.00  0.00    +0.000 OA
ATOM     17  C   UNL     1       8.792  16.869  18.901  0.00  0.00    +0.000 C 
ATOM     18  C   UNL     1       9.572  16.882  17.600  0.00  0.00    +0.000 C 
ATOM     19  C   UNL     1      10.518  15.722  17.719  0.00  0.00    +0.000 C 
ATOM     20  O   UNL     1      11.303  15.387  16.846  0.00  0.00    +0.000 OA
ENDBRANCH  13  14
ENDBRANCH  10  13
ENDBRANCH   4   7
BRANCH   1  21
ATOM     21  C   UNL     1       7.205   6.191  17.356  0.00  0.00    +0.000 C 
BRANCH  21  25
ATOM     22  C   UNL     1       4.460   2.778  19.711  0.00  0.00    +0.000 C 
ATOM     23  C   UNL     1       4.883   4.011  19.001  0.00  0.00    +0.000 A 
ATOM     24  N   UNL     1       6.111   4.284  18.595  0.00  0.00    +0.000 NA
ATOM     25  C   UNL     1       6.034   5.512  17.968  0.00  0.00    +0.000 A 
ATOM     26  C   UNL     1       4.744   5.996  18.021  0.00  0.00    +0.000 A 
ATOM     27  C   UNL     1       4.075   7.173  17.582  0.00  0.00    +0.000 A 
ATOM     28  C   UNL     1       2.756   7.311  17.818  0.00  0.00    +0.000 A 
ATOM     29  C   UNL     1       1.998   6.281  18.511  0.00  0.00    +0.000 A 
ATOM     30  C   UNL     1       2.633   5.170  18.926  0.00  0.00    +0.000 A 
ATOM     31  N   UNL     1       4.002   5.030  18.683  0.00  0.00    +0.000 N 
ENDBRANCH  21  25
ENDBRANCH   1  21
TORSDOF 5
ENDMDL
MODEL 9
REMARK VINA RESULT:      -8.4      1.026      1.871
REMARK  Name = 
REMARK  6 active torsions:
REMARK  status: ('A' for Active; 'I' for Inactive)
REMARK    1  A    between atoms: C_1  and  C_2
REMARK    2  A    between atoms: C_4  and  C_5
REMARK    3  A    between atoms: C_5  and  N_6
REMARK    4  A    between atoms: N_9  and  C_10
REMARK    5  A    between atoms: C_13  and  C_14
REMARK    6  A    between atoms: C_14  and  N_15
REMARK                            x       y       z     vdW  Elec       q    Type
REMARK                         _______ _______ _______ _____ _____    ______ ____
ROOT
ATOM      1  N   UNL     1       8.379   9.641  17.604  0.00  0.00    +0.000 N 
ATOM      2  C   UNL     1       7.905   8.389  17.928  0.00  0.00    +0.000 C 
ATOM      3  O   UNL     1       8.472   7.714  18.783  0.00  0.00    +0.000 OA
ATOM      4  N   UNL     1       6.829   7.996  17.168  0.00  0.00    +0.000 N 
ATOM      5  H   UNL     1       7.752  10.345  17.243  0.00  0.00    +0.000 HD
ATOM      6  H   UNL     1       6.672   8.528  16.324  0.00  0.00    +0.000 HD
ENDROOT
BRANCH   4   7
ATOM      7  C   UNL     1       6.244   6.704  17.239  0.00  0.00    +0.000 A 
ATOM      8  C   UNL     1       6.416   5.745  16.238  0.00  0.00    +0.000 A 
ATOM      9  C   UNL     1       5.664   4.571  16.230  0.00  0.00    +0.000 A 
ATOM     10  C   UNL     1       4.732   4.321  17.241  0.00  0.00    +0.000 A 
ATOM     11  C   UNL     1       4.661   5.210  18.322  0.00  0.00    +0.000 A 
ATOM     12  C   UNL     1       5.414   6.396  18.322  0.00  0.00    +0.000 A 
BRANCH  10  13
ATOM     13  C   UNL     1       3.808   3.132  17.129  0.00  0.00    +0.000 C 
BRANCH  13  14
ATOM     14  N   UNL     1       2.891   3.041  18.238  0.00  0.00    +0.000 N 
ATOM     15  C   UNL     1       1.627   3.547  18.204  0.00  0.00    +0.000 C 
ATOM     16  O   UNL     1       1.078   4.087  17.255  0.00  0.00    +0.000 OA
ATOM     17  C   UNL     1       0.991   3.343  19.545  0.00  0.00    +0.000 C 
ATOM     18  C   UNL     1       1.966   2.453  20.294  0.00  0.00    +0.000 C 
ATOM     19  C   UNL     1       3.166   2.373  19.395  0.00  0.00    +0.000 C 
ATOM     20  O   UNL     1       4.187   1.761  19.669  0.00  0.00    +0.000 OA
ENDBRANCH  13  14
ENDBRANCH  10  13
ENDBRANCH   4   7
BRANCH   1  21
ATOM     21  C   UNL     1       9.502  10.109  18.380  0.00  0.00    +0.000 C 
BRANCH  21  25
ATOM     22  C   UNL     1       9.347  15.050  17.837  0.00  0.00    +0.000 C 
ATOM     23  C   UNL     1       9.342  13.690  18.432  0.00  0.00    +0.000 A 
ATOM     24  N   UNL     1       9.434  12.554  17.761  0.00  0.00    +0.000 NA
ATOM     25  C   UNL     1       9.415  11.554  18.712  0.00  0.00    +0.000 A 
ATOM     26  C   UNL     1       9.283  12.097  19.974  0.00  0.00    +0.000 A 
ATOM     27  C   UNL     1       9.188  11.588  21.300  0.00  0.00    +0.000 A 
ATOM     28  C   UNL     1       9.063  12.447  22.330  0.00  0.00    +0.000 A 
ATOM     29  C   UNL     1       9.024  13.886  22.116  0.00  0.00    +0.000 A 
ATOM     30  C   UNL     1       9.112  14.363  20.862  0.00  0.00    +0.000 A 
ATOM     31  N   UNL     1       9.240  13.470  19.794  0.00  0.00    +0.000 N 
ENDBRANCH  21  25
ENDBRANCH   1  21
TORSDOF 5
ENDMDL
