MODEL 1
REMARK VINA RESULT:      -9.0      0.000      0.000
REMARK  Name = 
REMARK  2 active torsions:
REMARK  status: ('A' for Active; 'I' for Inactive)
REMARK    1  A    between atoms: C_2  and  C_4
REMARK    2  A    between atoms: C_14  and  C_16
REMARK                            x       y       z     vdW  Elec       q    Type
REMARK                         _______ _______ _______ _____ _____    ______ ____
ROOT
ATOM      1  C   UNL     1      -1.509  12.015  19.594  0.00  0.00    +0.000 C 
ATOM      2  C   UNL     1      -2.976  11.988  19.082  0.00  0.00    +0.000 C 
ATOM      3  C   UNL     1      -3.099  11.310  17.752  0.00  0.00    +0.000 A 
ATOM      4  C   UNL     1      -4.012  11.703  16.772  0.00  0.00    +0.000 A 
ATOM      5  C   UNL     1      -4.108  10.986  15.579  0.00  0.00    +0.000 A 
ATOM      6  C   UNL     1      -3.302   9.870  15.350  0.00  0.00    +0.000 A 
ATOM      7  C   UNL     1      -2.412   9.462  16.337  0.00  0.00    +0.000 A 
ATOM      8  C   UNL     1      -2.314  10.182  17.535  0.00  0.00    +0.000 A 
ATOM      9  C   UNL     1      -1.437   9.678  18.636  0.00  0.00    +0.000 C 
ATOM     10  N   UNL     1      -0.816  10.686  19.490  0.00  0.00    +0.000 N 
ATOM     11  C   UNL     1       0.540  10.597  19.888  0.00  0.00    +0.000 C 
ATOM     12  O   UNL     1       1.093  11.513  20.483  0.00  0.00    +0.000 OA
ENDROOT
BRANCH  11  13
ATOM     13  C   UNL     1       1.365   9.372  19.557  0.00  0.00    +0.000 A 
ATOM     14  C   UNL     1       2.030   9.335  18.312  0.00  0.00    +0.000 A 
ATOM     15  C   UNL     1       2.631   8.155  17.839  0.00  0.00    +0.000 A 
ATOM     16  C   UNL     1       2.578   7.020  18.627  0.00  0.00    +0.000 A 
ATOM     17  C   UNL     1       2.018   7.085  19.917  0.00  0.00    +0.000 A 
ATOM     18  C   UNL     1       1.455   8.256  20.404  0.00  0.00    +0.000 A 
ATOM     19  C   UNL     1       2.157   5.752  20.626  0.00  0.00    +0.000 C 
ATOM     20  C   UNL     1       2.892   4.926  19.592  0.00  0.00    +0.000 A 
ATOM     21  C   UNL     1       3.360   3.627  19.708  0.00  0.00    +0.000 A 
ATOM     22  C   UNL     1       4.017   3.069  18.609  0.00  0.00    +0.000 A 
ATOM     23  C   UNL     1       4.176   3.799  17.419  0.00  0.00    +0.000 A 
ATOM     24  C   UNL     1       3.709   5.114  17.314  0.00  0.00    +0.000 A 
ATOM     25  C   UNL     1       3.089   5.681  18.413  0.00  0.00    +0.000 A 
ENDBRANCH  11  13
BRANCH   1  27
ATOM     26  N   UNL     1      -0.933  13.711  21.286  0.00  0.00    +0.000 N 
ATOM     27  C   UNL     1      -1.642  12.568  21.028  0.00  0.00    +0.000 C 
ATOM     28  O   UNL     1      -2.133  11.928  21.955  0.00  0.00    +0.000 OA
ATOM     29  H   UNL     1      -1.063  14.103  22.207  0.00  0.00    +0.000 HD
ATOM     30  H   UNL     1      -0.785  14.352  20.517  0.00  0.00    +0.000 HD
ENDBRANCH   1  27
TORSDOF 2
ENDMDL
MODEL 2
REMARK VINA RESULT:      -8.9      3.729      8.269
REMARK  Name = 
REMARK  2 active torsions:
REMARK  status: ('A' for Active; 'I' for Inactive)
REMARK    1  A    between atoms: C_2  and  C_4
REMARK    2  A    between atoms: C_14  and  C_16
REMARK                            x       y       z     vdW  Elec       q    Type
REMARK                         _______ _______ _______ _____ _____    ______ ____
ROOT
ATOM      1  C   UNL     1       4.598   5.234  17.206  0.00  0.00    +0.000 C 
ATOM      2  C   UNL     1       4.278   3.770  16.798  0.00  0.00    +0.000 C 
ATOM      3  C   UNL     1       3.341   3.106  17.760  0.00  0.00    +0.000 A 
ATOM      4  C   UNL     1       3.410   1.750  18.086  0.00  0.00    +0.000 A 
ATOM      5  C   UNL     1       2.466   1.191  18.948  0.00  0.00    +0.000 A 
ATOM      6  C   UNL     1       1.442   1.970  19.489  0.00  0.00    +0.000 A 
ATOM      7  C   UNL     1       1.358   3.314  19.143  0.00  0.00    +0.000 A 
ATOM      8  C   UNL     1       2.306   3.878  18.279  0.00  0.00    +0.000 A 
ATOM      9  C   UNL     1       2.149   5.292  17.823  0.00  0.00    +0.000 C 
ATOM     10  N   UNL     1       3.378   6.036  17.562  0.00  0.00    +0.000 N 
ATOM     11  C   UNL     1       3.549   7.374  17.991  0.00  0.00    +0.000 C 
ATOM     12  O   UNL     1       4.629   7.943  17.896  0.00  0.00    +0.000 OA
ENDROOT
BRANCH  11  13
ATOM     13  C   UNL     1       2.403   8.138  18.617  0.00  0.00    +0.000 A 
ATOM     14  C   UNL     1       1.695   9.055  17.809  0.00  0.00    +0.000 A 
ATOM     15  C   UNL     1       0.768   9.956  18.364  0.00  0.00    +0.000 A 
ATOM     16  C   UNL     1       0.542   9.920  19.729  0.00  0.00    +0.000 A 
ATOM     17  C   UNL     1       1.159   8.931  20.517  0.00  0.00    +0.000 A 
ATOM     18  C   UNL     1       2.046   8.017  19.970  0.00  0.00    +0.000 A 
ATOM     19  C   UNL     1       0.690   9.029  21.956  0.00  0.00    +0.000 C 
ATOM     20  C   UNL     1      -0.293  10.178  21.885  0.00  0.00    +0.000 A 
ATOM     21  C   UNL     1      -1.096  10.683  22.895  0.00  0.00    +0.000 A 
ATOM     22  C   UNL     1      -1.933  11.757  22.589  0.00  0.00    +0.000 A 
ATOM     23  C   UNL     1      -1.940  12.319  21.300  0.00  0.00    +0.000 A 
ATOM     24  C   UNL     1      -1.133  11.797  20.284  0.00  0.00    +0.000 A 
ATOM     25  C   UNL     1      -0.329  10.709  20.575  0.00  0.00    +0.000 A 
ENDBRANCH  11  13
BRANCH   1  27
ATOM     26  N   UNL     1       6.626   6.304  16.303  0.00  0.00    +0.000 N 
ATOM     27  C   UNL     1       5.400   5.773  16.002  0.00  0.00    +0.000 C 
ATOM     28  O   UNL     1       4.909   5.952  14.891  0.00  0.00    +0.000 OA
ATOM     29  H   UNL     1       7.173   6.606  15.510  0.00  0.00    +0.000 HD
ATOM     30  H   UNL     1       7.119   5.920  17.098  0.00  0.00    +0.000 HD
ENDBRANCH   1  27
TORSDOF 2
ENDMDL
MODEL 3
REMARK VINA RESULT:      -8.6      4.696      7.352
REMARK  Name = 
REMARK  2 active torsions:
REMARK  status: ('A' for Active; 'I' for Inactive)
REMARK    1  A    between atoms: C_2  and  C_4
REMARK    2  A    between atoms: C_14  and  C_16
REMARK                            x       y       z     vdW  Elec       q    Type
REMARK                         _______ _______ _______ _____ _____    ______ ____
ROOT
ATOM      1  C   UNL     1       2.571   4.762  20.795  0.00  0.00    +0.000 C 
ATOM      2  C   UNL     1       1.308   5.663  20.871  0.00  0.00    +0.000 C 
ATOM      3  C   UNL     1       1.521   6.993  20.215  0.00  0.00    +0.000 A 
ATOM      4  C   UNL     1       0.945   8.177  20.677  0.00  0.00    +0.000 A 
ATOM      5  C   UNL     1       1.144   9.369  19.978  0.00  0.00    +0.000 A 
ATOM      6  C   UNL     1       1.910   9.394  18.812  0.00  0.00    +0.000 A 
ATOM      7  C   UNL     1       2.460   8.209  18.336  0.00  0.00    +0.000 A 
ATOM      8  C   UNL     1       2.263   7.012  19.038  0.00  0.00    +0.000 A 
ATOM      9  C   UNL     1       2.762   5.725  18.467  0.00  0.00    +0.000 C 
ATOM     10  N   UNL     1       3.181   4.703  19.423  0.00  0.00    +0.000 N 
ATOM     11  C   UNL     1       4.362   3.945  19.239  0.00  0.00    +0.000 C 
ATOM     12  O   UNL     1       4.782   3.195  20.111  0.00  0.00    +0.000 OA
ENDROOT
BRANCH  11  13
ATOM     13  C   UNL     1       5.169   4.066  17.964  0.00  0.00    +0.000 A 
ATOM     14  C   UNL     1       6.314   4.892  17.978  0.00  0.00    +0.000 A 
ATOM     15  C   UNL     1       6.987   5.229  16.790  0.00  0.00    +0.000 A 
ATOM     16  C   UNL     1       6.517   4.719  15.592  0.00  0.00    +0.000 A 
ATOM     17  C   UNL     1       5.448   3.804  15.589  0.00  0.00    +0.000 A 
ATOM     18  C   UNL     1       4.803   3.440  16.762  0.00  0.00    +0.000 A 
ATOM     19  C   UNL     1       5.172   3.312  14.181  0.00  0.00    +0.000 C 
ATOM     20  C   UNL     1       6.236   4.038  13.386  0.00  0.00    +0.000 A 
ATOM     21  C   UNL     1       6.520   3.926  12.034  0.00  0.00    +0.000 A 
ATOM     22  C   UNL     1       7.560   4.702  11.519  0.00  0.00    +0.000 A 
ATOM     23  C   UNL     1       8.277   5.583  12.346  0.00  0.00    +0.000 A 
ATOM     24  C   UNL     1       7.991   5.683  13.711  0.00  0.00    +0.000 A 
ATOM     25  C   UNL     1       6.984   4.888  14.232  0.00  0.00    +0.000 A 
ENDBRANCH  11  13
BRANCH   1  27
ATOM     26  N   UNL     1       0.895   2.955  20.816  0.00  0.00    +0.000 N 
ATOM     27  C   UNL     1       2.076   3.406  21.343  0.00  0.00    +0.000 C 
ATOM     28  O   UNL     1       2.546   2.872  22.344  0.00  0.00    +0.000 OA
ATOM     29  H   UNL     1       0.600   2.044  21.134  0.00  0.00    +0.000 HD
ATOM     30  H   UNL     1       0.680   3.215  19.863  0.00  0.00    +0.000 HD
ENDBRANCH   1  27
TORSDOF 2
ENDMDL
MODEL 4
REMARK VINA RESULT:      -8.5      3.947      8.435
REMARK  Name = 
REMARK  2 active torsions:
REMARK  status: ('A' for Active; 'I' for Inactive)
REMARK    1  A    between atoms: C_2  and  C_4
REMARK    2  A    between atoms: C_14  and  C_16
REMARK                            x       y       z     vdW  Elec       q    Type
REMARK                         _______ _______ _______ _____ _____    ______ ____
ROOT
ATOM      1  C   UNL     1       3.040   3.655  19.127  0.00  0.00    +0.000 C 
ATOM      2  C   UNL     1       4.336   3.197  18.401  0.00  0.00    +0.000 C 
ATOM      3  C   UNL     1       4.708   4.113  17.277  0.00  0.00    +0.000 A 
ATOM      4  C   UNL     1       5.303   3.673  16.093  0.00  0.00    +0.000 A 
ATOM      5  C   UNL     1       5.674   4.594  15.113  0.00  0.00    +0.000 A 
ATOM      6  C   UNL     1       5.464   5.961  15.302  0.00  0.00    +0.000 A 
ATOM      7  C   UNL     1       4.898   6.403  16.493  0.00  0.00    +0.000 A 
ATOM      8  C   UNL     1       4.523   5.478  17.477  0.00  0.00    +0.000 A 
ATOM      9  C   UNL     1       4.016   5.962  18.797  0.00  0.00    +0.000 C 
ATOM     10  N   UNL     1       3.033   5.118  19.470  0.00  0.00    +0.000 N 
ATOM     11  C   UNL     1       1.885   5.660  20.096  0.00  0.00    +0.000 C 
ATOM     12  O   UNL     1       0.995   4.941  20.531  0.00  0.00    +0.000 OA
ENDROOT
BRANCH  11  13
ATOM     13  C   UNL     1       1.704   7.158  20.217  0.00  0.00    +0.000 A 
ATOM     14  C   UNL     1       1.256   7.675  21.452  0.00  0.00    +0.000 A 
ATOM     15  C   UNL     1       0.856   9.018  21.581  0.00  0.00    +0.000 A 
ATOM     16  C   UNL     1       0.926   9.841  20.471  0.00  0.00    +0.000 A 
ATOM     17  C   UNL     1       1.480   9.358  19.272  0.00  0.00    +0.000 A 
ATOM     18  C   UNL     1       1.910   8.045  19.149  0.00  0.00    +0.000 A 
ATOM     19  C   UNL     1       1.540  10.460  18.231  0.00  0.00    +0.000 C 
ATOM     20  C   UNL     1       0.976  11.639  18.996  0.00  0.00    +0.000 A 
ATOM     21  C   UNL     1       0.849  12.953  18.573  0.00  0.00    +0.000 A 
ATOM     22  C   UNL     1       0.296  13.874  19.463  0.00  0.00    +0.000 A 
ATOM     23  C   UNL     1      -0.136  13.472  20.739  0.00  0.00    +0.000 A 
ATOM     24  C   UNL     1       0.005  12.146  21.162  0.00  0.00    +0.000 A 
ATOM     25  C   UNL     1       0.585  11.238  20.294  0.00  0.00    +0.000 A 
ENDBRANCH  11  13
BRANCH   1  27
ATOM     26  N   UNL     1       1.703   2.233  20.631  0.00  0.00    +0.000 N 
ATOM     27  C   UNL     1       2.956   2.704  20.340  0.00  0.00    +0.000 C 
ATOM     28  O   UNL     1       3.870   2.558  21.147  0.00  0.00    +0.000 OA
ATOM     29  H   UNL     1       1.657   1.568  21.390  0.00  0.00    +0.000 HD
ATOM     30  H   UNL     1       1.058   2.116  19.862  0.00  0.00    +0.000 HD
ENDBRANCH   1  27
TORSDOF 2
ENDMDL
MODEL 5
REMARK VINA RESULT:      -8.4      3.600      8.520
REMARK  Name = 
REMARK  2 active torsions:
REMARK  status: ('A' for Active; 'I' for Inactive)
REMARK    1  A    between atoms: C_2  and  C_4
REMARK    2  A    between atoms: C_14  and  C_16
REMARK                            x       y       z     vdW  Elec       q    Type
REMARK                         _______ _______ _______ _____ _____    ______ ____
ROOT
ATOM      1  C   UNL     1       4.661   5.152  17.760  0.00  0.00    +0.000 C 
ATOM      2  C   UNL     1       4.548   3.614  17.953  0.00  0.00    +0.000 C 
ATOM      3  C   UNL     1       3.927   3.253  19.267  0.00  0.00    +0.000 A 
ATOM      4  C   UNL     1       4.297   2.128  20.007  0.00  0.00    +0.000 A 
ATOM      5  C   UNL     1       3.633   1.824  21.196  0.00  0.00    +0.000 A 
ATOM      6  C   UNL     1       2.592   2.632  21.658  0.00  0.00    +0.000 A 
ATOM      7  C   UNL     1       2.206   3.736  20.908  0.00  0.00    +0.000 A 
ATOM      8  C   UNL     1       2.873   4.043  19.715  0.00  0.00    +0.000 A 
ATOM      9  C   UNL     1       2.384   5.165  18.857  0.00  0.00    +0.000 C 
ATOM     10  N   UNL     1       3.394   5.890  18.090  0.00  0.00    +0.000 N 
ATOM     11  C   UNL     1       3.388   7.302  17.993  0.00  0.00    +0.000 C 
ATOM     12  O   UNL     1       4.314   7.910  17.471  0.00  0.00    +0.000 OA
ENDROOT
BRANCH  11  13
ATOM     13  C   UNL     1       2.247   8.113  18.566  0.00  0.00    +0.000 A 
ATOM     14  C   UNL     1       1.514   8.942  17.688  0.00  0.00    +0.000 A 
ATOM     15  C   UNL     1       0.589   9.884  18.173  0.00  0.00    +0.000 A 
ATOM     16  C   UNL     1       0.390   9.977  19.539  0.00  0.00    +0.000 A 
ATOM     17  C   UNL     1       1.032   9.074  20.406  0.00  0.00    +0.000 A 
ATOM     18  C   UNL     1       1.918   8.118  19.931  0.00  0.00    +0.000 A 
ATOM     19  C   UNL     1       0.589   9.305  21.838  0.00  0.00    +0.000 C 
ATOM     20  C   UNL     1      -0.407  10.433  21.677  0.00  0.00    +0.000 A 
ATOM     21  C   UNL     1      -1.196  11.026  22.650  0.00  0.00    +0.000 A 
ATOM     22  C   UNL     1      -2.049  12.059  22.259  0.00  0.00    +0.000 A 
ATOM     23  C   UNL     1      -2.087  12.494  20.924  0.00  0.00    +0.000 A 
ATOM     24  C   UNL     1      -1.294  11.884  19.945  0.00  0.00    +0.000 A 
ATOM     25  C   UNL     1      -0.473  10.836  20.324  0.00  0.00    +0.000 A 
ENDBRANCH  11  13
BRANCH   1  27
ATOM     26  N   UNL     1       6.089   6.250  16.079  0.00  0.00    +0.000 N 
ATOM     27  C   UNL     1       5.132   5.295  16.298  0.00  0.00    +0.000 C 
ATOM     28  O   UNL     1       4.545   4.785  15.347  0.00  0.00    +0.000 OA
ATOM     29  H   UNL     1       6.437   6.305  15.133  0.00  0.00    +0.000 HD
ATOM     30  H   UNL     1       6.736   6.444  16.832  0.00  0.00    +0.000 HD
ENDBRANCH   1  27
TORSDOF 2
ENDMDL
MODEL 6
REMARK VINA RESULT:      -8.1      0.728      1.694
REMARK  Name = 
REMARK  2 active torsions:
REMARK  status: ('A' for Active; 'I' for Inactive)
REMARK    1  A    between atoms: C_2  and  C_4
REMARK    2  A    between atoms: C_14  and  C_16
REMARK                            x       y       z     vdW  Elec       q    Type
REMARK                         _______ _______ _______ _____ _____    ______ ____
ROOT
ATOM      1  C   UNL     1      -1.481  11.960  19.806  0.00  0.00    +0.000 C 
ATOM      2  C   UNL     1      -2.965  12.041  19.352  0.00  0.00    +0.000 C 
ATOM      3  C   UNL     1      -3.184  11.400  18.016  0.00  0.00    +0.000 A 
ATOM      4  C   UNL     1      -4.106  11.872  17.081  0.00  0.00    +0.000 A 
ATOM      5  C   UNL     1      -4.296  11.188  15.880  0.00  0.00    +0.000 A 
ATOM      6  C   UNL     1      -3.576  10.025  15.600  0.00  0.00    +0.000 A 
ATOM      7  C   UNL     1      -2.678   9.539  16.543  0.00  0.00    +0.000 A 
ATOM      8  C   UNL     1      -2.486  10.227  17.749  0.00  0.00    +0.000 A 
ATOM      9  C   UNL     1      -1.603   9.644  18.805  0.00  0.00    +0.000 C 
ATOM     10  N   UNL     1      -0.883  10.590  19.652  0.00  0.00    +0.000 N 
ATOM     11  C   UNL     1       0.478  10.404  19.993  0.00  0.00    +0.000 C 
ATOM     12  O   UNL     1       1.113  11.269  20.582  0.00  0.00    +0.000 OA
ENDROOT
BRANCH  11  13
ATOM     13  C   UNL     1       1.205   9.134  19.609  0.00  0.00    +0.000 A 
ATOM     14  C   UNL     1       1.264   8.088  20.556  0.00  0.00    +0.000 A 
ATOM     15  C   UNL     1       2.098   6.972  20.363  0.00  0.00    +0.000 A 
ATOM     16  C   UNL     1       2.858   6.902  19.209  0.00  0.00    +0.000 A 
ATOM     17  C   UNL     1       2.714   7.885  18.212  0.00  0.00    +0.000 A 
ATOM     18  C   UNL     1       1.866   8.969  18.380  0.00  0.00    +0.000 A 
ATOM     19  C   UNL     1       3.571   7.549  17.006  0.00  0.00    +0.000 C 
ATOM     20  C   UNL     1       4.199   6.238  17.428  0.00  0.00    +0.000 A 
ATOM     21  C   UNL     1       5.035   5.413  16.692  0.00  0.00    +0.000 A 
ATOM     22  C   UNL     1       5.494   4.242  17.297  0.00  0.00    +0.000 A 
ATOM     23  C   UNL     1       5.133   3.926  18.618  0.00  0.00    +0.000 A 
ATOM     24  C   UNL     1       4.282   4.760  19.351  0.00  0.00    +0.000 A 
ATOM     25  C   UNL     1       3.797   5.903  18.741  0.00  0.00    +0.000 A 
ENDBRANCH  11  13
BRANCH   1  27
ATOM     26  N   UNL     1      -0.718  13.572  21.506  0.00  0.00    +0.000 N 
ATOM     27  C   UNL     1      -1.521  12.491  21.254  0.00  0.00    +0.000 C 
ATOM     28  O   UNL     1      -2.027  11.871  22.186  0.00  0.00    +0.000 OA
ATOM     29  H   UNL     1      -0.786  13.953  22.439  0.00  0.00    +0.000 HD
ATOM     30  H   UNL     1      -0.548  14.215  20.745  0.00  0.00    +0.000 HD
ENDBRANCH   1  27
TORSDOF 2
ENDMDL
MODEL 7
REMARK VINA RESULT:      -8.0      1.171      1.267
REMARK  Name = 
REMARK  2 active torsions:
REMARK  status: ('A' for Active; 'I' for Inactive)
REMARK    1  A    between atoms: C_2  and  C_4
REMARK    2  A    between atoms: C_14  and  C_16
REMARK                            x       y       z     vdW  Elec       q    Type
REMARK                         _______ _______ _______ _____ _____    ______ ____
ROOT
ATOM      1  C   UNL     1      -0.895  11.664  20.679  0.00  0.00    +0.000 C 
ATOM      2  C   UNL     1      -2.360  11.925  20.233  0.00  0.00    +0.000 C 
ATOM      3  C   UNL     1      -2.619  11.453  18.836  0.00  0.00    +0.000 A 
ATOM      4  C   UNL     1      -3.484  12.103  17.954  0.00  0.00    +0.000 A 
ATOM      5  C   UNL     1      -3.719  11.571  16.686  0.00  0.00    +0.000 A 
ATOM      6  C   UNL     1      -3.101  10.385  16.284  0.00  0.00    +0.000 A 
ATOM      7  C   UNL     1      -2.261   9.723  17.171  0.00  0.00    +0.000 A 
ATOM      8  C   UNL     1      -2.024  10.258  18.445  0.00  0.00    +0.000 A 
ATOM      9  C   UNL     1      -1.209   9.488  19.433  0.00  0.00    +0.000 C 
ATOM     10  N   UNL     1      -0.418  10.271  20.380  0.00  0.00    +0.000 N 
ATOM     11  C   UNL     1       0.917   9.928  20.703  0.00  0.00    +0.000 C 
ATOM     12  O   UNL     1       1.619  10.665  21.383  0.00  0.00    +0.000 OA
ENDROOT
BRANCH  11  13
ATOM     13  C   UNL     1       1.534   8.647  20.185  0.00  0.00    +0.000 A 
ATOM     14  C   UNL     1       1.990   8.622  18.849  0.00  0.00    +0.000 A 
ATOM     15  C   UNL     1       2.372   7.419  18.228  0.00  0.00    +0.000 A 
ATOM     16  C   UNL     1       2.310   6.246  18.959  0.00  0.00    +0.000 A 
ATOM     17  C   UNL     1       1.966   6.285  20.323  0.00  0.00    +0.000 A 
ATOM     18  C   UNL     1       1.624   7.474  20.950  0.00  0.00    +0.000 A 
ATOM     19  C   UNL     1       2.058   4.900  20.935  0.00  0.00    +0.000 C 
ATOM     20  C   UNL     1       2.525   4.071  19.758  0.00  0.00    +0.000 A 
ATOM     21  C   UNL     1       2.852   2.725  19.734  0.00  0.00    +0.000 A 
ATOM     22  C   UNL     1       3.263   2.174  18.519  0.00  0.00    +0.000 A 
ATOM     23  C   UNL     1       3.320   2.961  17.356  0.00  0.00    +0.000 A 
ATOM     24  C   UNL     1       2.997   4.321  17.390  0.00  0.00    +0.000 A 
ATOM     25  C   UNL     1       2.624   4.878  18.601  0.00  0.00    +0.000 A 
ENDBRANCH  11  13
BRANCH   1  27
ATOM     26  N   UNL     1      -1.201  11.014  23.036  0.00  0.00    +0.000 N 
ATOM     27  C   UNL     1      -0.905  12.038  22.176  0.00  0.00    +0.000 C 
ATOM     28  O   UNL     1      -0.897  13.198  22.582  0.00  0.00    +0.000 OA
ATOM     29  H   UNL     1      -1.154  11.246  24.017  0.00  0.00    +0.000 HD
ATOM     30  H   UNL     1      -0.934  10.079  22.759  0.00  0.00    +0.000 HD
ENDBRANCH   1  27
TORSDOF 2
ENDMDL
MODEL 8
REMARK VINA RESULT:      -7.6      2.326      3.574
REMARK  Name = 
REMARK  2 active torsions:
REMARK  status: ('A' for Active; 'I' for Inactive)
REMARK    1  A    between atoms: C_2  and  C_4
REMARK    2  A    between atoms: C_14  and  C_16
REMARK                            x       y       z     vdW  Elec       q    Type
REMARK                         _______ _______ _______ _____ _____    ______ ____
ROOT
ATOM      1  C   UNL     1      -0.606  12.639  20.093  0.00  0.00    +0.000 C 
ATOM      2  C   UNL     1      -0.450  13.961  19.292  0.00  0.00    +0.000 C 
ATOM      3  C   UNL     1       0.980  14.255  18.958  0.00  0.00    +0.000 A 
ATOM      4  C   UNL     1       1.506  15.547  18.907  0.00  0.00    +0.000 A 
ATOM      5  C   UNL     1       2.835  15.746  18.533  0.00  0.00    +0.000 A 
ATOM      6  C   UNL     1       3.653  14.665  18.199  0.00  0.00    +0.000 A 
ATOM      7  C   UNL     1       3.121  13.380  18.223  0.00  0.00    +0.000 A 
ATOM      8  C   UNL     1       1.787  13.179  18.601  0.00  0.00    +0.000 A 
ATOM      9  C   UNL     1       1.189  11.812  18.519  0.00  0.00    +0.000 C 
ATOM     10  N   UNL     1       0.159  11.489  19.503  0.00  0.00    +0.000 N 
ATOM     11  C   UNL     1       0.128  10.241  20.171  0.00  0.00    +0.000 C 
ATOM     12  O   UNL     1      -0.648  10.030  21.094  0.00  0.00    +0.000 OA
ENDROOT
BRANCH  11  13
ATOM     13  C   UNL     1       1.083   9.133  19.785  0.00  0.00    +0.000 A 
ATOM     14  C   UNL     1       1.731   9.219  18.533  0.00  0.00    +0.000 A 
ATOM     15  C   UNL     1       2.458   8.134  18.010  0.00  0.00    +0.000 A 
ATOM     16  C   UNL     1       2.546   6.972  18.755  0.00  0.00    +0.000 A 
ATOM     17  C   UNL     1       2.000   6.924  20.050  0.00  0.00    +0.000 A 
ATOM     18  C   UNL     1       1.313   8.003  20.587  0.00  0.00    +0.000 A 
ATOM     19  C   UNL     1       2.301   5.590  20.706  0.00  0.00    +0.000 C 
ATOM     20  C   UNL     1       3.111   4.894  19.634  0.00  0.00    +0.000 A 
ATOM     21  C   UNL     1       3.727   3.654  19.696  0.00  0.00    +0.000 A 
ATOM     22  C   UNL     1       4.428   3.216  18.571  0.00  0.00    +0.000 A 
ATOM     23  C   UNL     1       4.486   4.004  17.409  0.00  0.00    +0.000 A 
ATOM     24  C   UNL     1       3.870   5.259  17.358  0.00  0.00    +0.000 A 
ATOM     25  C   UNL     1       3.204   5.710  18.484  0.00  0.00    +0.000 A 
ENDBRANCH  11  13
BRANCH   1  27
ATOM     26  N   UNL     1      -2.753  12.255  18.947  0.00  0.00    +0.000 N 
ATOM     27  C   UNL     1      -2.135  12.438  20.156  0.00  0.00    +0.000 C 
ATOM     28  O   UNL     1      -2.804  12.662  21.161  0.00  0.00    +0.000 OA
ATOM     29  H   UNL     1      -3.744  12.069  18.993  0.00  0.00    +0.000 HD
ATOM     30  H   UNL     1      -2.222  11.807  18.213  0.00  0.00    +0.000 HD
ENDBRANCH   1  27
TORSDOF 2
ENDMDL
MODEL 9
REMARK VINA RESULT:      -7.6      2.934      4.851
REMARK  Name = 
REMARK  2 active torsions:
REMARK  status: ('A' for Active; 'I' for Inactive)
REMARK    1  A    between atoms: C_2  and  C_4
REMARK    2  A    between atoms: C_14  and  C_16
REMARK                            x       y       z     vdW  Elec       q    Type
REMARK                         _______ _______ _______ _____ _____    ______ ____
ROOT
ATOM      1  C   UNL     1      -3.592  14.410  23.150  0.00  0.00    +0.000 C 
ATOM      2  C   UNL     1      -5.102  14.640  22.868  0.00  0.00    +0.000 C 
ATOM      3  C   UNL     1      -5.468  14.320  21.451  0.00  0.00    +0.000 A 
ATOM      4  C   UNL     1      -6.440  15.020  20.733  0.00  0.00    +0.000 A 
ATOM      5  C   UNL     1      -6.767  14.627  19.435  0.00  0.00    +0.000 A 
ATOM      6  C   UNL     1      -6.137  13.533  18.841  0.00  0.00    +0.000 A 
ATOM      7  C   UNL     1      -5.190  12.819  19.565  0.00  0.00    +0.000 A 
ATOM      8  C   UNL     1      -4.859  13.214  20.869  0.00  0.00    +0.000 A 
ATOM      9  C   UNL     1      -3.923  12.381  21.682  0.00  0.00    +0.000 C 
ATOM     10  N   UNL     1      -3.084  13.090  22.644  0.00  0.00    +0.000 N 
ATOM     11  C   UNL     1      -1.710  12.786  22.806  0.00  0.00    +0.000 C 
ATOM     12  O   UNL     1      -0.982  13.476  23.507  0.00  0.00    +0.000 OA
ENDROOT
BRANCH  11  13
ATOM     13  C   UNL     1      -1.088  11.610  22.086  0.00  0.00    +0.000 A 
ATOM     14  C   UNL     1      -0.831  10.436  22.827  0.00  0.00    +0.000 A 
ATOM     15  C   UNL     1      -0.062   9.386  22.293  0.00  0.00    +0.000 A 
ATOM     16  C   UNL     1       0.432   9.513  21.006  0.00  0.00    +0.000 A 
ATOM     17  C   UNL     1       0.081  10.629  20.225  0.00  0.00    +0.000 A 
ATOM     18  C   UNL     1      -0.707  11.651  20.735  0.00  0.00    +0.000 A 
ATOM     19  C   UNL     1       0.657  10.504  18.828  0.00  0.00    +0.000 C 
ATOM     20  C   UNL     1       1.356   9.163  18.901  0.00  0.00    +0.000 A 
ATOM     21  C   UNL     1       2.011   8.483  17.886  0.00  0.00    +0.000 A 
ATOM     22  C   UNL     1       2.584   7.247  18.193  0.00  0.00    +0.000 A 
ATOM     23  C   UNL     1       2.515   6.726  19.497  0.00  0.00    +0.000 A 
ATOM     24  C   UNL     1       1.843   7.415  20.513  0.00  0.00    +0.000 A 
ATOM     25  C   UNL     1       1.244   8.623  20.202  0.00  0.00    +0.000 A 
ENDBRANCH  11  13
BRANCH   1  27
ATOM     26  N   UNL     1      -3.854  13.530  25.437  0.00  0.00    +0.000 N 
ATOM     27  C   UNL     1      -3.480  14.606  24.677  0.00  0.00    +0.000 C 
ATOM     28  O   UNL     1      -3.310  15.702  25.205  0.00  0.00    +0.000 OA
ATOM     29  H   UNL     1      -3.728  13.639  26.432  0.00  0.00    +0.000 HD
ATOM     30  H   UNL     1      -3.717  12.609  25.042  0.00  0.00    +0.000 HD
ENDBRANCH   1  27
TORSDOF 2
ENDMDL
