MODEL 1
REMARK VINA RESULT:      -9.4      0.000      0.000
REMARK  Name = 
REMARK  8 active torsions:
REMARK  status: ('A' for Active; 'I' for Inactive)
REMARK    1  A    between atoms: C_1  and  C_2
REMARK    2  A    between atoms: C_4  and  C_5
REMARK    3  A    between atoms: N_8  and  S_9
REMARK    4  A    between atoms: S_9  and  C_12
REMARK    5  A    between atoms: C_15  and  N_16
REMARK    6  A    between atoms: C_17  and  C_19
REMARK    7  A    between atoms: C_19  and  C_20
REMARK    8  A    between atoms: C_20  and  N_21
REMARK                            x       y       z     vdW  Elec       q    Type
REMARK                         _______ _______ _______ _____ _____    ______ ____
ROOT
ATOM      1  C   UNL     1       1.339   9.206  19.277  0.00  0.00    +0.000 A 
ATOM      2  C   UNL     1       1.929   9.116  18.026  0.00  0.00    +0.000 A 
ATOM      3  C   UNL     1       2.676   7.988  17.692  0.00  0.00    +0.000 A 
ATOM      4  C   UNL     1       2.862   6.925  18.586  0.00  0.00    +0.000 A 
ATOM      5  C   UNL     1       2.298   7.044  19.861  0.00  0.00    +0.000 A 
ATOM      6  C   UNL     1       1.541   8.187  20.215  0.00  0.00    +0.000 A 
ENDROOT
BRANCH   4   7
ATOM      7  N   UNL     1       3.611   5.756  18.244  0.00  0.00    +0.000 N 
ATOM      8  C   UNL     1       4.989   5.705  18.174  0.00  0.00    +0.000 C 
ATOM      9  O   UNL     1       5.728   6.679  18.319  0.00  0.00    +0.000 OA
ATOM     10  H   UNL     1       3.083   4.917  18.030  0.00  0.00    +0.000 HD
BRANCH   8  11
ATOM     11  C   UNL     1       5.635   4.351  17.871  0.00  0.00    +0.000 C 
BRANCH  11  12
ATOM     12  C   UNL     1       4.488   3.496  17.319  0.00  0.00    +0.000 C 
BRANCH  12  13
ATOM     13  N   UNL     1       4.022   2.292  17.987  0.00  0.00    +0.000 N 
ATOM     14  C   UNL     1       2.650   2.200  17.786  0.00  0.00    +0.000 C 
ATOM     15  O   UNL     1       2.050   1.975  16.747  0.00  0.00    +0.000 OA
ATOM     16  C   UNL     1       2.014   2.636  19.022  0.00  0.00    +0.000 A 
ATOM     17  C   UNL     1       0.831   3.329  19.186  0.00  0.00    +0.000 A 
ATOM     18  C   UNL     1       0.622   3.938  20.429  0.00  0.00    +0.000 A 
ATOM     19  C   UNL     1       1.568   3.810  21.466  0.00  0.00    +0.000 A 
ATOM     20  C   UNL     1       2.770   3.119  21.262  0.00  0.00    +0.000 A 
ATOM     21  C   UNL     1       2.976   2.584  20.008  0.00  0.00    +0.000 A 
ATOM     22  C   UNL     1       4.237   2.225  19.351  0.00  0.00    +0.000 C 
ATOM     23  O   UNL     1       5.269   1.965  19.942  0.00  0.00    +0.000 OA
ENDBRANCH  12  13
ENDBRANCH  11  12
ENDBRANCH   8  11
ENDBRANCH   4   7
BRANCH   1  24
ATOM     24  S   UNL     1       0.454  10.705  19.676  0.00  0.00    +0.000 S 
ATOM     25  O   UNL     1       1.162  11.345  20.770  0.00  0.00    +0.000 OA
ATOM     26  O   UNL     1      -0.934  10.342  19.815  0.00  0.00    +0.000 OA
BRANCH  24  34
ATOM     27  C   UNL     1      -0.368  16.320  18.864  0.00  0.00    +0.000 C 
ATOM     28  C   UNL     1       0.614  15.197  18.707  0.00  0.00    +0.000 A 
ATOM     29  C   UNL     1       1.969  15.458  18.574  0.00  0.00    +0.000 A 
ATOM     30  C   UNL     1       2.794  14.367  18.390  0.00  0.00    +0.000 A 
ATOM     31  C   UNL     1       4.278  14.542  18.249  0.00  0.00    +0.000 C 
ATOM     32  N   UNL     1       2.325  13.107  18.321  0.00  0.00    +0.000 NA
ATOM     33  C   UNL     1       1.009  12.969  18.487  0.00  0.00    +0.000 A 
ATOM     34  N   UNL     1       0.538  11.671  18.312  0.00  0.00    +0.000 N 
ATOM     35  N   UNL     1       0.117  13.942  18.684  0.00  0.00    +0.000 NA
ATOM     36  H   UNL     1       1.019  11.196  17.559  0.00  0.00    +0.000 HD
ENDBRANCH  24  34
ENDBRANCH   1  24
TORSDOF 6
ENDMDL
MODEL 2
REMARK VINA RESULT:      -9.4      2.434      3.367
REMARK  Name = 
REMARK  8 active torsions:
REMARK  status: ('A' for Active; 'I' for Inactive)
REMARK    1  A    between atoms: C_1  and  C_2
REMARK    2  A    between atoms: C_4  and  C_5
REMARK    3  A    between atoms: N_8  and  S_9
REMARK    4  A    between atoms: S_9  and  C_12
REMARK    5  A    between atoms: C_15  and  N_16
REMARK    6  A    between atoms: C_17  and  C_19
REMARK    7  A    between atoms: C_19  and  C_20
REMARK    8  A    between atoms: C_20  and  N_21
REMARK                            x       y       z     vdW  Elec       q    Type
REMARK                         _______ _______ _______ _____ _____    ______ ____
ROOT
ATOM      1  C   UNL     1       1.137   9.564  19.753  0.00  0.00    +0.000 A 
ATOM      2  C   UNL     1       1.617   9.698  18.459  0.00  0.00    +0.000 A 
ATOM      3  C   UNL     1       2.338   8.656  17.877  0.00  0.00    +0.000 A 
ATOM      4  C   UNL     1       2.607   7.463  18.559  0.00  0.00    +0.000 A 
ATOM      5  C   UNL     1       2.155   7.354  19.880  0.00  0.00    +0.000 A 
ATOM      6  C   UNL     1       1.426   8.406  20.485  0.00  0.00    +0.000 A 
ENDROOT
BRANCH   4   7
ATOM      7  N   UNL     1       3.330   6.383  17.963  0.00  0.00    +0.000 N 
ATOM      8  C   UNL     1       4.206   5.561  18.642  0.00  0.00    +0.000 C 
ATOM      9  O   UNL     1       4.527   5.713  19.822  0.00  0.00    +0.000 OA
ATOM     10  H   UNL     1       3.190   6.228  16.971  0.00  0.00    +0.000 HD
BRANCH   8  11
ATOM     11  C   UNL     1       4.838   4.401  17.869  0.00  0.00    +0.000 C 
BRANCH  11  12
ATOM     12  C   UNL     1       3.735   3.937  16.909  0.00  0.00    +0.000 C 
BRANCH  12  13
ATOM     13  N   UNL     1       2.816   2.860  17.241  0.00  0.00    +0.000 N 
ATOM     14  C   UNL     1       1.635   3.436  17.693  0.00  0.00    +0.000 C 
ATOM     15  O   UNL     1       0.812   4.076  17.057  0.00  0.00    +0.000 OA
ATOM     16  C   UNL     1       1.640   3.324  19.145  0.00  0.00    +0.000 A 
ATOM     17  C   UNL     1       1.135   4.204  20.081  0.00  0.00    +0.000 A 
ATOM     18  C   UNL     1       1.580   4.050  21.400  0.00  0.00    +0.000 A 
ATOM     19  C   UNL     1       2.474   3.017  21.745  0.00  0.00    +0.000 A 
ATOM     20  C   UNL     1       2.987   2.152  20.769  0.00  0.00    +0.000 A 
ATOM     21  C   UNL     1       2.580   2.369  19.469  0.00  0.00    +0.000 A 
ATOM     22  C   UNL     1       3.234   1.975  18.218  0.00  0.00    +0.000 C 
ATOM     23  O   UNL     1       4.028   1.057  18.116  0.00  0.00    +0.000 OA
ENDBRANCH  12  13
ENDBRANCH  11  12
ENDBRANCH   8  11
ENDBRANCH   4   7
BRANCH   1  24
ATOM     24  S   UNL     1       0.282  10.957  20.473  0.00  0.00    +0.000 S 
ATOM     25  O   UNL     1       1.270  11.746  21.187  0.00  0.00    +0.000 OA
ATOM     26  O   UNL     1      -0.868  10.427  21.161  0.00  0.00    +0.000 OA
BRANCH  24  34
ATOM     27  C   UNL     1      -3.041   9.537  16.023  0.00  0.00    +0.000 C 
ATOM     28  C   UNL     1      -2.915  10.449  17.207  0.00  0.00    +0.000 A 
ATOM     29  C   UNL     1      -4.033  11.074  17.739  0.00  0.00    +0.000 A 
ATOM     30  C   UNL     1      -3.816  11.930  18.800  0.00  0.00    +0.000 A 
ATOM     31  C   UNL     1      -4.962  12.645  19.455  0.00  0.00    +0.000 C 
ATOM     32  N   UNL     1      -2.589  12.174  19.296  0.00  0.00    +0.000 NA
ATOM     33  C   UNL     1      -1.590  11.499  18.726  0.00  0.00    +0.000 A 
ATOM     34  N   UNL     1      -0.323  11.844  19.190  0.00  0.00    +0.000 N 
ATOM     35  N   UNL     1      -1.676  10.641  17.709  0.00  0.00    +0.000 NA
ATOM     36  H   UNL     1      -0.245  12.838  19.365  0.00  0.00    +0.000 HD
ENDBRANCH  24  34
ENDBRANCH   1  24
TORSDOF 6
ENDMDL
MODEL 3
REMARK VINA RESULT:      -9.4      0.688      1.083
REMARK  Name = 
REMARK  8 active torsions:
REMARK  status: ('A' for Active; 'I' for Inactive)
REMARK    1  A    between atoms: C_1  and  C_2
REMARK    2  A    between atoms: C_4  and  C_5
REMARK    3  A    between atoms: N_8  and  S_9
REMARK    4  A    between atoms: S_9  and  C_12
REMARK    5  A    between atoms: C_15  and  N_16
REMARK    6  A    between atoms: C_17  and  C_19
REMARK    7  A    between atoms: C_19  and  C_20
REMARK    8  A    between atoms: C_20  and  N_21
REMARK                            x       y       z     vdW  Elec       q    Type
REMARK                         _______ _______ _______ _____ _____    ______ ____
ROOT
ATOM      1  C   UNL     1       1.120   9.511  19.127  0.00  0.00    +0.000 A 
ATOM      2  C   UNL     1       1.474   8.583  20.094  0.00  0.00    +0.000 A 
ATOM      3  C   UNL     1       2.241   7.474  19.742  0.00  0.00    +0.000 A 
ATOM      4  C   UNL     1       2.670   7.251  18.428  0.00  0.00    +0.000 A 
ATOM      5  C   UNL     1       2.272   8.171  17.450  0.00  0.00    +0.000 A 
ATOM      6  C   UNL     1       1.490   9.299  17.794  0.00  0.00    +0.000 A 
ENDROOT
BRANCH   4   7
ATOM      7  N   UNL     1       3.473   6.125  18.062  0.00  0.00    +0.000 N 
ATOM      8  C   UNL     1       4.796   6.202  17.678  0.00  0.00    +0.000 C 
ATOM      9  O   UNL     1       5.416   7.256  17.529  0.00  0.00    +0.000 OA
ATOM     10  H   UNL     1       3.024   5.216  18.078  0.00  0.00    +0.000 HD
BRANCH   8  11
ATOM     11  C   UNL     1       5.531   4.890  17.394  0.00  0.00    +0.000 C 
BRANCH  11  12
ATOM     12  C   UNL     1       5.371   4.077  18.685  0.00  0.00    +0.000 C 
BRANCH  12  13
ATOM     13  N   UNL     1       4.737   2.769  18.708  0.00  0.00    +0.000 N 
ATOM     14  C   UNL     1       3.506   2.886  18.073  0.00  0.00    +0.000 C 
ATOM     15  O   UNL     1       3.279   3.085  16.890  0.00  0.00    +0.000 OA
ATOM     16  C   UNL     1       2.495   2.937  19.121  0.00  0.00    +0.000 A 
ATOM     17  C   UNL     1       1.311   3.645  19.144  0.00  0.00    +0.000 A 
ATOM     18  C   UNL     1       0.698   3.815  20.392  0.00  0.00    +0.000 A 
ATOM     19  C   UNL     1       1.260   3.252  21.555  0.00  0.00    +0.000 A 
ATOM     20  C   UNL     1       2.476   2.557  21.504  0.00  0.00    +0.000 A 
ATOM     21  C   UNL     1       3.087   2.461  20.271  0.00  0.00    +0.000 A 
ATOM     22  C   UNL     1       4.499   2.223  19.955  0.00  0.00    +0.000 C 
ATOM     23  O   UNL     1       5.289   1.679  20.706  0.00  0.00    +0.000 OA
ENDBRANCH  12  13
ENDBRANCH  11  12
ENDBRANCH   8  11
ENDBRANCH   4   7
BRANCH   1  24
ATOM     24  S   UNL     1       0.078  10.874  19.622  0.00  0.00    +0.000 S 
ATOM     25  O   UNL     1       0.712  11.508  20.765  0.00  0.00    +0.000 OA
ATOM     26  O   UNL     1      -1.263  10.356  19.723  0.00  0.00    +0.000 OA
BRANCH  24  34
ATOM     27  C   UNL     1      -0.602  16.558  19.311  0.00  0.00    +0.000 C 
ATOM     28  C   UNL     1       0.314  15.420  18.970  0.00  0.00    +0.000 A 
ATOM     29  C   UNL     1       1.658  15.648  18.714  0.00  0.00    +0.000 A 
ATOM     30  C   UNL     1       2.415  14.548  18.366  0.00  0.00    +0.000 A 
ATOM     31  C   UNL     1       3.883  14.686  18.082  0.00  0.00    +0.000 C 
ATOM     32  N   UNL     1       1.893  13.313  18.255  0.00  0.00    +0.000 NA
ATOM     33  C   UNL     1       0.596  13.204  18.549  0.00  0.00    +0.000 A 
ATOM     34  N   UNL     1       0.060  11.938  18.331  0.00  0.00    +0.000 N 
ATOM     35  N   UNL     1      -0.231  14.186  18.908  0.00  0.00    +0.000 NA
ATOM     36  H   UNL     1       0.442  11.507  17.498  0.00  0.00    +0.000 HD
ENDBRANCH  24  34
ENDBRANCH   1  24
TORSDOF 6
ENDMDL
MODEL 4
REMARK VINA RESULT:      -9.3      1.635      3.118
REMARK  Name = 
REMARK  8 active torsions:
REMARK  status: ('A' for Active; 'I' for Inactive)
REMARK    1  A    between atoms: C_1  and  C_2
REMARK    2  A    between atoms: C_4  and  C_5
REMARK    3  A    between atoms: N_8  and  S_9
REMARK    4  A    between atoms: S_9  and  C_12
REMARK    5  A    between atoms: C_15  and  N_16
REMARK    6  A    between atoms: C_17  and  C_19
REMARK    7  A    between atoms: C_19  and  C_20
REMARK    8  A    between atoms: C_20  and  N_21
REMARK                            x       y       z     vdW  Elec       q    Type
REMARK                         _______ _______ _______ _____ _____    ______ ____
ROOT
ATOM      1  C   UNL     1       0.632   9.852  19.526  0.00  0.00    +0.000 A 
ATOM      2  C   UNL     1       1.475   9.167  18.664  0.00  0.00    +0.000 A 
ATOM      3  C   UNL     1       2.058   7.969  19.071  0.00  0.00    +0.000 A 
ATOM      4  C   UNL     1       1.830   7.422  20.340  0.00  0.00    +0.000 A 
ATOM      5  C   UNL     1       1.011   8.142  21.219  0.00  0.00    +0.000 A 
ATOM      6  C   UNL     1       0.416   9.362  20.820  0.00  0.00    +0.000 A 
ENDROOT
BRANCH   4   7
ATOM      7  N   UNL     1       2.410   6.184  20.760  0.00  0.00    +0.000 N 
ATOM      8  C   UNL     1       1.762   4.966  20.722  0.00  0.00    +0.000 C 
ATOM      9  O   UNL     1       0.583   4.817  20.400  0.00  0.00    +0.000 OA
ATOM     10  H   UNL     1       3.358   6.218  21.117  0.00  0.00    +0.000 HD
BRANCH   8  11
ATOM     11  C   UNL     1       2.557   3.725  21.135  0.00  0.00    +0.000 C 
BRANCH  11  12
ATOM     12  C   UNL     1       2.170   2.662  20.099  0.00  0.00    +0.000 C 
BRANCH  12  13
ATOM     13  N   UNL     1       3.062   2.261  19.024  0.00  0.00    +0.000 N 
ATOM     14  C   UNL     1       4.366   2.487  19.451  0.00  0.00    +0.000 C 
ATOM     15  O   UNL     1       4.990   1.902  20.321  0.00  0.00    +0.000 OA
ATOM     16  C   UNL     1       4.812   3.715  18.807  0.00  0.00    +0.000 A 
ATOM     17  C   UNL     1       5.652   4.692  19.301  0.00  0.00    +0.000 A 
ATOM     18  C   UNL     1       5.638   5.930  18.646  0.00  0.00    +0.000 A 
ATOM     19  C   UNL     1       4.825   6.140  17.515  0.00  0.00    +0.000 A 
ATOM     20  C   UNL     1       3.965   5.136  17.049  0.00  0.00    +0.000 A 
ATOM     21  C   UNL     1       3.955   3.950  17.753  0.00  0.00    +0.000 A 
ATOM     22  C   UNL     1       2.910   2.923  17.820  0.00  0.00    +0.000 C 
ATOM     23  O   UNL     1       2.059   2.752  16.966  0.00  0.00    +0.000 OA
ENDBRANCH  12  13
ENDBRANCH  11  12
ENDBRANCH   8  11
ENDBRANCH   4   7
BRANCH   1  24
ATOM     24  S   UNL     1      -0.031  11.417  18.977  0.00  0.00    +0.000 S 
ATOM     25  O   UNL     1      -0.522  12.112  20.153  0.00  0.00    +0.000 OA
ATOM     26  O   UNL     1      -0.913  11.129  17.875  0.00  0.00    +0.000 OA
BRANCH  24  34
ATOM     27  C   UNL     1       1.120  17.021  18.612  0.00  0.00    +0.000 C 
ATOM     28  C   UNL     1       1.631  15.702  19.114  0.00  0.00    +0.000 A 
ATOM     29  C   UNL     1       2.596  15.651  20.108  0.00  0.00    +0.000 A 
ATOM     30  C   UNL     1       3.038  14.396  20.476  0.00  0.00    +0.000 A 
ATOM     31  C   UNL     1       4.072  14.232  21.552  0.00  0.00    +0.000 C 
ATOM     32  N   UNL     1       2.582  13.269  19.898  0.00  0.00    +0.000 NA
ATOM     33  C   UNL     1       1.637  13.433  18.972  0.00  0.00    +0.000 A 
ATOM     34  N   UNL     1       1.256  12.262  18.323  0.00  0.00    +0.000 N 
ATOM     35  N   UNL     1       1.123  14.587  18.545  0.00  0.00    +0.000 NA
ATOM     36  H   UNL     1       2.046  11.652  18.155  0.00  0.00    +0.000 HD
ENDBRANCH  24  34
ENDBRANCH   1  24
TORSDOF 6
ENDMDL
MODEL 5
REMARK VINA RESULT:      -9.3      2.547      3.187
REMARK  Name = 
REMARK  8 active torsions:
REMARK  status: ('A' for Active; 'I' for Inactive)
REMARK    1  A    between atoms: C_1  and  C_2
REMARK    2  A    between atoms: C_4  and  C_5
REMARK    3  A    between atoms: N_8  and  S_9
REMARK    4  A    between atoms: S_9  and  C_12
REMARK    5  A    between atoms: C_15  and  N_16
REMARK    6  A    between atoms: C_17  and  C_19
REMARK    7  A    between atoms: C_19  and  C_20
REMARK    8  A    between atoms: C_20  and  N_21
REMARK                            x       y       z     vdW  Elec       q    Type
REMARK                         _______ _______ _______ _____ _____    ______ ____
ROOT
ATOM      1  C   UNL     1       1.062   9.593  19.190  0.00  0.00    +0.000 A 
ATOM      2  C   UNL     1       1.450   8.688  20.166  0.00  0.00    +0.000 A 
ATOM      3  C   UNL     1       2.220   7.581  19.816  0.00  0.00    +0.000 A 
ATOM      4  C   UNL     1       2.621   7.338  18.496  0.00  0.00    +0.000 A 
ATOM      5  C   UNL     1       2.189   8.235  17.511  0.00  0.00    +0.000 A 
ATOM      6  C   UNL     1       1.402   9.361  17.852  0.00  0.00    +0.000 A 
ENDROOT
BRANCH   4   7
ATOM      7  N   UNL     1       3.427   6.215  18.132  0.00  0.00    +0.000 N 
ATOM      8  C   UNL     1       4.710   6.304  17.631  0.00  0.00    +0.000 C 
ATOM      9  O   UNL     1       5.279   7.363  17.365  0.00  0.00    +0.000 OA
ATOM     10  H   UNL     1       3.013   5.295  18.243  0.00  0.00    +0.000 HD
BRANCH   8  11
ATOM     11  C   UNL     1       5.463   4.998  17.366  0.00  0.00    +0.000 C 
BRANCH  11  12
ATOM     12  C   UNL     1       5.255   4.173  18.642  0.00  0.00    +0.000 C 
BRANCH  12  13
ATOM     13  N   UNL     1       4.657   2.849  18.625  0.00  0.00    +0.000 N 
ATOM     14  C   UNL     1       3.409   2.956  18.022  0.00  0.00    +0.000 C 
ATOM     15  O   UNL     1       3.150   3.197  16.854  0.00  0.00    +0.000 OA
ATOM     16  C   UNL     1       2.422   2.937  19.092  0.00  0.00    +0.000 A 
ATOM     17  C   UNL     1       1.219   3.611  19.170  0.00  0.00    +0.000 A 
ATOM     18  C   UNL     1       0.631   3.713  20.437  0.00  0.00    +0.000 A 
ATOM     19  C   UNL     1       1.233   3.119  21.564  0.00  0.00    +0.000 A 
ATOM     20  C   UNL     1       2.466   2.461  21.458  0.00  0.00    +0.000 A 
ATOM     21  C   UNL     1       3.051   2.432  20.210  0.00  0.00    +0.000 A 
ATOM     22  C   UNL     1       4.462   2.246  19.854  0.00  0.00    +0.000 C 
ATOM     23  O   UNL     1       5.283   1.695  20.564  0.00  0.00    +0.000 OA
ENDBRANCH  12  13
ENDBRANCH  11  12
ENDBRANCH   8  11
ENDBRANCH   4   7
BRANCH   1  24
ATOM     24  S   UNL     1       0.016  10.955  19.684  0.00  0.00    +0.000 S 
ATOM     25  O   UNL     1      -1.360  10.535  19.484  0.00  0.00    +0.000 OA
ATOM     26  O   UNL     1       0.526  12.129  19.025  0.00  0.00    +0.000 OA
BRANCH  24  34
ATOM     27  C   UNL     1       0.092  15.663  22.953  0.00  0.00    +0.000 C 
ATOM     28  C   UNL     1      -0.541  14.314  22.774  0.00  0.00    +0.000 A 
ATOM     29  C   UNL     1      -1.762  14.023  23.362  0.00  0.00    +0.000 A 
ATOM     30  C   UNL     1      -2.246  12.743  23.181  0.00  0.00    +0.000 A 
ATOM     31  C   UNL     1      -3.566  12.332  23.766  0.00  0.00    +0.000 C 
ATOM     32  N   UNL     1      -1.574  11.806  22.487  0.00  0.00    +0.000 NA
ATOM     33  C   UNL     1      -0.423  12.202  21.942  0.00  0.00    +0.000 A 
ATOM     34  N   UNL     1       0.298  11.188  21.316  0.00  0.00    +0.000 N 
ATOM     35  N   UNL     1       0.138  13.408  22.037  0.00  0.00    +0.000 NA
ATOM     36  H   UNL     1       0.238  10.315  21.825  0.00  0.00    +0.000 HD
ENDBRANCH  24  34
ENDBRANCH   1  24
TORSDOF 6
ENDMDL
MODEL 6
REMARK VINA RESULT:      -9.1      2.253      2.785
REMARK  Name = 
REMARK  8 active torsions:
REMARK  status: ('A' for Active; 'I' for Inactive)
REMARK    1  A    between atoms: C_1  and  C_2
REMARK    2  A    between atoms: C_4  and  C_5
REMARK    3  A    between atoms: N_8  and  S_9
REMARK    4  A    between atoms: S_9  and  C_12
REMARK    5  A    between atoms: C_15  and  N_16
REMARK    6  A    between atoms: C_17  and  C_19
REMARK    7  A    between atoms: C_19  and  C_20
REMARK    8  A    between atoms: C_20  and  N_21
REMARK                            x       y       z     vdW  Elec       q    Type
REMARK                         _______ _______ _______ _____ _____    ______ ____
ROOT
ATOM      1  C   UNL     1       1.493   9.217  19.129  0.00  0.00    +0.000 A 
ATOM      2  C   UNL     1       2.187   9.104  17.935  0.00  0.00    +0.000 A 
ATOM      3  C   UNL     1       2.906   7.943  17.659  0.00  0.00    +0.000 A 
ATOM      4  C   UNL     1       2.962   6.869  18.557  0.00  0.00    +0.000 A 
ATOM      5  C   UNL     1       2.293   7.010  19.779  0.00  0.00    +0.000 A 
ATOM      6  C   UNL     1       1.562   8.186  20.073  0.00  0.00    +0.000 A 
ENDROOT
BRANCH   4   7
ATOM      7  N   UNL     1       3.683   5.667  18.274  0.00  0.00    +0.000 N 
ATOM      8  C   UNL     1       5.057   5.586  18.175  0.00  0.00    +0.000 C 
ATOM      9  O   UNL     1       5.816   6.554  18.240  0.00  0.00    +0.000 OA
ATOM     10  H   UNL     1       3.135   4.826  18.126  0.00  0.00    +0.000 HD
BRANCH   8  11
ATOM     11  C   UNL     1       5.673   4.203  17.944  0.00  0.00    +0.000 C 
BRANCH  11  12
ATOM     12  C   UNL     1       4.524   3.365  17.370  0.00  0.00    +0.000 C 
BRANCH  12  13
ATOM     13  N   UNL     1       4.018   2.177  18.037  0.00  0.00    +0.000 N 
ATOM     14  C   UNL     1       2.644   2.131  17.834  0.00  0.00    +0.000 C 
ATOM     15  O   UNL     1       2.037   1.927  16.795  0.00  0.00    +0.000 OA
ATOM     16  C   UNL     1       2.021   2.586  19.070  0.00  0.00    +0.000 A 
ATOM     17  C   UNL     1       0.862   3.317  19.235  0.00  0.00    +0.000 A 
ATOM     18  C   UNL     1       0.672   3.931  20.478  0.00  0.00    +0.000 A 
ATOM     19  C   UNL     1       1.613   3.771  21.515  0.00  0.00    +0.000 A 
ATOM     20  C   UNL     1       2.791   3.041  21.312  0.00  0.00    +0.000 A 
ATOM     21  C   UNL     1       2.980   2.501  20.057  0.00  0.00    +0.000 A 
ATOM     22  C   UNL     1       4.229   2.101  19.401  0.00  0.00    +0.000 C 
ATOM     23  O   UNL     1       5.252   1.807  19.992  0.00  0.00    +0.000 OA
ENDBRANCH  12  13
ENDBRANCH  11  12
ENDBRANCH   8  11
ENDBRANCH   4   7
BRANCH   1  24
ATOM     24  S   UNL     1       0.647  10.756  19.460  0.00  0.00    +0.000 S 
ATOM     25  O   UNL     1      -0.770  10.523  19.240  0.00  0.00    +0.000 OA
ATOM     26  O   UNL     1       1.344  11.778  18.722  0.00  0.00    +0.000 OA
BRANCH  24  34
ATOM     27  C   UNL     1       0.459  15.635  22.462  0.00  0.00    +0.000 C 
ATOM     28  C   UNL     1      -0.097  14.245  22.360  0.00  0.00    +0.000 A 
ATOM     29  C   UNL     1      -1.300  13.920  22.966  0.00  0.00    +0.000 A 
ATOM     30  C   UNL     1      -1.713  12.607  22.857  0.00  0.00    +0.000 A 
ATOM     31  C   UNL     1      -3.008  12.156  23.468  0.00  0.00    +0.000 C 
ATOM     32  N   UNL     1      -0.989  11.671  22.215  0.00  0.00    +0.000 NA
ATOM     33  C   UNL     1       0.138  12.100  21.646  0.00  0.00    +0.000 A 
ATOM     34  N   UNL     1       0.915  11.095  21.075  0.00  0.00    +0.000 N 
ATOM     35  N   UNL     1       0.631  13.339  21.672  0.00  0.00    +0.000 NA
ATOM     36  H   UNL     1       0.903  10.250  21.632  0.00  0.00    +0.000 HD
ENDBRANCH  24  34
ENDBRANCH   1  24
TORSDOF 6
ENDMDL
MODEL 7
REMARK VINA RESULT:      -9.1      2.517      9.287
REMARK  Name = 
REMARK  8 active torsions:
REMARK  status: ('A' for Active; 'I' for Inactive)
REMARK    1  A    between atoms: C_1  and  C_2
REMARK    2  A    between atoms: C_4  and  C_5
REMARK    3  A    between atoms: N_8  and  S_9
REMARK    4  A    between atoms: S_9  and  C_12
REMARK    5  A    between atoms: C_15  and  N_16
REMARK    6  A    between atoms: C_17  and  C_19
REMARK    7  A    between atoms: C_19  and  C_20
REMARK    8  A    between atoms: C_20  and  N_21
REMARK                            x       y       z     vdW  Elec       q    Type
REMARK                         _______ _______ _______ _____ _____    ______ ____
ROOT
ATOM      1  C   UNL     1       2.500   4.597  18.924  0.00  0.00    +0.000 A 
ATOM      2  C   UNL     1       2.474   5.782  18.206  0.00  0.00    +0.000 A 
ATOM      3  C   UNL     1       2.180   6.979  18.856  0.00  0.00    +0.000 A 
ATOM      4  C   UNL     1       1.898   7.033  20.227  0.00  0.00    +0.000 A 
ATOM      5  C   UNL     1       1.885   5.825  20.935  0.00  0.00    +0.000 A 
ATOM      6  C   UNL     1       2.177   4.602  20.286  0.00  0.00    +0.000 A 
ENDROOT
BRANCH   4   7
ATOM      7  N   UNL     1       1.612   8.259  20.906  0.00  0.00    +0.000 N 
ATOM      8  C   UNL     1       0.398   8.566  21.486  0.00  0.00    +0.000 C 
ATOM      9  O   UNL     1      -0.604   7.853  21.416  0.00  0.00    +0.000 OA
ATOM     10  H   UNL     1       2.357   8.946  20.947  0.00  0.00    +0.000 HD
BRANCH   8  11
ATOM     11  C   UNL     1       0.286   9.892  22.242  0.00  0.00    +0.000 C 
BRANCH  11  12
ATOM     12  C   UNL     1       0.766  10.946  21.237  0.00  0.00    +0.000 C 
BRANCH  12  13
ATOM     13  N   UNL     1       0.045  11.235  20.008  0.00  0.00    +0.000 N 
ATOM     14  C   UNL     1       0.968  11.247  18.969  0.00  0.00    +0.000 C 
ATOM     15  O   UNL     1       1.592  10.310  18.499  0.00  0.00    +0.000 OA
ATOM     16  C   UNL     1       1.231  12.645  18.657  0.00  0.00    +0.000 A 
ATOM     17  C   UNL     1       2.411  13.230  18.244  0.00  0.00    +0.000 A 
ATOM     18  C   UNL     1       2.502  14.623  18.359  0.00  0.00    +0.000 A 
ATOM     19  C   UNL     1       1.417  15.381  18.843  0.00  0.00    +0.000 A 
ATOM     20  C   UNL     1       0.240  14.757  19.277  0.00  0.00    +0.000 A 
ATOM     21  C   UNL     1       0.204  13.380  19.210  0.00  0.00    +0.000 A 
ATOM     22  C   UNL     1      -0.633  12.439  19.962  0.00  0.00    +0.000 C 
ATOM     23  O   UNL     1      -1.701  12.725  20.472  0.00  0.00    +0.000 OA
ENDBRANCH  12  13
ENDBRANCH  11  12
ENDBRANCH   8  11
ENDBRANCH   4   7
BRANCH   1  24
ATOM     24  S   UNL     1       2.814   3.085  18.025  0.00  0.00    +0.000 S 
ATOM     25  O   UNL     1       2.219   3.236  16.709  0.00  0.00    +0.000 OA
ATOM     26  O   UNL     1       2.419   2.001  18.887  0.00  0.00    +0.000 OA
BRANCH  24  34
ATOM     27  C   UNL     1       6.358   3.829  13.581  0.00  0.00    +0.000 C 
ATOM     28  C   UNL     1       6.040   4.283  14.975  0.00  0.00    +0.000 A 
ATOM     29  C   UNL     1       6.496   5.507  15.440  0.00  0.00    +0.000 A 
ATOM     30  C   UNL     1       6.194   5.822  16.749  0.00  0.00    +0.000 A 
ATOM     31  C   UNL     1       6.631   7.129  17.345  0.00  0.00    +0.000 C 
ATOM     32  N   UNL     1       5.508   4.990  17.555  0.00  0.00    +0.000 NA
ATOM     33  C   UNL     1       5.095   3.852  16.997  0.00  0.00    +0.000 A 
ATOM     34  N   UNL     1       4.476   2.969  17.878  0.00  0.00    +0.000 N 
ATOM     35  N   UNL     1       5.314   3.445  15.746  0.00  0.00    +0.000 NA
ATOM     36  H   UNL     1       4.923   2.969  18.786  0.00  0.00    +0.000 HD
ENDBRANCH  24  34
ENDBRANCH   1  24
TORSDOF 6
ENDMDL
MODEL 8
REMARK VINA RESULT:      -9.1      3.084      8.775
REMARK  Name = 
REMARK  8 active torsions:
REMARK  status: ('A' for Active; 'I' for Inactive)
REMARK    1  A    between atoms: C_1  and  C_2
REMARK    2  A    between atoms: C_4  and  C_5
REMARK    3  A    between atoms: N_8  and  S_9
REMARK    4  A    between atoms: S_9  and  C_12
REMARK    5  A    between atoms: C_15  and  N_16
REMARK    6  A    between atoms: C_17  and  C_19
REMARK    7  A    between atoms: C_19  and  C_20
REMARK    8  A    between atoms: C_20  and  N_21
REMARK                            x       y       z     vdW  Elec       q    Type
REMARK                         _______ _______ _______ _____ _____    ______ ____
ROOT
ATOM      1  C   UNL     1       2.558   4.236  19.025  0.00  0.00    +0.000 A 
ATOM      2  C   UNL     1       2.637   4.465  20.390  0.00  0.00    +0.000 A 
ATOM      3  C   UNL     1       2.421   5.747  20.891  0.00  0.00    +0.000 A 
ATOM      4  C   UNL     1       2.128   6.834  20.058  0.00  0.00    +0.000 A 
ATOM      5  C   UNL     1       2.092   6.601  18.678  0.00  0.00    +0.000 A 
ATOM      6  C   UNL     1       2.314   5.305  18.155  0.00  0.00    +0.000 A 
ENDROOT
BRANCH   4   7
ATOM      7  N   UNL     1       1.887   8.149  20.565  0.00  0.00    +0.000 N 
ATOM      8  C   UNL     1       0.759   8.519  21.270  0.00  0.00    +0.000 C 
ATOM      9  O   UNL     1      -0.205   7.780  21.474  0.00  0.00    +0.000 OA
ATOM     10  H   UNL     1       2.594   8.851  20.379  0.00  0.00    +0.000 HD
BRANCH   8  11
ATOM     11  C   UNL     1       0.696   9.949  21.810  0.00  0.00    +0.000 C 
BRANCH  11  12
ATOM     12  C   UNL     1      -0.448  10.603  21.026  0.00  0.00    +0.000 C 
BRANCH  12  13
ATOM     13  N   UNL     1      -0.220  11.384  19.821  0.00  0.00    +0.000 N 
ATOM     14  C   UNL     1      -1.305  12.235  19.657  0.00  0.00    +0.000 C 
ATOM     15  O   UNL     1      -1.624  13.197  20.338  0.00  0.00    +0.000 OA
ATOM     16  C   UNL     1      -2.147  11.650  18.622  0.00  0.00    +0.000 A 
ATOM     17  C   UNL     1      -3.523  11.667  18.516  0.00  0.00    +0.000 A 
ATOM     18  C   UNL     1      -4.102  10.738  17.643  0.00  0.00    +0.000 A 
ATOM     19  C   UNL     1      -3.301   9.858  16.888  0.00  0.00    +0.000 A 
ATOM     20  C   UNL     1      -1.908   9.849  17.033  0.00  0.00    +0.000 A 
ATOM     21  C   UNL     1      -1.371  10.732  17.947  0.00  0.00    +0.000 A 
ATOM     22  C   UNL     1      -0.082  10.671  18.644  0.00  0.00    +0.000 C 
ATOM     23  O   UNL     1       0.888  10.056  18.242  0.00  0.00    +0.000 OA
ENDBRANCH  12  13
ENDBRANCH  11  12
ENDBRANCH   8  11
ENDBRANCH   4   7
BRANCH   1  24
ATOM     24  S   UNL     1       2.914   2.588  18.434  0.00  0.00    +0.000 S 
ATOM     25  O   UNL     1       1.868   2.235  17.490  0.00  0.00    +0.000 OA
ATOM     26  O   UNL     1       3.154   1.774  19.598  0.00  0.00    +0.000 OA
BRANCH  24  34
ATOM     27  C   UNL     1       5.295   6.705  15.234  0.00  0.00    +0.000 C 
ATOM     28  C   UNL     1       5.480   5.848  16.451  0.00  0.00    +0.000 A 
ATOM     29  C   UNL     1       6.370   6.218  17.447  0.00  0.00    +0.000 A 
ATOM     30  C   UNL     1       6.508   5.347  18.508  0.00  0.00    +0.000 A 
ATOM     31  C   UNL     1       7.438   5.663  19.644  0.00  0.00    +0.000 C 
ATOM     32  N   UNL     1       5.836   4.184  18.583  0.00  0.00    +0.000 NA
ATOM     33  C   UNL     1       4.987   3.940  17.584  0.00  0.00    +0.000 A 
ATOM     34  N   UNL     1       4.380   2.688  17.636  0.00  0.00    +0.000 N 
ATOM     35  N   UNL     1       4.759   4.707  16.518  0.00  0.00    +0.000 NA
ATOM     36  H   UNL     1       5.020   1.973  17.959  0.00  0.00    +0.000 HD
ENDBRANCH  24  34
ENDBRANCH   1  24
TORSDOF 6
ENDMDL
MODEL 9
REMARK VINA RESULT:      -9.0      2.369      3.227
REMARK  Name = 
REMARK  8 active torsions:
REMARK  status: ('A' for Active; 'I' for Inactive)
REMARK    1  A    between atoms: C_1  and  C_2
REMARK    2  A    between atoms: C_4  and  C_5
REMARK    3  A    between atoms: N_8  and  S_9
REMARK    4  A    between atoms: S_9  and  C_12
REMARK    5  A    between atoms: C_15  and  N_16
REMARK    6  A    between atoms: C_17  and  C_19
REMARK    7  A    between atoms: C_19  and  C_20
REMARK    8  A    between atoms: C_20  and  N_21
REMARK                            x       y       z     vdW  Elec       q    Type
REMARK                         _______ _______ _______ _____ _____    ______ ____
ROOT
ATOM      1  C   UNL     1       1.055   9.872  19.822  0.00  0.00    +0.000 A 
ATOM      2  C   UNL     1       1.510  10.176  18.548  0.00  0.00    +0.000 A 
ATOM      3  C   UNL     1       2.145   9.196  17.787  0.00  0.00    +0.000 A 
ATOM      4  C   UNL     1       2.352   7.896  18.267  0.00  0.00    +0.000 A 
ATOM      5  C   UNL     1       1.928   7.611  19.570  0.00  0.00    +0.000 A 
ATOM      6  C   UNL     1       1.285   8.598  20.356  0.00  0.00    +0.000 A 
ENDROOT
BRANCH   4   7
ATOM      7  N   UNL     1       2.987   6.881  17.486  0.00  0.00    +0.000 N 
ATOM      8  C   UNL     1       3.973   6.037  17.956  0.00  0.00    +0.000 C 
ATOM      9  O   UNL     1       4.477   6.115  19.078  0.00  0.00    +0.000 OA
ATOM     10  H   UNL     1       2.692   6.791  16.520  0.00  0.00    +0.000 HD
BRANCH   8  11
ATOM     11  C   UNL     1       4.491   4.951  17.010  0.00  0.00    +0.000 C 
BRANCH  11  12
ATOM     12  C   UNL     1       5.017   3.852  17.941  0.00  0.00    +0.000 C 
BRANCH  12  13
ATOM     13  N   UNL     1       4.295   2.612  18.168  0.00  0.00    +0.000 N 
ATOM     14  C   UNL     1       2.977   2.812  17.776  0.00  0.00    +0.000 C 
ATOM     15  O   UNL     1       2.538   2.977  16.649  0.00  0.00    +0.000 OA
ATOM     16  C   UNL     1       2.200   3.005  18.993  0.00  0.00    +0.000 A 
ATOM     17  C   UNL     1       1.106   3.820  19.199  0.00  0.00    +0.000 A 
ATOM     18  C   UNL     1       0.767   4.103  20.528  0.00  0.00    +0.000 A 
ATOM     19  C   UNL     1       1.499   3.544  21.595  0.00  0.00    +0.000 A 
ATOM     20  C   UNL     1       2.620   2.738  21.355  0.00  0.00    +0.000 A 
ATOM     21  C   UNL     1       2.966   2.530  20.036  0.00  0.00    +0.000 A 
ATOM     22  C   UNL     1       4.264   2.148  19.470  0.00  0.00    +0.000 C 
ATOM     23  O   UNL     1       5.139   1.569  20.087  0.00  0.00    +0.000 OA
ENDBRANCH  12  13
ENDBRANCH  11  12
ENDBRANCH   8  11
ENDBRANCH   4   7
BRANCH   1  24
ATOM     24  S   UNL     1       0.312  11.185  20.777  0.00  0.00    +0.000 S 
ATOM     25  O   UNL     1       1.386  11.870  21.475  0.00  0.00    +0.000 OA
ATOM     26  O   UNL     1      -0.779  10.597  21.511  0.00  0.00    +0.000 OA
BRANCH  24  34
ATOM     27  C   UNL     1      -3.299  10.314  16.411  0.00  0.00    +0.000 C 
ATOM     28  C   UNL     1      -3.099  11.061  17.697  0.00  0.00    +0.000 A 
ATOM     29  C   UNL     1      -4.183  11.587  18.383  0.00  0.00    +0.000 A 
ATOM     30  C   UNL     1      -3.902  12.296  19.533  0.00  0.00    +0.000 A 
ATOM     31  C   UNL     1      -5.006  12.895  20.355  0.00  0.00    +0.000 C 
ATOM     32  N   UNL     1      -2.645  12.494  19.973  0.00  0.00    +0.000 NA
ATOM     33  C   UNL     1      -1.681  11.922  19.251  0.00  0.00    +0.000 A 
ATOM     34  N   UNL     1      -0.389  12.225  19.671  0.00  0.00    +0.000 N 
ATOM     35  N   UNL     1      -1.830  11.207  18.136  0.00  0.00    +0.000 NA
ATOM     36  H   UNL     1      -0.309  13.188  19.974  0.00  0.00    +0.000 HD
ENDBRANCH  24  34
ENDBRANCH   1  24
TORSDOF 6
ENDMDL
