MODEL 1
REMARK VINA RESULT:      -8.9      0.000      0.000
REMARK  Name = 
REMARK  7 active torsions:
REMARK  status: ('A' for Active; 'I' for Inactive)
REMARK    1  A    between atoms: C_1  and  C_2
REMARK    2  A    between atoms: C_8  and  C_10
REMARK    3  A    between atoms: C_14  and  C_15
REMARK    4  A    between atoms: N_17  and  C_18
REMARK    5  A    between atoms: C_22  and  C_23
REMARK    6  A    between atoms: C_23  and  C_24
REMARK    7  A    between atoms: N_28  and  C_29
REMARK                            x       y       z     vdW  Elec       q    Type
REMARK                         _______ _______ _______ _____ _____    ______ ____
ROOT
ATOM      1  C   UNL     1       0.642   9.286  20.765  0.00  0.00    +0.000 C 
ATOM      2  O   UNL     1       0.460   8.708  21.826  0.00  0.00    +0.000 OA
ATOM      3  N   UNL     1       0.079  10.490  20.360  0.00  0.00    +0.000 N 
ATOM      4  H   UNL     1       0.285  10.763  19.402  0.00  0.00    +0.000 HD
ENDROOT
BRANCH   1   9
ATOM      5  C   UNL     1       2.942   6.843  19.037  0.00  0.00    +0.000 A 
ATOM      6  C   UNL     1       2.975   7.435  17.776  0.00  0.00    +0.000 A 
ATOM      7  C   UNL     1       2.348   8.657  17.593  0.00  0.00    +0.000 A 
ATOM      8  N   UNL     1       1.622   9.278  18.541  0.00  0.00    +0.000 NA
ATOM      9  C   UNL     1       1.522   8.639  19.738  0.00  0.00    +0.000 A 
ATOM     10  C   UNL     1       2.164   7.442  20.032  0.00  0.00    +0.000 A 
BRANCH   5  18
ATOM     11  C   UNL     1       0.771   3.700  20.137  0.00  0.00    +0.000 C 
ATOM     12  C   UNL     1       1.615   4.069  18.910  0.00  0.00    +0.000 C 
ATOM     13  N   UNL     1       1.578   3.074  17.855  0.00  0.00    +0.000 NA
ATOM     14  C   UNL     1       2.325   1.892  18.216  0.00  0.00    +0.000 C 
ATOM     15  O   UNL     1       3.671   2.227  18.467  0.00  0.00    +0.000 OA
ATOM     16  C   UNL     1       3.777   3.138  19.551  0.00  0.00    +0.000 C 
ATOM     17  N   UNL     1       2.997   4.325  19.247  0.00  0.00    +0.000 N 
ATOM     18  C   UNL     1       3.632   5.560  19.367  0.00  0.00    +0.000 C 
ATOM     19  O   UNL     1       4.813   5.665  19.707  0.00  0.00    +0.000 OA
ATOM     20  H   UNL     1       2.068   3.476  17.057  0.00  0.00    +0.000 HD
ENDBRANCH   5  18
ENDBRANCH   1   9
BRANCH   3  21
ATOM     21  C   UNL     1      -0.812  11.290  21.107  0.00  0.00    +0.000 A 
ATOM     22  C   UNL     1      -0.635  11.544  22.468  0.00  0.00    +0.000 A 
ATOM     23  C   UNL     1      -1.567  12.286  23.189  0.00  0.00    +0.000 A 
ATOM     24  C   UNL     1      -2.691  12.800  22.553  0.00  0.00    +0.000 A 
ATOM     25  C   UNL     1      -2.883  12.593  21.180  0.00  0.00    +0.000 A 
ATOM     26  C   UNL     1      -1.927  11.844  20.460  0.00  0.00    +0.000 A 
BRANCH  25  27
ATOM     27  C   UNL     1      -4.092  13.201  20.502  0.00  0.00    +0.000 C 
BRANCH  27  28
ATOM     28  C   UNL     1      -5.303  12.330  20.488  0.00  0.00    +0.000 A 
ATOM     29  N   UNL     1      -6.069  12.063  21.528  0.00  0.00    +0.000 NA
ATOM     30  N   UNL     1      -7.080  11.229  21.116  0.00  0.00    +0.000 NA
ATOM     31  C   UNL     1      -6.908  10.999  19.837  0.00  0.00    +0.000 A 
ATOM     32  N   UNL     1      -5.792  11.648  19.403  0.00  0.00    +0.000 N 
ATOM     33  C   UNL     1      -5.258  11.597  18.068  0.00  0.00    +0.000 C 
ENDBRANCH  27  28
ENDBRANCH  25  27
ENDBRANCH   3  21
TORSDOF 5
ENDMDL
MODEL 2
REMARK VINA RESULT:      -8.9      7.185     10.194
REMARK  Name = 
REMARK  7 active torsions:
REMARK  status: ('A' for Active; 'I' for Inactive)
REMARK    1  A    between atoms: C_1  and  C_2
REMARK    2  A    between atoms: C_8  and  C_10
REMARK    3  A    between atoms: C_14  and  C_15
REMARK    4  A    between atoms: N_17  and  C_18
REMARK    5  A    between atoms: C_22  and  C_23
REMARK    6  A    between atoms: C_23  and  C_24
REMARK    7  A    between atoms: N_28  and  C_29
REMARK                            x       y       z     vdW  Elec       q    Type
REMARK                         _______ _______ _______ _____ _____    ______ ____
ROOT
ATOM      1  C   UNL     1       7.918   7.467  18.193  0.00  0.00    +0.000 C 
ATOM      2  O   UNL     1       8.608   6.911  19.033  0.00  0.00    +0.000 OA
ATOM      3  N   UNL     1       7.922   8.817  17.866  0.00  0.00    +0.000 N 
ATOM      4  H   UNL     1       7.208   9.103  17.199  0.00  0.00    +0.000 HD
ENDROOT
BRANCH   1   9
ATOM      5  C   UNL     1       4.712   5.717  17.241  0.00  0.00    +0.000 A 
ATOM      6  C   UNL     1       5.066   5.303  15.959  0.00  0.00    +0.000 A 
ATOM      7  C   UNL     1       6.366   5.508  15.524  0.00  0.00    +0.000 A 
ATOM      8  N   UNL     1       7.299   6.172  16.231  0.00  0.00    +0.000 NA
ATOM      9  C   UNL     1       6.907   6.653  17.443  0.00  0.00    +0.000 A 
ATOM     10  C   UNL     1       5.645   6.444  17.986  0.00  0.00    +0.000 A 
BRANCH   5  18
ATOM     11  C   UNL     1       3.441   1.997  17.837  0.00  0.00    +0.000 C 
ATOM     12  C   UNL     1       3.869   3.163  18.738  0.00  0.00    +0.000 C 
ATOM     13  N   UNL     1       3.880   2.835  20.151  0.00  0.00    +0.000 NA
ATOM     14  C   UNL     1       2.541   2.708  20.676  0.00  0.00    +0.000 C 
ATOM     15  O   UNL     1       1.835   3.915  20.503  0.00  0.00    +0.000 OA
ATOM     16  C   UNL     1       1.717   4.246  19.127  0.00  0.00    +0.000 C 
ATOM     17  N   UNL     1       3.047   4.337  18.549  0.00  0.00    +0.000 N 
ATOM     18  C   UNL     1       3.362   5.495  17.839  0.00  0.00    +0.000 C 
ATOM     19  O   UNL     1       2.561   6.424  17.704  0.00  0.00    +0.000 OA
ATOM     20  H   UNL     1       4.289   3.634  20.633  0.00  0.00    +0.000 HD
ENDBRANCH   5  18
ENDBRANCH   1   9
BRANCH   3  21
ATOM     21  C   UNL     1       8.739   9.814  18.440  0.00  0.00    +0.000 A 
ATOM     22  C   UNL     1       9.030   9.855  19.805  0.00  0.00    +0.000 A 
ATOM     23  C   UNL     1       9.788  10.889  20.349  0.00  0.00    +0.000 A 
ATOM     24  C   UNL     1      10.282  11.897  19.529  0.00  0.00    +0.000 A 
ATOM     25  C   UNL     1      10.038  11.869  18.150  0.00  0.00    +0.000 A 
ATOM     26  C   UNL     1       9.273  10.812  17.610  0.00  0.00    +0.000 A 
BRANCH  25  27
ATOM     27  C   UNL     1      10.625  12.954  17.272  0.00  0.00    +0.000 C 
BRANCH  27  28
ATOM     28  C   UNL     1      10.162  14.335  17.594  0.00  0.00    +0.000 A 
ATOM     29  N   UNL     1       8.926  14.678  17.903  0.00  0.00    +0.000 NA
ATOM     30  N   UNL     1       8.898  16.032  18.134  0.00  0.00    +0.000 NA
ATOM     31  C   UNL     1      10.115  16.489  17.956  0.00  0.00    +0.000 A 
ATOM     32  N   UNL     1      10.937  15.466  17.593  0.00  0.00    +0.000 N 
ATOM     33  C   UNL     1      12.333  15.588  17.269  0.00  0.00    +0.000 C 
ENDBRANCH  27  28
ENDBRANCH  25  27
ENDBRANCH   3  21
TORSDOF 5
ENDMDL
MODEL 3
REMARK VINA RESULT:      -8.8      7.187     10.178
REMARK  Name = 
REMARK  7 active torsions:
REMARK  status: ('A' for Active; 'I' for Inactive)
REMARK    1  A    between atoms: C_1  and  C_2
REMARK    2  A    between atoms: C_8  and  C_10
REMARK    3  A    between atoms: C_14  and  C_15
REMARK    4  A    between atoms: N_17  and  C_18
REMARK    5  A    between atoms: C_22  and  C_23
REMARK    6  A    between atoms: C_23  and  C_24
REMARK    7  A    between atoms: N_28  and  C_29
REMARK                            x       y       z     vdW  Elec       q    Type
REMARK                         _______ _______ _______ _____ _____    ______ ____
ROOT
ATOM      1  C   UNL     1       7.920   7.495  18.197  0.00  0.00    +0.000 C 
ATOM      2  O   UNL     1       8.614   6.955  19.046  0.00  0.00    +0.000 OA
ATOM      3  N   UNL     1       7.917   8.841  17.851  0.00  0.00    +0.000 N 
ATOM      4  H   UNL     1       7.201   9.113  17.181  0.00  0.00    +0.000 HD
ENDROOT
BRANCH   1   9
ATOM      5  C   UNL     1       4.725   5.714  17.271  0.00  0.00    +0.000 A 
ATOM      6  C   UNL     1       5.081   5.284  15.995  0.00  0.00    +0.000 A 
ATOM      7  C   UNL     1       6.379   5.490  15.556  0.00  0.00    +0.000 A 
ATOM      8  N   UNL     1       7.308   6.170  16.254  0.00  0.00    +0.000 NA
ATOM      9  C   UNL     1       6.914   6.665  17.459  0.00  0.00    +0.000 A 
ATOM     10  C   UNL     1       5.653   6.457  18.006  0.00  0.00    +0.000 A 
BRANCH   5  18
ATOM     11  C   UNL     1       3.444   1.995  17.849  0.00  0.00    +0.000 C 
ATOM     12  C   UNL     1       3.879   3.154  18.756  0.00  0.00    +0.000 C 
ATOM     13  N   UNL     1       3.894   2.818  20.167  0.00  0.00    +0.000 NA
ATOM     14  C   UNL     1       2.556   2.691  20.695  0.00  0.00    +0.000 C 
ATOM     15  O   UNL     1       1.853   3.902  20.532  0.00  0.00    +0.000 OA
ATOM     16  C   UNL     1       1.731   4.241  19.159  0.00  0.00    +0.000 C 
ATOM     17  N   UNL     1       3.060   4.332  18.577  0.00  0.00    +0.000 N 
ATOM     18  C   UNL     1       3.376   5.492  17.872  0.00  0.00    +0.000 C 
ATOM     19  O   UNL     1       2.578   6.424  17.745  0.00  0.00    +0.000 OA
ATOM     20  H   UNL     1       4.307   3.613  20.652  0.00  0.00    +0.000 HD
ENDBRANCH   5  18
ENDBRANCH   1   9
BRANCH   3  21
ATOM     21  C   UNL     1       8.728   9.851  18.411  0.00  0.00    +0.000 A 
ATOM     22  C   UNL     1       9.056   9.886  19.768  0.00  0.00    +0.000 A 
ATOM     23  C   UNL     1       9.807  10.932  20.300  0.00  0.00    +0.000 A 
ATOM     24  C   UNL     1      10.256  11.957  19.476  0.00  0.00    +0.000 A 
ATOM     25  C   UNL     1       9.974  11.935  18.103  0.00  0.00    +0.000 A 
ATOM     26  C   UNL     1       9.217  10.866  17.576  0.00  0.00    +0.000 A 
BRANCH  25  27
ATOM     27  C   UNL     1      10.513  13.040  17.219  0.00  0.00    +0.000 C 
BRANCH  27  28
ATOM     28  C   UNL     1      10.597  14.377  17.874  0.00  0.00    +0.000 A 
ATOM     29  N   UNL     1      11.705  14.962  18.287  0.00  0.00    +0.000 NA
ATOM     30  N   UNL     1      11.374  16.178  18.833  0.00  0.00    +0.000 NA
ATOM     31  C   UNL     1      10.072  16.309  18.749  0.00  0.00    +0.000 A 
ATOM     32  N   UNL     1       9.539  15.194  18.177  0.00  0.00    +0.000 N 
ATOM     33  C   UNL     1       8.137  14.953  17.960  0.00  0.00    +0.000 C 
ENDBRANCH  27  28
ENDBRANCH  25  27
ENDBRANCH   3  21
TORSDOF 5
ENDMDL
MODEL 4
REMARK VINA RESULT:      -8.8      4.092     10.512
REMARK  Name = 
REMARK  7 active torsions:
REMARK  status: ('A' for Active; 'I' for Inactive)
REMARK    1  A    between atoms: C_1  and  C_2
REMARK    2  A    between atoms: C_8  and  C_10
REMARK    3  A    between atoms: C_14  and  C_15
REMARK    4  A    between atoms: N_17  and  C_18
REMARK    5  A    between atoms: C_22  and  C_23
REMARK    6  A    between atoms: C_23  and  C_24
REMARK    7  A    between atoms: N_28  and  C_29
REMARK                            x       y       z     vdW  Elec       q    Type
REMARK                         _______ _______ _______ _____ _____    ______ ____
ROOT
ATOM      1  C   UNL     1       2.119   8.289  18.296  0.00  0.00    +0.000 C 
ATOM      2  O   UNL     1       2.516   8.624  17.190  0.00  0.00    +0.000 OA
ATOM      3  N   UNL     1       2.184   7.021  18.861  0.00  0.00    +0.000 N 
ATOM      4  H   UNL     1       1.716   6.923  19.759  0.00  0.00    +0.000 HD
ENDROOT
BRANCH   1   9
ATOM      5  C   UNL     1       0.607  11.532  19.495  0.00  0.00    +0.000 A 
ATOM      6  C   UNL     1       0.043  11.079  20.685  0.00  0.00    +0.000 A 
ATOM      7  C   UNL     1       0.289   9.777  21.090  0.00  0.00    +0.000 A 
ATOM      8  N   UNL     1       0.972   8.879  20.356  0.00  0.00    +0.000 NA
ATOM      9  C   UNL     1       1.435   9.312  19.152  0.00  0.00    +0.000 A 
ATOM     10  C   UNL     1       1.287  10.614  18.690  0.00  0.00    +0.000 A 
BRANCH   5  18
ATOM     11  C   UNL     1       2.071  14.538  21.646  0.00  0.00    +0.000 C 
ATOM     12  C   UNL     1       2.427  13.877  20.307  0.00  0.00    +0.000 C 
ATOM     13  N   UNL     1       3.618  14.423  19.686  0.00  0.00    +0.000 NA
ATOM     14  C   UNL     1       3.381  15.746  19.157  0.00  0.00    +0.000 C 
ATOM     15  O   UNL     1       2.353  15.707  18.194  0.00  0.00    +0.000 OA
ATOM     16  C   UNL     1       1.134  15.259  18.766  0.00  0.00    +0.000 C 
ATOM     17  N   UNL     1       1.343  13.946  19.353  0.00  0.00    +0.000 N 
ATOM     18  C   UNL     1       0.461  12.930  18.989  0.00  0.00    +0.000 C 
ATOM     19  O   UNL     1      -0.463  13.113  18.192  0.00  0.00    +0.000 OA
ATOM     20  H   UNL     1       3.821  13.836  18.878  0.00  0.00    +0.000 HD
ENDBRANCH   5  18
ENDBRANCH   1   9
BRANCH   3  21
ATOM     21  C   UNL     1       2.736   5.867  18.264  0.00  0.00    +0.000 A 
ATOM     22  C   UNL     1       1.964   4.757  17.917  0.00  0.00    +0.000 A 
ATOM     23  C   UNL     1       2.550   3.610  17.388  0.00  0.00    +0.000 A 
ATOM     24  C   UNL     1       3.924   3.559  17.184  0.00  0.00    +0.000 A 
ATOM     25  C   UNL     1       4.725   4.668  17.489  0.00  0.00    +0.000 A 
ATOM     26  C   UNL     1       4.117   5.827  18.019  0.00  0.00    +0.000 A 
BRANCH  25  27
ATOM     27  C   UNL     1       6.212   4.605  17.215  0.00  0.00    +0.000 C 
BRANCH  27  28
ATOM     28  C   UNL     1       6.936   5.894  17.407  0.00  0.00    +0.000 A 
ATOM     29  N   UNL     1       7.052   6.852  16.507  0.00  0.00    +0.000 NA
ATOM     30  N   UNL     1       7.786   7.875  17.057  0.00  0.00    +0.000 NA
ATOM     31  C   UNL     1       8.107   7.520  18.278  0.00  0.00    +0.000 A 
ATOM     32  N   UNL     1       7.618   6.276  18.534  0.00  0.00    +0.000 N 
ATOM     33  C   UNL     1       7.808   5.535  19.753  0.00  0.00    +0.000 C 
ENDBRANCH  27  28
ENDBRANCH  25  27
ENDBRANCH   3  21
TORSDOF 5
ENDMDL
MODEL 5
REMARK VINA RESULT:      -8.7      2.945     10.314
REMARK  Name = 
REMARK  7 active torsions:
REMARK  status: ('A' for Active; 'I' for Inactive)
REMARK    1  A    between atoms: C_1  and  C_2
REMARK    2  A    between atoms: C_8  and  C_10
REMARK    3  A    between atoms: C_14  and  C_15
REMARK    4  A    between atoms: N_17  and  C_18
REMARK    5  A    between atoms: C_22  and  C_23
REMARK    6  A    between atoms: C_23  and  C_24
REMARK    7  A    between atoms: N_28  and  C_29
REMARK                            x       y       z     vdW  Elec       q    Type
REMARK                         _______ _______ _______ _____ _____    ______ ____
ROOT
ATOM      1  C   UNL     1       1.782   7.548  19.641  0.00  0.00    +0.000 C 
ATOM      2  O   UNL     1       1.816   6.868  20.655  0.00  0.00    +0.000 OA
ATOM      3  N   UNL     1       2.191   7.173  18.367  0.00  0.00    +0.000 N 
ATOM      4  H   UNL     1       2.167   7.913  17.669  0.00  0.00    +0.000 HD
ENDROOT
BRANCH   1   9
ATOM      5  C   UNL     1       0.181  10.708  20.941  0.00  0.00    +0.000 A 
ATOM      6  C   UNL     1       0.595  11.586  19.941  0.00  0.00    +0.000 A 
ATOM      7  C   UNL     1       1.266  11.078  18.840  0.00  0.00    +0.000 A 
ATOM      8  N   UNL     1       1.630   9.788  18.712  0.00  0.00    +0.000 NA
ATOM      9  C   UNL     1       1.301   8.963  19.742  0.00  0.00    +0.000 A 
ATOM     10  C   UNL     1       0.578   9.370  20.858  0.00  0.00    +0.000 A 
BRANCH   5  18
ATOM     11  C   UNL     1      -1.699  14.211  20.899  0.00  0.00    +0.000 C 
ATOM     12  C   UNL     1      -2.131  12.739  20.887  0.00  0.00    +0.000 C 
ATOM     13  N   UNL     1      -3.565  12.552  20.771  0.00  0.00    +0.000 NA
ATOM     14  C   UNL     1      -4.246  12.912  21.993  0.00  0.00    +0.000 C 
ATOM     15  O   UNL     1      -3.778  12.121  23.061  0.00  0.00    +0.000 OA
ATOM     16  C   UNL     1      -2.390  12.326  23.279  0.00  0.00    +0.000 C 
ATOM     17  N   UNL     1      -1.671  12.019  22.054  0.00  0.00    +0.000 N 
ATOM     18  C   UNL     1      -0.601  11.131  22.141  0.00  0.00    +0.000 C 
ATOM     19  O   UNL     1      -0.266  10.604  23.206  0.00  0.00    +0.000 OA
ATOM     20  H   UNL     1      -3.721  11.552  20.654  0.00  0.00    +0.000 HD
ENDBRANCH   5  18
ENDBRANCH   1   9
BRANCH   3  21
ATOM     21  C   UNL     1       2.721   5.918  17.994  0.00  0.00    +0.000 A 
ATOM     22  C   UNL     1       1.933   4.771  17.887  0.00  0.00    +0.000 A 
ATOM     23  C   UNL     1       2.499   3.536  17.578  0.00  0.00    +0.000 A 
ATOM     24  C   UNL     1       3.867   3.432  17.356  0.00  0.00    +0.000 A 
ATOM     25  C   UNL     1       4.682   4.570  17.421  0.00  0.00    +0.000 A 
ATOM     26  C   UNL     1       4.095   5.816  17.730  0.00  0.00    +0.000 A 
BRANCH  25  27
ATOM     27  C   UNL     1       6.162   4.438  17.131  0.00  0.00    +0.000 C 
BRANCH  27  28
ATOM     28  C   UNL     1       6.943   5.698  17.290  0.00  0.00    +0.000 A 
ATOM     29  N   UNL     1       7.238   6.547  16.324  0.00  0.00    +0.000 NA
ATOM     30  N   UNL     1       7.964   7.581  16.863  0.00  0.00    +0.000 NA
ATOM     31  C   UNL     1       8.103   7.340  18.145  0.00  0.00    +0.000 A 
ATOM     32  N   UNL     1       7.501   6.159  18.455  0.00  0.00    +0.000 N 
ATOM     33  C   UNL     1       7.483   5.543  19.755  0.00  0.00    +0.000 C 
ENDBRANCH  27  28
ENDBRANCH  25  27
ENDBRANCH   3  21
TORSDOF 5
ENDMDL
MODEL 6
REMARK VINA RESULT:      -8.7      2.212      9.623
REMARK  Name = 
REMARK  7 active torsions:
REMARK  status: ('A' for Active; 'I' for Inactive)
REMARK    1  A    between atoms: C_1  and  C_2
REMARK    2  A    between atoms: C_8  and  C_10
REMARK    3  A    between atoms: C_14  and  C_15
REMARK    4  A    between atoms: N_17  and  C_18
REMARK    5  A    between atoms: C_22  and  C_23
REMARK    6  A    between atoms: C_23  and  C_24
REMARK    7  A    between atoms: N_28  and  C_29
REMARK                            x       y       z     vdW  Elec       q    Type
REMARK                         _______ _______ _______ _____ _____    ______ ____
ROOT
ATOM      1  C   UNL     1       1.712   8.467  19.589  0.00  0.00    +0.000 C 
ATOM      2  O   UNL     1       1.714   7.712  20.549  0.00  0.00    +0.000 OA
ATOM      3  N   UNL     1       2.268   8.232  18.337  0.00  0.00    +0.000 N 
ATOM      4  H   UNL     1       2.242   9.022  17.697  0.00  0.00    +0.000 HD
ENDROOT
BRANCH   1   9
ATOM      5  C   UNL     1      -0.192  11.402  21.005  0.00  0.00    +0.000 A 
ATOM      6  C   UNL     1       0.145  12.358  20.050  0.00  0.00    +0.000 A 
ATOM      7  C   UNL     1       0.871  11.965  18.936  0.00  0.00    +0.000 A 
ATOM      8  N   UNL     1       1.357  10.723  18.756  0.00  0.00    +0.000 NA
ATOM      9  C   UNL     1       1.098   9.825  19.746  0.00  0.00    +0.000 A 
ATOM     10  C   UNL     1       0.330  10.112  20.869  0.00  0.00    +0.000 A 
BRANCH   5  18
ATOM     11  C   UNL     1      -2.568  14.589  21.002  0.00  0.00    +0.000 C 
ATOM     12  C   UNL     1      -2.778  13.069  20.980  0.00  0.00    +0.000 C 
ATOM     13  N   UNL     1      -4.170  12.674  20.869  0.00  0.00    +0.000 NA
ATOM     14  C   UNL     1      -4.890  12.919  22.097  0.00  0.00    +0.000 C 
ATOM     15  O   UNL     1      -4.303  12.198  23.156  0.00  0.00    +0.000 OA
ATOM     16  C   UNL     1      -2.960  12.604  23.369  0.00  0.00    +0.000 C 
ATOM     17  N   UNL     1      -2.211  12.416  22.138  0.00  0.00    +0.000 N 
ATOM     18  C   UNL     1      -1.020  11.695  22.213  0.00  0.00    +0.000 C 
ATOM     19  O   UNL     1      -0.605  11.215  23.271  0.00  0.00    +0.000 OA
ATOM     20  H   UNL     1      -4.177  11.662  20.744  0.00  0.00    +0.000 HD
ENDBRANCH   5  18
ENDBRANCH   1   9
BRANCH   3  21
ATOM     21  C   UNL     1       2.941   7.061  17.927  0.00  0.00    +0.000 A 
ATOM     22  C   UNL     1       4.159   7.092  17.246  0.00  0.00    +0.000 A 
ATOM     23  C   UNL     1       4.764   5.919  16.801  0.00  0.00    +0.000 A 
ATOM     24  C   UNL     1       4.164   4.689  17.043  0.00  0.00    +0.000 A 
ATOM     25  C   UNL     1       2.958   4.619  17.753  0.00  0.00    +0.000 A 
ATOM     26  C   UNL     1       2.358   5.814  18.205  0.00  0.00    +0.000 A 
BRANCH  25  27
ATOM     27  C   UNL     1       2.348   3.264  18.044  0.00  0.00    +0.000 C 
BRANCH  27  28
ATOM     28  C   UNL     1       2.102   2.988  19.489  0.00  0.00    +0.000 A 
ATOM     29  N   UNL     1       0.949   3.131  20.113  0.00  0.00    +0.000 NA
ATOM     30  N   UNL     1       1.123   2.779  21.429  0.00  0.00    +0.000 NA
ATOM     31  C   UNL     1       2.379   2.435  21.584  0.00  0.00    +0.000 A 
ATOM     32  N   UNL     1       3.038   2.573  20.401  0.00  0.00    +0.000 N 
ATOM     33  C   UNL     1       4.441   2.332  20.190  0.00  0.00    +0.000 C 
ENDBRANCH  27  28
ENDBRANCH  25  27
ENDBRANCH   3  21
TORSDOF 5
ENDMDL
MODEL 7
REMARK VINA RESULT:      -8.7      7.266      9.080
REMARK  Name = 
REMARK  7 active torsions:
REMARK  status: ('A' for Active; 'I' for Inactive)
REMARK    1  A    between atoms: C_1  and  C_2
REMARK    2  A    between atoms: C_8  and  C_10
REMARK    3  A    between atoms: C_14  and  C_15
REMARK    4  A    between atoms: N_17  and  C_18
REMARK    5  A    between atoms: C_22  and  C_23
REMARK    6  A    between atoms: C_23  and  C_24
REMARK    7  A    between atoms: N_28  and  C_29
REMARK                            x       y       z     vdW  Elec       q    Type
REMARK                         _______ _______ _______ _____ _____    ______ ____
ROOT
ATOM      1  C   UNL     1       7.764   7.442  18.070  0.00  0.00    +0.000 C 
ATOM      2  O   UNL     1       8.518   6.977  18.911  0.00  0.00    +0.000 OA
ATOM      3  N   UNL     1       7.653   8.774  17.691  0.00  0.00    +0.000 N 
ATOM      4  H   UNL     1       6.901   8.975  17.035  0.00  0.00    +0.000 HD
ENDROOT
BRANCH   1   9
ATOM      5  C   UNL     1       4.648   5.484  17.232  0.00  0.00    +0.000 A 
ATOM      6  C   UNL     1       5.045   4.965  16.002  0.00  0.00    +0.000 A 
ATOM      7  C   UNL     1       6.346   5.180  15.573  0.00  0.00    +0.000 A 
ATOM      8  N   UNL     1       7.237   5.944  16.230  0.00  0.00    +0.000 NA
ATOM      9  C   UNL     1       6.801   6.521  17.383  0.00  0.00    +0.000 A 
ATOM     10  C   UNL     1       5.537   6.315  17.921  0.00  0.00    +0.000 A 
BRANCH   5  18
ATOM     11  C   UNL     1       3.454   1.777  18.032  0.00  0.00    +0.000 C 
ATOM     12  C   UNL     1       3.842   3.005  18.867  0.00  0.00    +0.000 C 
ATOM     13  N   UNL     1       3.840   2.761  20.297  0.00  0.00    +0.000 NA
ATOM     14  C   UNL     1       2.496   2.633  20.811  0.00  0.00    +0.000 C 
ATOM     15  O   UNL     1       1.765   3.811  20.557  0.00  0.00    +0.000 OA
ATOM     16  C   UNL     1       1.660   4.057  19.163  0.00  0.00    +0.000 C 
ATOM     17  N   UNL     1       2.996   4.145  18.598  0.00  0.00    +0.000 N 
ATOM     18  C   UNL     1       3.295   5.266  17.825  0.00  0.00    +0.000 C 
ATOM     19  O   UNL     1       2.475   6.166  17.623  0.00  0.00    +0.000 OA
ATOM     20  H   UNL     1       4.223   3.597  20.737  0.00  0.00    +0.000 HD
ENDBRANCH   5  18
ENDBRANCH   1   9
BRANCH   3  21
ATOM     21  C   UNL     1       8.403   9.855  18.201  0.00  0.00    +0.000 A 
ATOM     22  C   UNL     1       9.281   9.719  19.278  0.00  0.00    +0.000 A 
ATOM     23  C   UNL     1       9.959  10.820  19.797  0.00  0.00    +0.000 A 
ATOM     24  C   UNL     1       9.778  12.078  19.234  0.00  0.00    +0.000 A 
ATOM     25  C   UNL     1       8.931  12.244  18.131  0.00  0.00    +0.000 A 
ATOM     26  C   UNL     1       8.255  11.119  17.611  0.00  0.00    +0.000 A 
BRANCH  25  27
ATOM     27  C   UNL     1       8.786  13.617  17.508  0.00  0.00    +0.000 C 
BRANCH  27  28
ATOM     28  C   UNL     1       7.676  14.440  18.067  0.00  0.00    +0.000 A 
ATOM     29  N   UNL     1       6.426  14.433  17.644  0.00  0.00    +0.000 NA
ATOM     30  N   UNL     1       5.707  15.320  18.406  0.00  0.00    +0.000 NA
ATOM     31  C   UNL     1       6.531  15.856  19.274  0.00  0.00    +0.000 A 
ATOM     32  N   UNL     1       7.782  15.354  19.084  0.00  0.00    +0.000 N 
ATOM     33  C   UNL     1       8.960  15.737  19.817  0.00  0.00    +0.000 C 
ENDBRANCH  27  28
ENDBRANCH  25  27
ENDBRANCH   3  21
TORSDOF 5
ENDMDL
MODEL 8
REMARK VINA RESULT:      -8.7      3.052      9.910
REMARK  Name = 
REMARK  7 active torsions:
REMARK  status: ('A' for Active; 'I' for Inactive)
REMARK    1  A    between atoms: C_1  and  C_2
REMARK    2  A    between atoms: C_8  and  C_10
REMARK    3  A    between atoms: C_14  and  C_15
REMARK    4  A    between atoms: N_17  and  C_18
REMARK    5  A    between atoms: C_22  and  C_23
REMARK    6  A    between atoms: C_23  and  C_24
REMARK    7  A    between atoms: N_28  and  C_29
REMARK                            x       y       z     vdW  Elec       q    Type
REMARK                         _______ _______ _______ _____ _____    ______ ____
ROOT
ATOM      1  C   UNL     1       1.767   8.545  18.489  0.00  0.00    +0.000 C 
ATOM      2  O   UNL     1       1.813   8.046  17.374  0.00  0.00    +0.000 OA
ATOM      3  N   UNL     1       1.973   7.901  19.703  0.00  0.00    +0.000 N 
ATOM      4  H   UNL     1       1.803   8.470  20.529  0.00  0.00    +0.000 HD
ENDROOT
BRANCH   1   9
ATOM      5  C   UNL     1      -0.108  11.717  19.303  0.00  0.00    +0.000 A 
ATOM      6  C   UNL     1       0.874  12.642  18.955  0.00  0.00    +0.000 A 
ATOM      7  C   UNL     1       2.042  12.188  18.362  0.00  0.00    +0.000 A 
ATOM      8  N   UNL     1       2.335  10.887  18.180  0.00  0.00    +0.000 NA
ATOM      9  C   UNL     1       1.405   9.993  18.612  0.00  0.00    +0.000 A 
ATOM     10  C   UNL     1       0.181  10.356  19.163  0.00  0.00    +0.000 A 
BRANCH   5  18
ATOM     11  C   UNL     1      -0.931  10.683  23.053  0.00  0.00    +0.000 C 
ATOM     12  C   UNL     1      -0.655  12.002  22.318  0.00  0.00    +0.000 C 
ATOM     13  N   UNL     1      -0.620  13.160  23.191  0.00  0.00    +0.000 NA
ATOM     14  C   UNL     1      -1.941  13.509  23.661  0.00  0.00    +0.000 C 
ATOM     15  O   UNL     1      -2.784  13.797  22.570  0.00  0.00    +0.000 OA
ATOM     16  C   UNL     1      -2.926  12.669  21.721  0.00  0.00    +0.000 C 
ATOM     17  N   UNL     1      -1.610  12.256  21.263  0.00  0.00    +0.000 N 
ATOM     18  C   UNL     1      -1.428  12.094  19.890  0.00  0.00    +0.000 C 
ATOM     19  O   UNL     1      -2.333  12.298  19.076  0.00  0.00    +0.000 OA
ATOM     20  H   UNL     1      -0.315  13.947  22.620  0.00  0.00    +0.000 HD
ENDBRANCH   5  18
ENDBRANCH   1   9
BRANCH   3  21
ATOM     21  C   UNL     1       2.287   6.536  19.884  0.00  0.00    +0.000 A 
ATOM     22  C   UNL     1       1.494   5.676  20.645  0.00  0.00    +0.000 A 
ATOM     23  C   UNL     1       1.866   4.351  20.855  0.00  0.00    +0.000 A 
ATOM     24  C   UNL     1       3.037   3.858  20.292  0.00  0.00    +0.000 A 
ATOM     25  C   UNL     1       3.840   4.684  19.494  0.00  0.00    +0.000 A 
ATOM     26  C   UNL     1       3.448   6.024  19.284  0.00  0.00    +0.000 A 
BRANCH  25  27
ATOM     27  C   UNL     1       5.087   4.111  18.855  0.00  0.00    +0.000 C 
BRANCH  27  28
ATOM     28  C   UNL     1       6.211   5.080  18.705  0.00  0.00    +0.000 A 
ATOM     29  N   UNL     1       7.078   5.402  19.646  0.00  0.00    +0.000 NA
ATOM     30  N   UNL     1       7.958   6.320  19.127  0.00  0.00    +0.000 NA
ATOM     31  C   UNL     1       7.608   6.544  17.883  0.00  0.00    +0.000 A 
ATOM     32  N   UNL     1       6.504   5.808  17.581  0.00  0.00    +0.000 N 
ATOM     33  C   UNL     1       5.804   5.824  16.324  0.00  0.00    +0.000 C 
ENDBRANCH  27  28
ENDBRANCH  25  27
ENDBRANCH   3  21
TORSDOF 5
ENDMDL
MODEL 9
REMARK VINA RESULT:      -8.6      0.527      1.071
REMARK  Name = 
REMARK  7 active torsions:
REMARK  status: ('A' for Active; 'I' for Inactive)
REMARK    1  A    between atoms: C_1  and  C_2
REMARK    2  A    between atoms: C_8  and  C_10
REMARK    3  A    between atoms: C_14  and  C_15
REMARK    4  A    between atoms: N_17  and  C_18
REMARK    5  A    between atoms: C_22  and  C_23
REMARK    6  A    between atoms: C_23  and  C_24
REMARK    7  A    between atoms: N_28  and  C_29
REMARK                            x       y       z     vdW  Elec       q    Type
REMARK                         _______ _______ _______ _____ _____    ______ ____
ROOT
ATOM      1  C   UNL     1       0.515   9.084  20.641  0.00  0.00    +0.000 C 
ATOM      2  O   UNL     1       0.086   8.365  21.531  0.00  0.00    +0.000 OA
ATOM      3  N   UNL     1       0.150  10.399  20.379  0.00  0.00    +0.000 N 
ATOM      4  H   UNL     1       0.554  10.800  19.536  0.00  0.00    +0.000 HD
ENDROOT
BRANCH   1   9
ATOM      5  C   UNL     1       3.030   6.787  19.018  0.00  0.00    +0.000 A 
ATOM      6  C   UNL     1       3.174   7.451  17.802  0.00  0.00    +0.000 A 
ATOM      7  C   UNL     1       2.541   8.672  17.626  0.00  0.00    +0.000 A 
ATOM      8  N   UNL     1       1.710   9.223  18.530  0.00  0.00    +0.000 NA
ATOM      9  C   UNL     1       1.506   8.514  19.673  0.00  0.00    +0.000 A 
ATOM     10  C   UNL     1       2.143   7.313  19.962  0.00  0.00    +0.000 A 
BRANCH   5  18
ATOM     11  C   UNL     1       0.845   3.659  20.136  0.00  0.00    +0.000 C 
ATOM     12  C   UNL     1       1.681   4.023  18.902  0.00  0.00    +0.000 C 
ATOM     13  N   UNL     1       1.628   3.028  17.848  0.00  0.00    +0.000 NA
ATOM     14  C   UNL     1       2.370   1.841  18.202  0.00  0.00    +0.000 C 
ATOM     15  O   UNL     1       3.721   2.165  18.443  0.00  0.00    +0.000 OA
ATOM     16  C   UNL     1       3.842   3.075  19.526  0.00  0.00    +0.000 C 
ATOM     17  N   UNL     1       3.068   4.269  19.227  0.00  0.00    +0.000 N 
ATOM     18  C   UNL     1       3.713   5.499  19.343  0.00  0.00    +0.000 C 
ATOM     19  O   UNL     1       4.898   5.595  19.672  0.00  0.00    +0.000 OA
ATOM     20  H   UNL     1       2.115   3.426  17.045  0.00  0.00    +0.000 HD
ENDBRANCH   5  18
ENDBRANCH   1   9
BRANCH   3  21
ATOM     21  C   UNL     1      -0.788  11.167  21.103  0.00  0.00    +0.000 A 
ATOM     22  C   UNL     1      -0.733  11.310  22.490  0.00  0.00    +0.000 A 
ATOM     23  C   UNL     1      -1.710  12.024  23.180  0.00  0.00    +0.000 A 
ATOM     24  C   UNL     1      -2.756  12.621  22.486  0.00  0.00    +0.000 A 
ATOM     25  C   UNL     1      -2.824  12.527  21.090  0.00  0.00    +0.000 A 
ATOM     26  C   UNL     1      -1.823  11.805  20.403  0.00  0.00    +0.000 A 
BRANCH  25  27
ATOM     27  C   UNL     1      -3.948  13.224  20.354  0.00  0.00    +0.000 C 
BRANCH  27  28
ATOM     28  C   UNL     1      -5.076  12.335  19.952  0.00  0.00    +0.000 A 
ATOM     29  N   UNL     1      -5.162  11.669  18.816  0.00  0.00    +0.000 NA
ATOM     30  N   UNL     1      -6.341  10.965  18.817  0.00  0.00    +0.000 NA
ATOM     31  C   UNL     1      -6.953  11.218  19.949  0.00  0.00    +0.000 A 
ATOM     32  N   UNL     1      -6.210  12.091  20.683  0.00  0.00    +0.000 N 
ATOM     33  C   UNL     1      -6.579  12.636  21.963  0.00  0.00    +0.000 C 
ENDBRANCH  27  28
ENDBRANCH  25  27
ENDBRANCH   3  21
TORSDOF 5
ENDMDL
