MODEL 1
REMARK VINA RESULT:      -8.9      0.000      0.000
REMARK  Name = 
REMARK  2 active torsions:
REMARK  status: ('A' for Active; 'I' for Inactive)
REMARK    1  A    between atoms: C_7  and  C_8
REMARK    2  A    between atoms: C_13  and  C_15
REMARK                            x       y       z     vdW  Elec       q    Type
REMARK                         _______ _______ _______ _____ _____    ______ ____
ROOT
ATOM      1  C   UNL     1       1.650   8.522  18.967  0.00  0.00    +0.000 A 
ATOM      2  C   UNL     1       1.482   9.210  17.780  0.00  0.00    +0.000 A 
ATOM      3  S   UNL     1       0.463  10.582  18.038  0.00  0.00    +0.000 S 
ATOM      4  C   UNL     1       0.397  10.197  19.699  0.00  0.00    +0.000 A 
ATOM      5  N   UNL     1      -0.293  11.073  20.497  0.00  0.00    +0.000 N 
ATOM      6  C   UNL     1      -0.154  11.002  21.865  0.00  0.00    +0.000 C 
ATOM      7  O   UNL     1       0.580  10.215  22.456  0.00  0.00    +0.000 OA
ATOM      8  N   UNL     1       1.015   9.100  20.051  0.00  0.00    +0.000 NA
ATOM      9  H   UNL     1      -0.816  11.822  20.075  0.00  0.00    +0.000 HD
ENDROOT
BRANCH   1  16
ATOM     10  O   UNL     1       4.886   1.608  20.261  0.00  0.00    +0.000 OA
ATOM     11  C   UNL     1       4.188   2.615  20.179  0.00  0.00    +0.000 C 
ATOM     12  C   UNL     1       2.806   2.698  20.784  0.00  0.00    +0.000 C 
ATOM     13  C   UNL     1       2.494   4.104  21.273  0.00  0.00    +0.000 C 
ATOM     14  C   UNL     1       2.788   5.119  20.201  0.00  0.00    +0.000 A 
ATOM     15  C   UNL     1       2.072   6.325  20.114  0.00  0.00    +0.000 A 
ATOM     16  C   UNL     1       2.395   7.275  19.133  0.00  0.00    +0.000 A 
ATOM     17  C   UNL     1       3.464   7.005  18.261  0.00  0.00    +0.000 A 
ATOM     18  C   UNL     1       4.203   5.824  18.365  0.00  0.00    +0.000 A 
ATOM     19  C   UNL     1       3.852   4.880  19.324  0.00  0.00    +0.000 A 
ATOM     20  N   UNL     1       4.577   3.688  19.419  0.00  0.00    +0.000 N 
ATOM     21  H   UNL     1       5.433   3.568  18.893  0.00  0.00    +0.000 HD
ENDBRANCH   1  16
BRANCH   6  22
ATOM     22  C   UNL     1      -0.918  11.972  22.633  0.00  0.00    +0.000 A 
ATOM     23  C   UNL     1      -2.260  11.921  22.954  0.00  0.00    +0.000 A 
ATOM     24  C   UNL     1      -2.574  13.106  23.649  0.00  0.00    +0.000 A 
ATOM     25  C   UNL     1      -3.746  13.650  24.202  0.00  0.00    +0.000 A 
ATOM     26  C   UNL     1      -3.681  14.911  24.804  0.00  0.00    +0.000 A 
ATOM     27  C   UNL     1      -2.474  15.615  24.860  0.00  0.00    +0.000 A 
ATOM     28  C   UNL     1      -1.291  15.080  24.325  0.00  0.00    +0.000 A 
ATOM     29  C   UNL     1      -1.386  13.824  23.726  0.00  0.00    +0.000 A 
ATOM     30  O   UNL     1      -0.365  13.129  23.124  0.00  0.00    +0.000 OA
ENDBRANCH   6  22
TORSDOF 2
ENDMDL
MODEL 2
REMARK VINA RESULT:      -8.7      3.469      4.870
REMARK  Name = 
REMARK  2 active torsions:
REMARK  status: ('A' for Active; 'I' for Inactive)
REMARK    1  A    between atoms: C_7  and  C_8
REMARK    2  A    between atoms: C_13  and  C_15
REMARK                            x       y       z     vdW  Elec       q    Type
REMARK                         _______ _______ _______ _____ _____    ______ ____
ROOT
ATOM      1  C   UNL     1       3.677   5.505  18.826  0.00  0.00    +0.000 A 
ATOM      2  C   UNL     1       3.255   4.437  19.596  0.00  0.00    +0.000 A 
ATOM      3  S   UNL     1       2.146   4.988  20.802  0.00  0.00    +0.000 S 
ATOM      4  C   UNL     1       2.256   6.563  20.157  0.00  0.00    +0.000 A 
ATOM      5  N   UNL     1       1.453   7.512  20.737  0.00  0.00    +0.000 N 
ATOM      6  C   UNL     1       1.261   8.720  20.105  0.00  0.00    +0.000 C 
ATOM      7  O   UNL     1       1.739   9.026  19.015  0.00  0.00    +0.000 OA
ATOM      8  N   UNL     1       3.097   6.713  19.169  0.00  0.00    +0.000 NA
ATOM      9  H   UNL     1       0.932   7.282  21.567  0.00  0.00    +0.000 HD
ENDROOT
BRANCH   1  16
ATOM     10  O   UNL     1       8.273   4.789  12.636  0.00  0.00    +0.000 OA
ATOM     11  C   UNL     1       7.385   4.784  13.485  0.00  0.00    +0.000 C 
ATOM     12  C   UNL     1       6.031   4.158  13.240  0.00  0.00    +0.000 C 
ATOM     13  C   UNL     1       5.456   3.558  14.515  0.00  0.00    +0.000 C 
ATOM     14  C   UNL     1       5.510   4.552  15.644  0.00  0.00    +0.000 A 
ATOM     15  C   UNL     1       4.564   4.536  16.683  0.00  0.00    +0.000 A 
ATOM     16  C   UNL     1       4.662   5.444  17.747  0.00  0.00    +0.000 A 
ATOM     17  C   UNL     1       5.739   6.348  17.764  0.00  0.00    +0.000 A 
ATOM     18  C   UNL     1       6.703   6.345  16.754  0.00  0.00    +0.000 A 
ATOM     19  C   UNL     1       6.576   5.457  15.691  0.00  0.00    +0.000 A 
ATOM     20  N   UNL     1       7.528   5.463  14.667  0.00  0.00    +0.000 N 
ATOM     21  H   UNL     1       8.376   6.007  14.762  0.00  0.00    +0.000 HD
ENDBRANCH   1  16
BRANCH   6  22
ATOM     22  C   UNL     1       0.391   9.663  20.786  0.00  0.00    +0.000 A 
ATOM     23  C   UNL     1       0.026   9.660  22.119  0.00  0.00    +0.000 A 
ATOM     24  C   UNL     1      -0.880  10.721  22.312  0.00  0.00    +0.000 A 
ATOM     25  C   UNL     1      -1.614  11.212  23.406  0.00  0.00    +0.000 A 
ATOM     26  C   UNL     1      -2.471  12.299  23.206  0.00  0.00    +0.000 A 
ATOM     27  C   UNL     1      -2.594  12.890  21.944  0.00  0.00    +0.000 A 
ATOM     28  C   UNL     1      -1.858  12.421  20.844  0.00  0.00    +0.000 A 
ATOM     29  C   UNL     1      -1.015  11.333  21.071  0.00  0.00    +0.000 A 
ATOM     30  O   UNL     1      -0.227  10.705  20.138  0.00  0.00    +0.000 OA
ENDBRANCH   6  22
TORSDOF 2
ENDMDL
MODEL 3
REMARK VINA RESULT:      -8.6      1.059      1.603
REMARK  Name = 
REMARK  2 active torsions:
REMARK  status: ('A' for Active; 'I' for Inactive)
REMARK    1  A    between atoms: C_7  and  C_8
REMARK    2  A    between atoms: C_13  and  C_15
REMARK                            x       y       z     vdW  Elec       q    Type
REMARK                         _______ _______ _______ _____ _____    ______ ____
ROOT
ATOM      1  C   UNL     1       1.723   8.479  19.175  0.00  0.00    +0.000 A 
ATOM      2  C   UNL     1       2.157   9.354  18.198  0.00  0.00    +0.000 A 
ATOM      3  S   UNL     1       1.499  10.927  18.485  0.00  0.00    +0.000 S 
ATOM      4  C   UNL     1       0.767  10.338  19.910  0.00  0.00    +0.000 A 
ATOM      5  N   UNL     1       0.092  11.260  20.669  0.00  0.00    +0.000 N 
ATOM      6  C   UNL     1      -0.273  10.944  21.958  0.00  0.00    +0.000 C 
ATOM      7  O   UNL     1      -0.015   9.883  22.521  0.00  0.00    +0.000 OA
ATOM      8  N   UNL     1       0.923   9.062  20.141  0.00  0.00    +0.000 NA
ATOM      9  H   UNL     1      -0.043  12.192  20.314  0.00  0.00    +0.000 HD
ENDROOT
BRANCH   1  16
ATOM     10  O   UNL     1       3.790   1.028  18.775  0.00  0.00    +0.000 OA
ATOM     11  C   UNL     1       3.591   2.232  18.638  0.00  0.00    +0.000 C 
ATOM     12  C   UNL     1       4.177   3.028  17.495  0.00  0.00    +0.000 C 
ATOM     13  C   UNL     1       3.245   4.148  17.060  0.00  0.00    +0.000 C 
ATOM     14  C   UNL     1       2.797   4.961  18.245  0.00  0.00    +0.000 A 
ATOM     15  C   UNL     1       2.478   6.324  18.124  0.00  0.00    +0.000 A 
ATOM     16  C   UNL     1       2.019   7.048  19.234  0.00  0.00    +0.000 A 
ATOM     17  C   UNL     1       1.861   6.375  20.459  0.00  0.00    +0.000 A 
ATOM     18  C   UNL     1       2.142   5.012  20.577  0.00  0.00    +0.000 A 
ATOM     19  C   UNL     1       2.622   4.315  19.474  0.00  0.00    +0.000 A 
ATOM     20  N   UNL     1       2.922   2.954  19.593  0.00  0.00    +0.000 N 
ATOM     21  H   UNL     1       2.664   2.446  20.429  0.00  0.00    +0.000 HD
ENDBRANCH   1  16
BRANCH   6  22
ATOM     22  C   UNL     1      -0.980  11.981  22.691  0.00  0.00    +0.000 A 
ATOM     23  C   UNL     1      -2.313  11.997  23.052  0.00  0.00    +0.000 A 
ATOM     24  C   UNL     1      -2.565  13.228  23.688  0.00  0.00    +0.000 A 
ATOM     25  C   UNL     1      -3.701  13.844  24.242  0.00  0.00    +0.000 A 
ATOM     26  C   UNL     1      -3.575  15.133  24.770  0.00  0.00    +0.000 A 
ATOM     27  C   UNL     1      -2.343  15.795  24.753  0.00  0.00    +0.000 A 
ATOM     28  C   UNL     1      -1.196  15.189  24.217  0.00  0.00    +0.000 A 
ATOM     29  C   UNL     1      -1.351  13.906  23.692  0.00  0.00    +0.000 A 
ATOM     30  O   UNL     1      -0.374  13.143  23.102  0.00  0.00    +0.000 OA
ENDBRANCH   6  22
TORSDOF 2
ENDMDL
MODEL 4
REMARK VINA RESULT:      -8.4      3.707      4.138
REMARK  Name = 
REMARK  2 active torsions:
REMARK  status: ('A' for Active; 'I' for Inactive)
REMARK    1  A    between atoms: C_7  and  C_8
REMARK    2  A    between atoms: C_13  and  C_15
REMARK                            x       y       z     vdW  Elec       q    Type
REMARK                         _______ _______ _______ _____ _____    ______ ____
ROOT
ATOM      1  C   UNL     1       1.091   8.260  20.882  0.00  0.00    +0.000 A 
ATOM      2  C   UNL     1       0.344   8.315  22.044  0.00  0.00    +0.000 A 
ATOM      3  S   UNL     1      -0.087   9.953  22.385  0.00  0.00    +0.000 S 
ATOM      4  C   UNL     1       0.676  10.436  20.938  0.00  0.00    +0.000 A 
ATOM      5  N   UNL     1       0.585  11.767  20.621  0.00  0.00    +0.000 N 
ATOM      6  C   UNL     1       0.912  12.188  19.351  0.00  0.00    +0.000 C 
ATOM      7  O   UNL     1       1.263  11.449  18.435  0.00  0.00    +0.000 OA
ATOM      8  N   UNL     1       1.275   9.486  20.269  0.00  0.00    +0.000 NA
ATOM      9  H   UNL     1       0.187  12.410  21.285  0.00  0.00    +0.000 HD
ENDROOT
BRANCH   1  16
ATOM     10  O   UNL     1       3.604   1.437  18.221  0.00  0.00    +0.000 OA
ATOM     11  C   UNL     1       3.039   2.388  18.755  0.00  0.00    +0.000 C 
ATOM     12  C   UNL     1       1.829   2.220  19.644  0.00  0.00    +0.000 C 
ATOM     13  C   UNL     1       1.805   3.258  20.755  0.00  0.00    +0.000 C 
ATOM     14  C   UNL     1       2.006   4.641  20.198  0.00  0.00    +0.000 A 
ATOM     15  C   UNL     1       1.449   5.772  20.819  0.00  0.00    +0.000 A 
ATOM     16  C   UNL     1       1.688   7.056  20.306  0.00  0.00    +0.000 A 
ATOM     17  C   UNL     1       2.516   7.186  19.177  0.00  0.00    +0.000 A 
ATOM     18  C   UNL     1       3.102   6.069  18.577  0.00  0.00    +0.000 A 
ATOM     19  C   UNL     1       2.833   4.802  19.081  0.00  0.00    +0.000 A 
ATOM     20  N   UNL     1       3.403   3.680  18.471  0.00  0.00    +0.000 N 
ATOM     21  H   UNL     1       4.113   3.791  17.760  0.00  0.00    +0.000 HD
ENDBRANCH   1  16
BRANCH   6  22
ATOM     22  C   UNL     1       0.781  13.613  19.100  0.00  0.00    +0.000 A 
ATOM     23  C   UNL     1      -0.378  14.364  19.093  0.00  0.00    +0.000 A 
ATOM     24  C   UNL     1      -0.028  15.682  18.738  0.00  0.00    +0.000 A 
ATOM     25  C   UNL     1      -0.739  16.876  18.534  0.00  0.00    +0.000 A 
ATOM     26  C   UNL     1      -0.036  18.018  18.138  0.00  0.00    +0.000 A 
ATOM     27  C   UNL     1       1.350  17.974  17.952  0.00  0.00    +0.000 A 
ATOM     28  C   UNL     1       2.078  16.793  18.164  0.00  0.00    +0.000 A 
ATOM     29  C   UNL     1       1.350  15.668  18.554  0.00  0.00    +0.000 A 
ATOM     30  O   UNL     1       1.855  14.413  18.792  0.00  0.00    +0.000 OA
ENDBRANCH   6  22
TORSDOF 2
ENDMDL
MODEL 5
REMARK VINA RESULT:      -8.4      0.641      1.159
REMARK  Name = 
REMARK  2 active torsions:
REMARK  status: ('A' for Active; 'I' for Inactive)
REMARK    1  A    between atoms: C_7  and  C_8
REMARK    2  A    between atoms: C_13  and  C_15
REMARK                            x       y       z     vdW  Elec       q    Type
REMARK                         _______ _______ _______ _____ _____    ______ ____
ROOT
ATOM      1  C   UNL     1       1.859   8.325  18.896  0.00  0.00    +0.000 A 
ATOM      2  C   UNL     1       1.749   8.999  17.694  0.00  0.00    +0.000 A 
ATOM      3  S   UNL     1       0.716  10.372  17.885  0.00  0.00    +0.000 S 
ATOM      4  C   UNL     1       0.567  10.005  19.544  0.00  0.00    +0.000 A 
ATOM      5  N   UNL     1      -0.165  10.888  20.296  0.00  0.00    +0.000 N 
ATOM      6  C   UNL     1      -0.095  10.833  21.671  0.00  0.00    +0.000 C 
ATOM      7  O   UNL     1       0.611  10.054  22.307  0.00  0.00    +0.000 OA
ATOM      8  N   UNL     1       1.169   8.914  19.940  0.00  0.00    +0.000 NA
ATOM      9  H   UNL     1      -0.667  11.631  19.840  0.00  0.00    +0.000 HD
ENDROOT
BRANCH   1  16
ATOM     10  O   UNL     1       5.034   1.428  20.414  0.00  0.00    +0.000 OA
ATOM     11  C   UNL     1       4.338   2.433  20.284  0.00  0.00    +0.000 C 
ATOM     12  C   UNL     1       2.918   2.509  20.795  0.00  0.00    +0.000 C 
ATOM     13  C   UNL     1       2.567   3.914  21.259  0.00  0.00    +0.000 C 
ATOM     14  C   UNL     1       2.927   4.929  20.208  0.00  0.00    +0.000 A 
ATOM     15  C   UNL     1       2.213   6.132  20.072  0.00  0.00    +0.000 A 
ATOM     16  C   UNL     1       2.597   7.082  19.114  0.00  0.00    +0.000 A 
ATOM     17  C   UNL     1       3.724   6.816  18.316  0.00  0.00    +0.000 A 
ATOM     18  C   UNL     1       4.460   5.639  18.471  0.00  0.00    +0.000 A 
ATOM     19  C   UNL     1       4.050   4.695  19.406  0.00  0.00    +0.000 A 
ATOM     20  N   UNL     1       4.772   3.507  19.551  0.00  0.00    +0.000 N 
ATOM     21  H   UNL     1       5.662   3.390  19.084  0.00  0.00    +0.000 HD
ENDBRANCH   1  16
BRANCH   6  22
ATOM     22  C   UNL     1      -0.898  11.809  22.388  0.00  0.00    +0.000 A 
ATOM     23  C   UNL     1      -0.558  13.110  22.703  0.00  0.00    +0.000 A 
ATOM     24  C   UNL     1      -1.616  13.654  23.458  0.00  0.00    +0.000 A 
ATOM     25  C   UNL     1      -1.856  14.889  24.083  0.00  0.00    +0.000 A 
ATOM     26  C   UNL     1      -3.044  15.059  24.801  0.00  0.00    +0.000 A 
ATOM     27  C   UNL     1      -3.979  14.022  24.891  0.00  0.00    +0.000 A 
ATOM     28  C   UNL     1      -3.762  12.786  24.261  0.00  0.00    +0.000 A 
ATOM     29  C   UNL     1      -2.566  12.643  23.557  0.00  0.00    +0.000 A 
ATOM     30  O   UNL     1      -2.144  11.520  22.889  0.00  0.00    +0.000 OA
ENDBRANCH   6  22
TORSDOF 2
ENDMDL
MODEL 6
REMARK VINA RESULT:      -8.3      3.647      4.205
REMARK  Name = 
REMARK  2 active torsions:
REMARK  status: ('A' for Active; 'I' for Inactive)
REMARK    1  A    between atoms: C_7  and  C_8
REMARK    2  A    between atoms: C_13  and  C_15
REMARK                            x       y       z     vdW  Elec       q    Type
REMARK                         _______ _______ _______ _____ _____    ______ ____
ROOT
ATOM      1  C   UNL     1       1.059   8.374  20.861  0.00  0.00    +0.000 A 
ATOM      2  C   UNL     1       0.275   8.460  21.996  0.00  0.00    +0.000 A 
ATOM      3  S   UNL     1      -0.134  10.112  22.301  0.00  0.00    +0.000 S 
ATOM      4  C   UNL     1       0.686  10.558  20.874  0.00  0.00    +0.000 A 
ATOM      5  N   UNL     1       0.632  11.886  20.535  0.00  0.00    +0.000 N 
ATOM      6  C   UNL     1       1.008  12.283  19.270  0.00  0.00    +0.000 C 
ATOM      7  O   UNL     1       1.374  11.523  18.377  0.00  0.00    +0.000 OA
ATOM      8  N   UNL     1       1.287   9.587  20.237  0.00  0.00    +0.000 NA
ATOM      9  H   UNL     1       0.225  12.546  21.177  0.00  0.00    +0.000 HD
ENDROOT
BRANCH   1  16
ATOM     10  O   UNL     1       3.545   1.461  18.414  0.00  0.00    +0.000 OA
ATOM     11  C   UNL     1       2.986   2.431  18.921  0.00  0.00    +0.000 C 
ATOM     12  C   UNL     1       1.785   2.294  19.828  0.00  0.00    +0.000 C 
ATOM     13  C   UNL     1       1.772   3.371  20.902  0.00  0.00    +0.000 C 
ATOM     14  C   UNL     1       1.967   4.734  20.295  0.00  0.00    +0.000 A 
ATOM     15  C   UNL     1       1.416   5.886  20.881  0.00  0.00    +0.000 A 
ATOM     16  C   UNL     1       1.650   7.150  20.321  0.00  0.00    +0.000 A 
ATOM     17  C   UNL     1       2.466   7.241  19.180  0.00  0.00    +0.000 A 
ATOM     18  C   UNL     1       3.047   6.103  18.613  0.00  0.00    +0.000 A 
ATOM     19  C   UNL     1       2.783   4.854  19.164  0.00  0.00    +0.000 A 
ATOM     20  N   UNL     1       3.346   3.712  18.588  0.00  0.00    +0.000 N 
ATOM     21  H   UNL     1       4.049   3.798  17.866  0.00  0.00    +0.000 HD
ENDBRANCH   1  16
BRANCH   6  22
ATOM     22  C   UNL     1       0.915  13.706  18.996  0.00  0.00    +0.000 A 
ATOM     23  C   UNL     1       1.948  14.578  18.709  0.00  0.00    +0.000 A 
ATOM     24  C   UNL     1       1.392  15.866  18.582  0.00  0.00    +0.000 A 
ATOM     25  C   UNL     1       1.909  17.149  18.332  0.00  0.00    +0.000 A 
ATOM     26  C   UNL     1       1.029  18.236  18.315  0.00  0.00    +0.000 A 
ATOM     27  C   UNL     1      -0.339  18.051  18.537  0.00  0.00    +0.000 A 
ATOM     28  C   UNL     1      -0.874  16.775  18.776  0.00  0.00    +0.000 A 
ATOM     29  C   UNL     1       0.026  15.710  18.792  0.00  0.00    +0.000 A 
ATOM     30  O   UNL     1      -0.276  14.391  19.026  0.00  0.00    +0.000 OA
ENDBRANCH   6  22
TORSDOF 2
ENDMDL
MODEL 7
REMARK VINA RESULT:      -8.3      3.412      4.827
REMARK  Name = 
REMARK  2 active torsions:
REMARK  status: ('A' for Active; 'I' for Inactive)
REMARK    1  A    between atoms: C_7  and  C_8
REMARK    2  A    between atoms: C_13  and  C_15
REMARK                            x       y       z     vdW  Elec       q    Type
REMARK                         _______ _______ _______ _____ _____    ______ ____
ROOT
ATOM      1  C   UNL     1       3.645   5.680  18.790  0.00  0.00    +0.000 A 
ATOM      2  C   UNL     1       3.232   4.645  19.609  0.00  0.00    +0.000 A 
ATOM      3  S   UNL     1       2.086   5.232  20.761  0.00  0.00    +0.000 S 
ATOM      4  C   UNL     1       2.172   6.773  20.034  0.00  0.00    +0.000 A 
ATOM      5  N   UNL     1       1.335   7.731  20.545  0.00  0.00    +0.000 N 
ATOM      6  C   UNL     1       1.127   8.899  19.844  0.00  0.00    +0.000 C 
ATOM      7  O   UNL     1       1.620   9.157  18.748  0.00  0.00    +0.000 OA
ATOM      8  N   UNL     1       3.030   6.890  19.055  0.00  0.00    +0.000 NA
ATOM      9  H   UNL     1       0.802   7.534  21.376  0.00  0.00    +0.000 HD
ENDROOT
BRANCH   1  16
ATOM     10  O   UNL     1       8.367   4.793  12.718  0.00  0.00    +0.000 OA
ATOM     11  C   UNL     1       7.459   4.818  13.545  0.00  0.00    +0.000 C 
ATOM     12  C   UNL     1       6.097   4.218  13.276  0.00  0.00    +0.000 C 
ATOM     13  C   UNL     1       5.480   3.646  14.542  0.00  0.00    +0.000 C 
ATOM     14  C   UNL     1       5.530   4.651  15.662  0.00  0.00    +0.000 A 
ATOM     15  C   UNL     1       4.559   4.668  16.678  0.00  0.00    +0.000 A 
ATOM     16  C   UNL     1       4.653   5.585  17.735  0.00  0.00    +0.000 A 
ATOM     17  C   UNL     1       5.750   6.465  17.768  0.00  0.00    +0.000 A 
ATOM     18  C   UNL     1       6.736   6.429  16.781  0.00  0.00    +0.000 A 
ATOM     19  C   UNL     1       6.614   5.533  15.724  0.00  0.00    +0.000 A 
ATOM     20  N   UNL     1       7.590   5.506  14.723  0.00  0.00    +0.000 N 
ATOM     21  H   UNL     1       8.447   6.032  14.832  0.00  0.00    +0.000 HD
ENDBRANCH   1  16
BRANCH   6  22
ATOM     22  C   UNL     1       0.221   9.856  20.456  0.00  0.00    +0.000 A 
ATOM     23  C   UNL     1      -0.359  10.962  19.866  0.00  0.00    +0.000 A 
ATOM     24  C   UNL     1      -1.106  11.628  20.857  0.00  0.00    +0.000 A 
ATOM     25  C   UNL     1      -1.881  12.800  20.895  0.00  0.00    +0.000 A 
ATOM     26  C   UNL     1      -2.461  13.182  22.109  0.00  0.00    +0.000 A 
ATOM     27  C   UNL     1      -2.280  12.411  23.261  0.00  0.00    +0.000 A 
ATOM     28  C   UNL     1      -1.520  11.231  23.238  0.00  0.00    +0.000 A 
ATOM     29  C   UNL     1      -0.948  10.876  22.016  0.00  0.00    +0.000 A 
ATOM     30  O   UNL     1      -0.155   9.782  21.775  0.00  0.00    +0.000 OA
ENDBRANCH   6  22
TORSDOF 2
ENDMDL
MODEL 8
REMARK VINA RESULT:      -8.3      0.982      1.003
REMARK  Name = 
REMARK  2 active torsions:
REMARK  status: ('A' for Active; 'I' for Inactive)
REMARK    1  A    between atoms: C_7  and  C_8
REMARK    2  A    between atoms: C_13  and  C_15
REMARK                            x       y       z     vdW  Elec       q    Type
REMARK                         _______ _______ _______ _____ _____    ______ ____
ROOT
ATOM      1  C   UNL     1       1.735   9.442  18.994  0.00  0.00    +0.000 A 
ATOM      2  C   UNL     1       2.031  10.378  18.021  0.00  0.00    +0.000 A 
ATOM      3  S   UNL     1       1.261  11.879  18.400  0.00  0.00    +0.000 S 
ATOM      4  C   UNL     1       0.674  11.191  19.846  0.00  0.00    +0.000 A 
ATOM      5  N   UNL     1      -0.027  12.030  20.674  0.00  0.00    +0.000 N 
ATOM      6  C   UNL     1      -0.283  11.649  21.973  0.00  0.00    +0.000 C 
ATOM      7  O   UNL     1       0.099  10.599  22.484  0.00  0.00    +0.000 OA
ATOM      8  N   UNL     1       0.952   9.927  20.026  0.00  0.00    +0.000 NA
ATOM      9  H   UNL     1      -0.263  12.956  20.359  0.00  0.00    +0.000 HD
ENDROOT
BRANCH   1  16
ATOM     10  O   UNL     1       3.310   1.880  19.538  0.00  0.00    +0.000 OA
ATOM     11  C   UNL     1       2.894   3.034  19.617  0.00  0.00    +0.000 C 
ATOM     12  C   UNL     1       1.763   3.428  20.540  0.00  0.00    +0.000 C 
ATOM     13  C   UNL     1       1.946   4.840  21.074  0.00  0.00    +0.000 C 
ATOM     14  C   UNL     1       2.226   5.803  19.952  0.00  0.00    +0.000 A 
ATOM     15  C   UNL     1       1.842   7.153  20.029  0.00  0.00    +0.000 A 
ATOM     16  C   UNL     1       2.154   8.041  18.989  0.00  0.00    +0.000 A 
ATOM     17  C   UNL     1       2.880   7.558  17.885  0.00  0.00    +0.000 A 
ATOM     18  C   UNL     1       3.296   6.226  17.820  0.00  0.00    +0.000 A 
ATOM     19  C   UNL     1       2.954   5.352  18.845  0.00  0.00    +0.000 A 
ATOM     20  N   UNL     1       3.351   4.013  18.774  0.00  0.00    +0.000 N 
ATOM     21  H   UNL     1       3.998   3.710  18.058  0.00  0.00    +0.000 HD
ENDBRANCH   1  16
BRANCH   6  22
ATOM     22  C   UNL     1      -1.026  12.600  22.780  0.00  0.00    +0.000 A 
ATOM     23  C   UNL     1      -2.394  12.658  22.966  0.00  0.00    +0.000 A 
ATOM     24  C   UNL     1      -2.665  13.782  23.771  0.00  0.00    +0.000 A 
ATOM     25  C   UNL     1      -3.831  14.383  24.276  0.00  0.00    +0.000 A 
ATOM     26  C   UNL     1      -3.710  15.552  25.034  0.00  0.00    +0.000 A 
ATOM     27  C   UNL     1      -2.454  16.110  25.290  0.00  0.00    +0.000 A 
ATOM     28  C   UNL     1      -1.278  15.516  24.805  0.00  0.00    +0.000 A 
ATOM     29  C   UNL     1      -1.428  14.354  24.048  0.00  0.00    +0.000 A 
ATOM     30  O   UNL     1      -0.421  13.627  23.463  0.00  0.00    +0.000 OA
ENDBRANCH   6  22
TORSDOF 2
ENDMDL
MODEL 9
REMARK VINA RESULT:      -8.3      1.092      1.103
REMARK  Name = 
REMARK  2 active torsions:
REMARK  status: ('A' for Active; 'I' for Inactive)
REMARK    1  A    between atoms: C_7  and  C_8
REMARK    2  A    between atoms: C_13  and  C_15
REMARK                            x       y       z     vdW  Elec       q    Type
REMARK                         _______ _______ _______ _____ _____    ______ ____
ROOT
ATOM      1  C   UNL     1       2.216   8.366  18.525  0.00  0.00    +0.000 A 
ATOM      2  C   UNL     1       2.496   9.319  17.564  0.00  0.00    +0.000 A 
ATOM      3  S   UNL     1       1.678  10.793  17.947  0.00  0.00    +0.000 S 
ATOM      4  C   UNL     1       1.094  10.075  19.379  0.00  0.00    +0.000 A 
ATOM      5  N   UNL     1       0.358  10.884  20.206  0.00  0.00    +0.000 N 
ATOM      6  C   UNL     1       0.099  10.483  21.498  0.00  0.00    +0.000 C 
ATOM      7  O   UNL     1       0.505   9.440  22.004  0.00  0.00    +0.000 OA
ATOM      8  N   UNL     1       1.407   8.817  19.551  0.00  0.00    +0.000 NA
ATOM      9  H   UNL     1       0.099  11.807  19.897  0.00  0.00    +0.000 HD
ENDROOT
BRANCH   1  16
ATOM     10  O   UNL     1       3.829   0.794  18.643  0.00  0.00    +0.000 OA
ATOM     11  C   UNL     1       3.353   1.925  18.687  0.00  0.00    +0.000 C 
ATOM     12  C   UNL     1       1.906   2.185  19.038  0.00  0.00    +0.000 C 
ATOM     13  C   UNL     1       1.742   3.496  19.792  0.00  0.00    +0.000 C 
ATOM     14  C   UNL     1       2.440   4.617  19.071  0.00  0.00    +0.000 A 
ATOM     15  C   UNL     1       1.983   5.944  19.156  0.00  0.00    +0.000 A 
ATOM     16  C   UNL     1       2.677   6.978  18.511  0.00  0.00    +0.000 A 
ATOM     17  C   UNL     1       3.850   6.663  17.804  0.00  0.00    +0.000 A 
ATOM     18  C   UNL     1       4.330   5.352  17.746  0.00  0.00    +0.000 A 
ATOM     19  C   UNL     1       3.616   4.334  18.366  0.00  0.00    +0.000 A 
ATOM     20  N   UNL     1       4.082   3.018  18.295  0.00  0.00    +0.000 N 
ATOM     21  H   UNL     1       5.000   2.822  17.916  0.00  0.00    +0.000 HD
ENDBRANCH   1  16
BRANCH   6  22
ATOM     22  C   UNL     1      -0.683  11.405  22.305  0.00  0.00    +0.000 A 
ATOM     23  C   UNL     1      -1.924  11.184  22.870  0.00  0.00    +0.000 A 
ATOM     24  C   UNL     1      -2.319  12.378  23.506  0.00  0.00    +0.000 A 
ATOM     25  C   UNL     1      -3.458  12.795  24.214  0.00  0.00    +0.000 A 
ATOM     26  C   UNL     1      -3.514  14.112  24.683  0.00  0.00    +0.000 A 
ATOM     27  C   UNL     1      -2.455  14.996  24.455  0.00  0.00    +0.000 A 
ATOM     28  C   UNL     1      -1.303  14.593  23.761  0.00  0.00    +0.000 A 
ATOM     29  C   UNL     1      -1.276  13.276  23.301  0.00  0.00    +0.000 A 
ATOM     30  O   UNL     1      -0.265  12.683  22.586  0.00  0.00    +0.000 OA
ENDBRANCH   6  22
TORSDOF 2
ENDMDL
