MODEL 1
REMARK VINA RESULT:      -8.4      0.000      0.000
REMARK  Name = 
REMARK  6 active torsions:
REMARK  status: ('A' for Active; 'I' for Inactive)
REMARK    1  A    between atoms: C_1  and  C_2
REMARK    2  A    between atoms: C_5  and  C_6
REMARK    3  A    between atoms: C_6  and  N_7
REMARK    4  A    between atoms: C_11  and  C_12
REMARK    5  A    between atoms: C_11  and  C_19
REMARK    6  A    between atoms: C_12  and  C_13
REMARK                            x       y       z     vdW  Elec       q    Type
REMARK                         _______ _______ _______ _____ _____    ______ ____
ROOT
ATOM      1  N   UNL     1       6.449   6.296  17.908  0.00  0.00    +0.000 N 
ATOM      2  C   UNL     1       6.169   5.669  19.077  0.00  0.00    +0.000 C 
ATOM      3  O   UNL     1       6.946   5.408  19.976  0.00  0.00    +0.000 OA
ATOM      4  N   UNL     1       4.826   5.404  19.123  0.00  0.00    +0.000 N 
ATOM      5  C   UNL     1       4.094   5.905  17.970  0.00  0.00    +0.000 C 
ATOM      6  C   UNL     1       5.304   6.495  17.182  0.00  0.00    +0.000 C 
ATOM      7  O   UNL     1       5.244   7.055  16.094  0.00  0.00    +0.000 OA
ATOM      8  H   UNL     1       4.389   5.050  19.964  0.00  0.00    +0.000 HD
ENDROOT
BRANCH   5   9
ATOM      9  C   UNL     1       3.118   7.016  18.376  0.00  0.00    +0.000 A 
ATOM     10  C   UNL     1       2.553   7.048  19.667  0.00  0.00    +0.000 A 
ATOM     11  C   UNL     1       1.666   8.060  20.048  0.00  0.00    +0.000 A 
ATOM     12  C   UNL     1       1.326   9.065  19.151  0.00  0.00    +0.000 A 
ATOM     13  C   UNL     1       1.876   9.063  17.875  0.00  0.00    +0.000 A 
ATOM     14  C   UNL     1       2.772   8.059  17.499  0.00  0.00    +0.000 A 
ENDBRANCH   5   9
BRANCH   1  15
ATOM     15  C   UNL     1       7.782   6.695  17.509  0.00  0.00    +0.000 C 
BRANCH  15  20
ATOM     16  C   UNL     1       9.618  10.485  19.912  0.00  0.00    +0.000 C 
ATOM     17  C   UNL     1       8.815   9.786  18.892  0.00  0.00    +0.000 A 
ATOM     18  N   UNL     1       8.049  10.285  17.947  0.00  0.00    +0.000 NA
ATOM     19  N   UNL     1       7.526   9.212  17.260  0.00  0.00    +0.000 NA
ATOM     20  C   UNL     1       8.010   8.127  17.832  0.00  0.00    +0.000 A 
ATOM     21  O   UNL     1       8.838   8.416  18.892  0.00  0.00    +0.000 OA
ENDBRANCH  15  20
ENDBRANCH   1  15
BRANCH   5  22
ATOM     22  C   UNL     1       3.508   4.739  17.120  0.00  0.00    +0.000 C 
BRANCH  22  23
ATOM     23  C   UNL     1       2.724   3.672  17.870  0.00  0.00    +0.000 A 
ATOM     24  C   UNL     1       3.334   2.469  18.256  0.00  0.00    +0.000 A 
ATOM     25  C   UNL     1       2.622   1.502  18.973  0.00  0.00    +0.000 A 
ATOM     26  C   UNL     1       1.293   1.730  19.321  0.00  0.00    +0.000 A 
ATOM     27  C   UNL     1       0.678   2.924  18.957  0.00  0.00    +0.000 A 
ATOM     28  C   UNL     1       1.392   3.892  18.247  0.00  0.00    +0.000 A 
ENDBRANCH  22  23
ENDBRANCH   5  22
TORSDOF 5
ENDMDL
MODEL 2
REMARK VINA RESULT:      -8.2      2.209      3.418
REMARK  Name = 
REMARK  6 active torsions:
REMARK  status: ('A' for Active; 'I' for Inactive)
REMARK    1  A    between atoms: C_1  and  C_2
REMARK    2  A    between atoms: C_5  and  C_6
REMARK    3  A    between atoms: C_6  and  N_7
REMARK    4  A    between atoms: C_11  and  C_12
REMARK    5  A    between atoms: C_11  and  C_19
REMARK    6  A    between atoms: C_12  and  C_13
REMARK                            x       y       z     vdW  Elec       q    Type
REMARK                         _______ _______ _______ _____ _____    ______ ____
ROOT
ATOM      1  N   UNL     1       4.953   6.782  17.991  0.00  0.00    +0.000 N 
ATOM      2  C   UNL     1       4.905   6.012  19.107  0.00  0.00    +0.000 C 
ATOM      3  O   UNL     1       5.847   5.538  19.714  0.00  0.00    +0.000 OA
ATOM      4  N   UNL     1       3.598   5.882  19.495  0.00  0.00    +0.000 N 
ATOM      5  C   UNL     1       2.667   6.628  18.662  0.00  0.00    +0.000 C 
ATOM      6  C   UNL     1       3.696   7.206  17.645  0.00  0.00    +0.000 C 
ATOM      7  O   UNL     1       3.433   7.932  16.694  0.00  0.00    +0.000 OA
ATOM      8  H   UNL     1       3.352   5.448  20.375  0.00  0.00    +0.000 HD
ENDROOT
BRANCH   5   9
ATOM      9  C   UNL     1       1.997   7.756  19.457  0.00  0.00    +0.000 A 
ATOM     10  C   UNL     1       1.601   8.953  18.825  0.00  0.00    +0.000 A 
ATOM     11  C   UNL     1       0.986   9.984  19.541  0.00  0.00    +0.000 A 
ATOM     12  C   UNL     1       0.748   9.844  20.902  0.00  0.00    +0.000 A 
ATOM     13  C   UNL     1       1.119   8.672  21.548  0.00  0.00    +0.000 A 
ATOM     14  C   UNL     1       1.723   7.635  20.831  0.00  0.00    +0.000 A 
ENDBRANCH   5   9
BRANCH   1  15
ATOM     15  C   UNL     1       6.176   7.100  17.286  0.00  0.00    +0.000 C 
BRANCH  15  20
ATOM     16  C   UNL     1       6.282   4.049  13.520  0.00  0.00    +0.000 C 
ATOM     17  C   UNL     1       6.669   4.595  14.833  0.00  0.00    +0.000 A 
ATOM     18  N   UNL     1       7.576   4.165  15.683  0.00  0.00    +0.000 NA
ATOM     19  N   UNL     1       7.551   5.030  16.754  0.00  0.00    +0.000 NA
ATOM     20  C   UNL     1       6.630   5.934  16.485  0.00  0.00    +0.000 A 
ATOM     21  O   UNL     1       6.016   5.716  15.275  0.00  0.00    +0.000 OA
ENDBRANCH  15  20
ENDBRANCH   1  15
BRANCH   5  22
ATOM     22  C   UNL     1       1.720   5.674  17.875  0.00  0.00    +0.000 C 
BRANCH  22  23
ATOM     23  C   UNL     1       1.790   4.195  18.229  0.00  0.00    +0.000 A 
ATOM     24  C   UNL     1       2.584   3.313  17.481  0.00  0.00    +0.000 A 
ATOM     25  C   UNL     1       2.672   1.960  17.826  0.00  0.00    +0.000 A 
ATOM     26  C   UNL     1       1.975   1.475  18.928  0.00  0.00    +0.000 A 
ATOM     27  C   UNL     1       1.194   2.341  19.689  0.00  0.00    +0.000 A 
ATOM     28  C   UNL     1       1.112   3.692  19.348  0.00  0.00    +0.000 A 
ENDBRANCH  22  23
ENDBRANCH   5  22
TORSDOF 5
ENDMDL
MODEL 3
REMARK VINA RESULT:      -8.1      2.207      3.365
REMARK  Name = 
REMARK  6 active torsions:
REMARK  status: ('A' for Active; 'I' for Inactive)
REMARK    1  A    between atoms: C_1  and  C_2
REMARK    2  A    between atoms: C_5  and  C_6
REMARK    3  A    between atoms: C_6  and  N_7
REMARK    4  A    between atoms: C_11  and  C_12
REMARK    5  A    between atoms: C_11  and  C_19
REMARK    6  A    between atoms: C_12  and  C_13
REMARK                            x       y       z     vdW  Elec       q    Type
REMARK                         _______ _______ _______ _____ _____    ______ ____
ROOT
ATOM      1  N   UNL     1       4.973   6.775  17.987  0.00  0.00    +0.000 N 
ATOM      2  C   UNL     1       4.919   6.026  19.117  0.00  0.00    +0.000 C 
ATOM      3  O   UNL     1       5.857   5.565  19.739  0.00  0.00    +0.000 OA
ATOM      4  N   UNL     1       3.609   5.899  19.497  0.00  0.00    +0.000 N 
ATOM      5  C   UNL     1       2.682   6.627  18.644  0.00  0.00    +0.000 C 
ATOM      6  C   UNL     1       3.718   7.189  17.624  0.00  0.00    +0.000 C 
ATOM      7  O   UNL     1       3.459   7.897  16.657  0.00  0.00    +0.000 OA
ATOM      8  H   UNL     1       3.358   5.480  20.383  0.00  0.00    +0.000 HD
ENDROOT
BRANCH   5   9
ATOM      9  C   UNL     1       2.003   7.768  19.413  0.00  0.00    +0.000 A 
ATOM     10  C   UNL     1       1.749   7.659  20.795  0.00  0.00    +0.000 A 
ATOM     11  C   UNL     1       1.135   8.695  21.505  0.00  0.00    +0.000 A 
ATOM     12  C   UNL     1       0.766   9.865  20.854  0.00  0.00    +0.000 A 
ATOM     13  C   UNL     1       1.015  10.003  19.494  0.00  0.00    +0.000 A 
ATOM     14  C   UNL     1       1.639   8.972  18.787  0.00  0.00    +0.000 A 
ENDBRANCH   5   9
BRANCH   1  15
ATOM     15  C   UNL     1       6.201   7.084  17.286  0.00  0.00    +0.000 C 
BRANCH  15  20
ATOM     16  C   UNL     1       6.284   4.050  13.505  0.00  0.00    +0.000 C 
ATOM     17  C   UNL     1       6.674   4.586  14.822  0.00  0.00    +0.000 A 
ATOM     18  N   UNL     1       7.573   4.141  15.672  0.00  0.00    +0.000 NA
ATOM     19  N   UNL     1       7.554   5.001  16.748  0.00  0.00    +0.000 NA
ATOM     20  C   UNL     1       6.644   5.917  16.481  0.00  0.00    +0.000 A 
ATOM     21  O   UNL     1       6.032   5.712  15.267  0.00  0.00    +0.000 OA
ENDBRANCH  15  20
ENDBRANCH   1  15
BRANCH   5  22
ATOM     22  C   UNL     1       1.744   5.655  17.868  0.00  0.00    +0.000 C 
BRANCH  22  23
ATOM     23  C   UNL     1       1.820   4.183  18.245  0.00  0.00    +0.000 A 
ATOM     24  C   UNL     1       1.092   3.680  19.334  0.00  0.00    +0.000 A 
ATOM     25  C   UNL     1       1.138   2.320  19.660  0.00  0.00    +0.000 A 
ATOM     26  C   UNL     1       1.905   1.446  18.896  0.00  0.00    +0.000 A 
ATOM     27  C   UNL     1       2.622   1.927  17.804  0.00  0.00    +0.000 A 
ATOM     28  C   UNL     1       2.570   3.283  17.475  0.00  0.00    +0.000 A 
ENDBRANCH  22  23
ENDBRANCH   5  22
TORSDOF 5
ENDMDL
MODEL 4
REMARK VINA RESULT:      -8.0      2.686      4.630
REMARK  Name = 
REMARK  6 active torsions:
REMARK  status: ('A' for Active; 'I' for Inactive)
REMARK    1  A    between atoms: C_1  and  C_2
REMARK    2  A    between atoms: C_5  and  C_6
REMARK    3  A    between atoms: C_6  and  N_7
REMARK    4  A    between atoms: C_11  and  C_12
REMARK    5  A    between atoms: C_11  and  C_19
REMARK    6  A    between atoms: C_12  and  C_13
REMARK                            x       y       z     vdW  Elec       q    Type
REMARK                         _______ _______ _______ _____ _____    ______ ____
ROOT
ATOM      1  N   UNL     1       7.035   5.583  18.096  0.00  0.00    +0.000 N 
ATOM      2  C   UNL     1       7.503   4.442  17.531  0.00  0.00    +0.000 C 
ATOM      3  O   UNL     1       8.570   3.900  17.745  0.00  0.00    +0.000 OA
ATOM      4  N   UNL     1       6.544   3.944  16.688  0.00  0.00    +0.000 N 
ATOM      5  C   UNL     1       5.314   4.722  16.682  0.00  0.00    +0.000 C 
ATOM      6  C   UNL     1       5.755   5.839  17.676  0.00  0.00    +0.000 C 
ATOM      7  O   UNL     1       5.069   6.788  18.036  0.00  0.00    +0.000 OA
ATOM      8  H   UNL     1       6.644   3.033  16.260  0.00  0.00    +0.000 HD
ENDROOT
BRANCH   5   9
ATOM      9  C   UNL     1       4.146   3.911  17.259  0.00  0.00    +0.000 A 
ATOM     10  C   UNL     1       2.878   4.499  17.445  0.00  0.00    +0.000 A 
ATOM     11  C   UNL     1       1.807   3.766  17.966  0.00  0.00    +0.000 A 
ATOM     12  C   UNL     1       1.975   2.431  18.309  0.00  0.00    +0.000 A 
ATOM     13  C   UNL     1       3.212   1.825  18.127  0.00  0.00    +0.000 A 
ATOM     14  C   UNL     1       4.279   2.552  17.595  0.00  0.00    +0.000 A 
ENDBRANCH   5   9
BRANCH   1  15
ATOM     15  C   UNL     1       7.799   6.396  19.018  0.00  0.00    +0.000 C 
BRANCH  15  20
ATOM     16  C   UNL     1       9.558  10.910  18.820  0.00  0.00    +0.000 C 
ATOM     17  C   UNL     1       8.840   9.712  18.345  0.00  0.00    +0.000 A 
ATOM     18  N   UNL     1       8.222   9.507  17.203  0.00  0.00    +0.000 NA
ATOM     19  N   UNL     1       7.722   8.225  17.255  0.00  0.00    +0.000 NA
ATOM     20  C   UNL     1       8.071   7.731  18.426  0.00  0.00    +0.000 A 
ATOM     21  O   UNL     1       8.783   8.630  19.184  0.00  0.00    +0.000 OA
ENDBRANCH  15  20
ENDBRANCH   1  15
BRANCH   5  22
ATOM     22  C   UNL     1       5.077   5.396  15.298  0.00  0.00    +0.000 C 
BRANCH  22  23
ATOM     23  C   UNL     1       5.764   4.759  14.099  0.00  0.00    +0.000 A 
ATOM     24  C   UNL     1       5.125   3.760  13.350  0.00  0.00    +0.000 A 
ATOM     25  C   UNL     1       5.745   3.198  12.229  0.00  0.00    +0.000 A 
ATOM     26  C   UNL     1       7.008   3.633  11.839  0.00  0.00    +0.000 A 
ATOM     27  C   UNL     1       7.649   4.633  12.564  0.00  0.00    +0.000 A 
ATOM     28  C   UNL     1       7.027   5.199  13.679  0.00  0.00    +0.000 A 
ENDBRANCH  22  23
ENDBRANCH   5  22
TORSDOF 5
ENDMDL
MODEL 5
REMARK VINA RESULT:      -8.0      2.685      4.588
REMARK  Name = 
REMARK  6 active torsions:
REMARK  status: ('A' for Active; 'I' for Inactive)
REMARK    1  A    between atoms: C_1  and  C_2
REMARK    2  A    between atoms: C_5  and  C_6
REMARK    3  A    between atoms: C_6  and  N_7
REMARK    4  A    between atoms: C_11  and  C_12
REMARK    5  A    between atoms: C_11  and  C_19
REMARK    6  A    between atoms: C_12  and  C_13
REMARK                            x       y       z     vdW  Elec       q    Type
REMARK                         _______ _______ _______ _____ _____    ______ ____
ROOT
ATOM      1  N   UNL     1       7.035   5.575  18.088  0.00  0.00    +0.000 N 
ATOM      2  C   UNL     1       7.516   4.451  17.501  0.00  0.00    +0.000 C 
ATOM      3  O   UNL     1       8.590   3.917  17.703  0.00  0.00    +0.000 OA
ATOM      4  N   UNL     1       6.562   3.959  16.650  0.00  0.00    +0.000 N 
ATOM      5  C   UNL     1       5.323   4.722  16.660  0.00  0.00    +0.000 C 
ATOM      6  C   UNL     1       5.752   5.824  17.675  0.00  0.00    +0.000 C 
ATOM      7  O   UNL     1       5.056   6.758  18.054  0.00  0.00    +0.000 OA
ATOM      8  H   UNL     1       6.671   3.057  16.204  0.00  0.00    +0.000 HD
ENDROOT
BRANCH   5   9
ATOM      9  C   UNL     1       4.165   3.887  17.223  0.00  0.00    +0.000 A 
ATOM     10  C   UNL     1       4.367   2.554  17.637  0.00  0.00    +0.000 A 
ATOM     11  C   UNL     1       3.319   1.788  18.155  0.00  0.00    +0.000 A 
ATOM     12  C   UNL     1       2.048   2.334  18.278  0.00  0.00    +0.000 A 
ATOM     13  C   UNL     1       1.824   3.648  17.887  0.00  0.00    +0.000 A 
ATOM     14  C   UNL     1       2.873   4.419  17.380  0.00  0.00    +0.000 A 
ENDBRANCH   5   9
BRANCH   1  15
ATOM     15  C   UNL     1       7.792   6.379  19.025  0.00  0.00    +0.000 C 
BRANCH  15  20
ATOM     16  C   UNL     1       9.604  10.873  18.863  0.00  0.00    +0.000 C 
ATOM     17  C   UNL     1       8.869   9.690  18.380  0.00  0.00    +0.000 A 
ATOM     18  N   UNL     1       8.242   9.503  17.240  0.00  0.00    +0.000 NA
ATOM     19  N   UNL     1       7.727   8.227  17.281  0.00  0.00    +0.000 NA
ATOM     20  C   UNL     1       8.077   7.717  18.445  0.00  0.00    +0.000 A 
ATOM     21  O   UNL     1       8.804   8.600  19.208  0.00  0.00    +0.000 OA
ENDBRANCH  15  20
ENDBRANCH   1  15
BRANCH   5  22
ATOM     22  C   UNL     1       5.076   5.420  15.290  0.00  0.00    +0.000 C 
BRANCH  22  23
ATOM     23  C   UNL     1       5.748   4.799  14.074  0.00  0.00    +0.000 A 
ATOM     24  C   UNL     1       7.035   5.198  13.681  0.00  0.00    +0.000 A 
ATOM     25  C   UNL     1       7.664   4.605  12.582  0.00  0.00    +0.000 A 
ATOM     26  C   UNL     1       7.019   3.599  11.868  0.00  0.00    +0.000 A 
ATOM     27  C   UNL     1       5.749   3.183  12.254  0.00  0.00    +0.000 A 
ATOM     28  C   UNL     1       5.123   3.771  13.356  0.00  0.00    +0.000 A 
ENDBRANCH  22  23
ENDBRANCH   5  22
TORSDOF 5
ENDMDL
MODEL 6
REMARK VINA RESULT:      -7.9      2.252      3.358
REMARK  Name = 
REMARK  6 active torsions:
REMARK  status: ('A' for Active; 'I' for Inactive)
REMARK    1  A    between atoms: C_1  and  C_2
REMARK    2  A    between atoms: C_5  and  C_6
REMARK    3  A    between atoms: C_6  and  N_7
REMARK    4  A    between atoms: C_11  and  C_12
REMARK    5  A    between atoms: C_11  and  C_19
REMARK    6  A    between atoms: C_12  and  C_13
REMARK                            x       y       z     vdW  Elec       q    Type
REMARK                         _______ _______ _______ _____ _____    ______ ____
ROOT
ATOM      1  N   UNL     1       5.419   6.092  17.867  0.00  0.00    +0.000 N 
ATOM      2  C   UNL     1       5.184   5.613  19.114  0.00  0.00    +0.000 C 
ATOM      3  O   UNL     1       6.008   5.226  19.921  0.00  0.00    +0.000 OA
ATOM      4  N   UNL     1       3.837   5.674  19.362  0.00  0.00    +0.000 N 
ATOM      5  C   UNL     1       3.073   6.270  18.277  0.00  0.00    +0.000 C 
ATOM      6  C   UNL     1       4.252   6.515  17.286  0.00  0.00    +0.000 C 
ATOM      7  O   UNL     1       4.158   7.013  16.171  0.00  0.00    +0.000 OA
ATOM      8  H   UNL     1       3.463   5.479  20.281  0.00  0.00    +0.000 HD
ENDROOT
BRANCH   5   9
ATOM      9  C   UNL     1       2.444   7.600  18.710  0.00  0.00    +0.000 A 
ATOM     10  C   UNL     1       2.335   8.678  17.809  0.00  0.00    +0.000 A 
ATOM     11  C   UNL     1       1.758   9.893  18.194  0.00  0.00    +0.000 A 
ATOM     12  C   UNL     1       1.273  10.057  19.485  0.00  0.00    +0.000 A 
ATOM     13  C   UNL     1       1.359   9.007  20.391  0.00  0.00    +0.000 A 
ATOM     14  C   UNL     1       1.923   7.789  20.003  0.00  0.00    +0.000 A 
ENDBRANCH   5   9
BRANCH   1  15
ATOM     15  C   UNL     1       6.732   6.145  17.261  0.00  0.00    +0.000 C 
BRANCH  15  20
ATOM     16  C   UNL     1       7.803   5.054  12.660  0.00  0.00    +0.000 C 
ATOM     17  C   UNL     1       7.231   4.851  14.003  0.00  0.00    +0.000 A 
ATOM     18  N   UNL     1       6.563   3.823  14.480  0.00  0.00    +0.000 NA
ATOM     19  N   UNL     1       6.258   4.128  15.788  0.00  0.00    +0.000 NA
ATOM     20  C   UNL     1       6.763   5.323  16.024  0.00  0.00    +0.000 A 
ATOM     21  O   UNL     1       7.394   5.853  14.923  0.00  0.00    +0.000 OA
ENDBRANCH  15  20
ENDBRANCH   1  15
BRANCH   5  22
ATOM     22  C   UNL     1       2.119   5.230  17.618  0.00  0.00    +0.000 C 
BRANCH  22  23
ATOM     23  C   UNL     1       2.119   3.828  18.212  0.00  0.00    +0.000 A 
ATOM     24  C   UNL     1       3.015   2.852  17.752  0.00  0.00    +0.000 A 
ATOM     25  C   UNL     1       3.035   1.574  18.320  0.00  0.00    +0.000 A 
ATOM     26  C   UNL     1       2.166   1.259  19.360  0.00  0.00    +0.000 A 
ATOM     27  C   UNL     1       1.280   2.222  19.836  0.00  0.00    +0.000 A 
ATOM     28  C   UNL     1       1.265   3.499  19.274  0.00  0.00    +0.000 A 
ENDBRANCH  22  23
ENDBRANCH   5  22
TORSDOF 5
ENDMDL
MODEL 7
REMARK VINA RESULT:      -7.9      0.992      1.386
REMARK  Name = 
REMARK  6 active torsions:
REMARK  status: ('A' for Active; 'I' for Inactive)
REMARK    1  A    between atoms: C_1  and  C_2
REMARK    2  A    between atoms: C_5  and  C_6
REMARK    3  A    between atoms: C_6  and  N_7
REMARK    4  A    between atoms: C_11  and  C_12
REMARK    5  A    between atoms: C_11  and  C_19
REMARK    6  A    between atoms: C_12  and  C_13
REMARK                            x       y       z     vdW  Elec       q    Type
REMARK                         _______ _______ _______ _____ _____    ______ ____
ROOT
ATOM      1  N   UNL     1       5.959   6.225  17.747  0.00  0.00    +0.000 N 
ATOM      2  C   UNL     1       5.731   5.676  18.966  0.00  0.00    +0.000 C 
ATOM      3  O   UNL     1       6.560   5.366  19.800  0.00  0.00    +0.000 OA
ATOM      4  N   UNL     1       4.378   5.561  19.150  0.00  0.00    +0.000 N 
ATOM      5  C   UNL     1       3.594   6.096  18.047  0.00  0.00    +0.000 C 
ATOM      6  C   UNL     1       4.776   6.520  17.122  0.00  0.00    +0.000 C 
ATOM      7  O   UNL     1       4.669   7.043  16.020  0.00  0.00    +0.000 OA
ATOM      8  H   UNL     1       3.991   5.288  20.043  0.00  0.00    +0.000 HD
ENDROOT
BRANCH   5   9
ATOM      9  C   UNL     1       2.784   7.321  18.489  0.00  0.00    +0.000 A 
ATOM     10  C   UNL     1       2.536   8.386  17.599  0.00  0.00    +0.000 A 
ATOM     11  C   UNL     1       1.794   9.504  17.992  0.00  0.00    +0.000 A 
ATOM     12  C   UNL     1       1.279   9.583  19.279  0.00  0.00    +0.000 A 
ATOM     13  C   UNL     1       1.500   8.543  20.174  0.00  0.00    +0.000 A 
ATOM     14  C   UNL     1       2.230   7.420  19.778  0.00  0.00    +0.000 A 
ENDBRANCH   5   9
BRANCH   1  15
ATOM     15  C   UNL     1       7.281   6.462  17.207  0.00  0.00    +0.000 C 
BRANCH  15  20
ATOM     16  C   UNL     1       8.327  11.175  17.661  0.00  0.00    +0.000 C 
ATOM     17  C   UNL     1       8.340   9.743  18.013  0.00  0.00    +0.000 A 
ATOM     18  N   UNL     1       8.918   9.138  19.027  0.00  0.00    +0.000 NA
ATOM     19  N   UNL     1       8.623   7.798  18.903  0.00  0.00    +0.000 NA
ATOM     20  C   UNL     1       7.880   7.676  17.821  0.00  0.00    +0.000 A 
ATOM     21  O   UNL     1       7.663   8.879  17.192  0.00  0.00    +0.000 OA
ENDBRANCH  15  20
ENDBRANCH   1  15
BRANCH   5  22
ATOM     22  C   UNL     1       2.808   4.969  17.311  0.00  0.00    +0.000 C 
BRANCH  22  23
ATOM     23  C   UNL     1       2.311   3.811  18.165  0.00  0.00    +0.000 A 
ATOM     24  C   UNL     1       2.891   2.538  18.058  0.00  0.00    +0.000 A 
ATOM     25  C   UNL     1       2.455   1.482  18.865  0.00  0.00    +0.000 A 
ATOM     26  C   UNL     1       1.440   1.689  19.795  0.00  0.00    +0.000 A 
ATOM     27  C   UNL     1       0.865   2.950  19.923  0.00  0.00    +0.000 A 
ATOM     28  C   UNL     1       1.306   4.005  19.122  0.00  0.00    +0.000 A 
ENDBRANCH  22  23
ENDBRANCH   5  22
TORSDOF 5
ENDMDL
MODEL 8
REMARK VINA RESULT:      -7.8      2.294      3.476
REMARK  Name = 
REMARK  6 active torsions:
REMARK  status: ('A' for Active; 'I' for Inactive)
REMARK    1  A    between atoms: C_1  and  C_2
REMARK    2  A    between atoms: C_5  and  C_6
REMARK    3  A    between atoms: C_6  and  N_7
REMARK    4  A    between atoms: C_11  and  C_12
REMARK    5  A    between atoms: C_11  and  C_19
REMARK    6  A    between atoms: C_12  and  C_13
REMARK                            x       y       z     vdW  Elec       q    Type
REMARK                         _______ _______ _______ _____ _____    ______ ____
ROOT
ATOM      1  N   UNL     1       5.928   5.800  17.714  0.00  0.00    +0.000 N 
ATOM      2  C   UNL     1       5.935   5.618  19.058  0.00  0.00    +0.000 C 
ATOM      3  O   UNL     1       6.908   5.552  19.786  0.00  0.00    +0.000 OA
ATOM      4  N   UNL     1       4.640   5.566  19.501  0.00  0.00    +0.000 N 
ATOM      5  C   UNL     1       3.656   5.771  18.448  0.00  0.00    +0.000 C 
ATOM      6  C   UNL     1       4.643   5.913  17.250  0.00  0.00    +0.000 C 
ATOM      7  O   UNL     1       4.328   6.104  16.082  0.00  0.00    +0.000 OA
ATOM      8  H   UNL     1       4.423   5.558  20.489  0.00  0.00    +0.000 HD
ENDROOT
BRANCH   5   9
ATOM      9  C   UNL     1       2.878   7.076  18.667  0.00  0.00    +0.000 A 
ATOM     10  C   UNL     1       2.211   7.326  19.884  0.00  0.00    +0.000 A 
ATOM     11  C   UNL     1       1.504   8.513  20.094  0.00  0.00    +0.000 A 
ATOM     12  C   UNL     1       1.450   9.480  19.098  0.00  0.00    +0.000 A 
ATOM     13  C   UNL     1       2.107   9.263  17.893  0.00  0.00    +0.000 A 
ATOM     14  C   UNL     1       2.825   8.082  17.687  0.00  0.00    +0.000 A 
ENDBRANCH   5   9
BRANCH   1  15
ATOM     15  C   UNL     1       7.127   5.870  16.906  0.00  0.00    +0.000 C 
BRANCH  15  20
ATOM     16  C   UNL     1       7.501   4.840  12.183  0.00  0.00    +0.000 C 
ATOM     17  C   UNL     1       7.123   4.625  13.591  0.00  0.00    +0.000 A 
ATOM     18  N   UNL     1       6.505   3.604  14.143  0.00  0.00    +0.000 NA
ATOM     19  N   UNL     1       6.398   3.892  15.486  0.00  0.00    +0.000 NA
ATOM     20  C   UNL     1       6.961   5.070  15.665  0.00  0.00    +0.000 A 
ATOM     21  O   UNL     1       7.441   5.607  14.493  0.00  0.00    +0.000 OA
ENDBRANCH  15  20
ENDBRANCH   1  15
BRANCH   5  22
ATOM     22  C   UNL     1       2.809   4.487  18.205  0.00  0.00    +0.000 C 
BRANCH  22  23
ATOM     23  C   UNL     1       2.426   3.677  19.436  0.00  0.00    +0.000 A 
ATOM     24  C   UNL     1       3.381   2.904  20.114  0.00  0.00    +0.000 A 
ATOM     25  C   UNL     1       3.035   2.185  21.263  0.00  0.00    +0.000 A 
ATOM     26  C   UNL     1       1.733   2.236  21.752  0.00  0.00    +0.000 A 
ATOM     27  C   UNL     1       0.778   3.009  21.097  0.00  0.00    +0.000 A 
ATOM     28  C   UNL     1       1.126   3.733  19.955  0.00  0.00    +0.000 A 
ENDBRANCH  22  23
ENDBRANCH   5  22
TORSDOF 5
ENDMDL
MODEL 9
REMARK VINA RESULT:      -7.8      2.258      3.338
REMARK  Name = 
REMARK  6 active torsions:
REMARK  status: ('A' for Active; 'I' for Inactive)
REMARK    1  A    between atoms: C_1  and  C_2
REMARK    2  A    between atoms: C_5  and  C_6
REMARK    3  A    between atoms: C_6  and  N_7
REMARK    4  A    between atoms: C_11  and  C_12
REMARK    5  A    between atoms: C_11  and  C_19
REMARK    6  A    between atoms: C_12  and  C_13
REMARK                            x       y       z     vdW  Elec       q    Type
REMARK                         _______ _______ _______ _____ _____    ______ ____
ROOT
ATOM      1  N   UNL     1       5.398   6.089  17.875  0.00  0.00    +0.000 N 
ATOM      2  C   UNL     1       5.162   5.625  19.127  0.00  0.00    +0.000 C 
ATOM      3  O   UNL     1       5.987   5.247  19.938  0.00  0.00    +0.000 OA
ATOM      4  N   UNL     1       3.816   5.692  19.375  0.00  0.00    +0.000 N 
ATOM      5  C   UNL     1       3.052   6.276  18.283  0.00  0.00    +0.000 C 
ATOM      6  C   UNL     1       4.231   6.507  17.289  0.00  0.00    +0.000 C 
ATOM      7  O   UNL     1       4.137   6.993  16.168  0.00  0.00    +0.000 OA
ATOM      8  H   UNL     1       3.443   5.508  20.297  0.00  0.00    +0.000 HD
ENDROOT
BRANCH   5   9
ATOM      9  C   UNL     1       2.425   7.612  18.701  0.00  0.00    +0.000 A 
ATOM     10  C   UNL     1       1.905   7.794  19.999  0.00  0.00    +0.000 A 
ATOM     11  C   UNL     1       1.336   9.009  20.391  0.00  0.00    +0.000 A 
ATOM     12  C   UNL     1       1.277  10.072  19.499  0.00  0.00    +0.000 A 
ATOM     13  C   UNL     1       1.791   9.923  18.216  0.00  0.00    +0.000 A 
ATOM     14  C   UNL     1       2.371   8.713  17.829  0.00  0.00    +0.000 A 
ENDBRANCH   5   9
BRANCH   1  15
ATOM     15  C   UNL     1       6.711   6.133  17.267  0.00  0.00    +0.000 C 
BRANCH  15  20
ATOM     16  C   UNL     1       7.765   5.023  12.667  0.00  0.00    +0.000 C 
ATOM     17  C   UNL     1       7.197   4.826  14.013  0.00  0.00    +0.000 A 
ATOM     18  N   UNL     1       6.529   3.801  14.496  0.00  0.00    +0.000 NA
ATOM     19  N   UNL     1       6.229   4.112  15.804  0.00  0.00    +0.000 NA
ATOM     20  C   UNL     1       6.737   5.307  16.033  0.00  0.00    +0.000 A 
ATOM     21  O   UNL     1       7.365   5.831  14.929  0.00  0.00    +0.000 OA
ENDBRANCH  15  20
ENDBRANCH   1  15
BRANCH   5  22
ATOM     22  C   UNL     1       2.096   5.230  17.637  0.00  0.00    +0.000 C 
BRANCH  22  23
ATOM     23  C   UNL     1       2.154   3.814  18.194  0.00  0.00    +0.000 A 
ATOM     24  C   UNL     1       1.247   3.390  19.177  0.00  0.00    +0.000 A 
ATOM     25  C   UNL     1       1.281   2.080  19.665  0.00  0.00    +0.000 A 
ATOM     26  C   UNL     1       2.215   1.175  19.170  0.00  0.00    +0.000 A 
ATOM     27  C   UNL     1       3.112   1.577  18.184  0.00  0.00    +0.000 A 
ATOM     28  C   UNL     1       3.073   2.883  17.692  0.00  0.00    +0.000 A 
ENDBRANCH  22  23
ENDBRANCH   5  22
TORSDOF 5
ENDMDL
