MODEL 1
REMARK VINA RESULT:      -9.2      0.000      0.000
REMARK  Name = 
REMARK  6 active torsions:
REMARK  status: ('A' for Active; 'I' for Inactive)
REMARK    1  A    between atoms: C_1  and  C_2
REMARK    2  A    between atoms: C_6  and  N_7
REMARK    3  A    between atoms: C_11  and  C_13
REMARK    4  A    between atoms: C_13  and  N_14
REMARK    5  A    between atoms: C_18  and  C_19
REMARK    6  A    between atoms: C_29  and  C_30
REMARK                            x       y       z     vdW  Elec       q    Type
REMARK                         _______ _______ _______ _____ _____    ______ ____
ROOT
ATOM      1  N   UNL     1       0.763   9.040  19.407  0.00  0.00    +0.000 N 
ATOM      2  C   UNL     1       1.789   8.751  18.545  0.00  0.00    +0.000 C 
ATOM      3  O   UNL     1       2.132   9.386  17.552  0.00  0.00    +0.000 OA
ATOM      4  N   UNL     1       2.462   7.576  18.824  0.00  0.00    +0.000 N 
ATOM      5  C   UNL     1       2.219   6.686  19.856  0.00  0.00    +0.000 C 
ATOM      6  O   UNL     1       1.469   6.945  20.798  0.00  0.00    +0.000 OA
ATOM      7  H   UNL     1       0.626   8.333  20.121  0.00  0.00    +0.000 HD
ATOM      8  H   UNL     1       3.153   7.360  18.122  0.00  0.00    +0.000 HD
ENDROOT
BRANCH   1  14
ATOM      9  C   UNL     1      -1.616  12.678  21.880  0.00  0.00    +0.000 C 
ATOM     10  C   UNL     1      -1.270  11.928  20.618  0.00  0.00    +0.000 A 
ATOM     11  C   UNL     1      -1.842  12.354  19.412  0.00  0.00    +0.000 A 
ATOM     12  C   UNL     1      -1.562  11.688  18.225  0.00  0.00    +0.000 A 
ATOM     13  C   UNL     1      -0.712  10.586  18.228  0.00  0.00    +0.000 A 
ATOM     14  C   UNL     1      -0.120  10.136  19.413  0.00  0.00    +0.000 A 
ATOM     15  C   UNL     1      -0.392  10.812  20.631  0.00  0.00    +0.000 A 
ATOM     16  C   UNL     1       0.180  10.382  21.965  0.00  0.00    +0.000 C 
ENDBRANCH   1  14
BRANCH   5  17
ATOM     17  C   UNL     1       2.971   5.361  19.737  0.00  0.00    +0.000 C 
BRANCH  17  18
ATOM     18  N   UNL     1       3.211   5.032  18.317  0.00  0.00    +0.000 NA
ATOM     19  C   UNL     1       2.012   4.450  17.701  0.00  0.00    +0.000 C 
ATOM     20  C   UNL     1       2.105   2.977  18.029  0.00  0.00    +0.000 C 
ATOM     21  C   UNL     1       3.588   2.691  17.863  0.00  0.00    +0.000 C 
ATOM     22  C   UNL     1       4.297   4.035  18.131  0.00  0.00    +0.000 C 
BRANCH  22  23
ATOM     23  C   UNL     1       5.284   4.385  17.020  0.00  0.00    +0.000 A 
ATOM     24  C   UNL     1       6.457   5.125  17.244  0.00  0.00    +0.000 A 
ATOM     25  C   UNL     1       7.333   5.425  16.194  0.00  0.00    +0.000 A 
ATOM     26  C   UNL     1       7.057   4.984  14.904  0.00  0.00    +0.000 A 
ATOM     27  C   UNL     1       5.916   4.216  14.667  0.00  0.00    +0.000 A 
ATOM     28  C   UNL     1       5.033   3.929  15.710  0.00  0.00    +0.000 A 
ATOM     29  O   UNL     1       5.593   3.714  13.430  0.00  0.00    +0.000 OA
ATOM     30  C   UNL     1       6.715   3.761  12.539  0.00  0.00    +0.000 C 
ATOM     31  C   UNL     1       7.410   5.110  12.617  0.00  0.00    +0.000 C 
ATOM     32  O   UNL     1       7.953   5.328  13.924  0.00  0.00    +0.000 OA
ENDBRANCH  22  23
ENDBRANCH  17  18
ENDBRANCH   5  17
TORSDOF 4
ENDMDL
MODEL 2
REMARK VINA RESULT:      -9.1      1.545      1.783
REMARK  Name = 
REMARK  6 active torsions:
REMARK  status: ('A' for Active; 'I' for Inactive)
REMARK    1  A    between atoms: C_1  and  C_2
REMARK    2  A    between atoms: C_6  and  N_7
REMARK    3  A    between atoms: C_11  and  C_13
REMARK    4  A    between atoms: C_13  and  N_14
REMARK    5  A    between atoms: C_18  and  C_19
REMARK    6  A    between atoms: C_29  and  C_30
REMARK                            x       y       z     vdW  Elec       q    Type
REMARK                         _______ _______ _______ _____ _____    ______ ____
ROOT
ATOM      1  N   UNL     1       1.551   9.572  19.254  0.00  0.00    +0.000 N 
ATOM      2  C   UNL     1       2.056   8.622  18.405  0.00  0.00    +0.000 C 
ATOM      3  O   UNL     1       2.365   8.763  17.225  0.00  0.00    +0.000 OA
ATOM      4  N   UNL     1       2.169   7.359  18.955  0.00  0.00    +0.000 N 
ATOM      5  C   UNL     1       1.840   6.963  20.240  0.00  0.00    +0.000 C 
ATOM      6  O   UNL     1       1.577   7.764  21.139  0.00  0.00    +0.000 OA
ATOM      7  H   UNL     1       1.308   9.207  20.169  0.00  0.00    +0.000 HD
ATOM      8  H   UNL     1       2.466   6.675  18.276  0.00  0.00    +0.000 HD
ENDROOT
BRANCH   1  14
ATOM      9  C   UNL     1      -1.323  13.620  19.866  0.00  0.00    +0.000 C 
ATOM     10  C   UNL     1      -0.093  12.924  19.338  0.00  0.00    +0.000 A 
ATOM     11  C   UNL     1       0.835  13.676  18.606  0.00  0.00    +0.000 A 
ATOM     12  C   UNL     1       1.978  13.077  18.090  0.00  0.00    +0.000 A 
ATOM     13  C   UNL     1       2.206  11.719  18.294  0.00  0.00    +0.000 A 
ATOM     14  C   UNL     1       1.302  10.939  19.024  0.00  0.00    +0.000 A 
ATOM     15  C   UNL     1       0.134  11.540  19.562  0.00  0.00    +0.000 A 
ATOM     16  C   UNL     1      -0.911  10.773  20.342  0.00  0.00    +0.000 C 
ENDBRANCH   1  14
BRANCH   5  17
ATOM     17  C   UNL     1       1.843   5.450  20.455  0.00  0.00    +0.000 C 
BRANCH  17  18
ATOM     18  N   UNL     1       2.411   4.765  19.276  0.00  0.00    +0.000 NA
ATOM     19  C   UNL     1       1.503   3.721  18.785  0.00  0.00    +0.000 C 
ATOM     20  C   UNL     1       1.847   2.508  19.620  0.00  0.00    +0.000 C 
ATOM     21  C   UNL     1       3.360   2.590  19.722  0.00  0.00    +0.000 C 
ATOM     22  C   UNL     1       3.701   4.087  19.570  0.00  0.00    +0.000 C 
BRANCH  22  23
ATOM     23  C   UNL     1       4.782   4.317  18.515  0.00  0.00    +0.000 A 
ATOM     24  C   UNL     1       6.093   4.707  18.836  0.00  0.00    +0.000 A 
ATOM     25  C   UNL     1       7.052   4.908  17.836  0.00  0.00    +0.000 A 
ATOM     26  C   UNL     1       6.720   4.715  16.500  0.00  0.00    +0.000 A 
ATOM     27  C   UNL     1       5.434   4.292  16.162  0.00  0.00    +0.000 A 
ATOM     28  C   UNL     1       4.471   4.106  17.157  0.00  0.00    +0.000 A 
ATOM     29  O   UNL     1       5.040   4.046  14.869  0.00  0.00    +0.000 OA
ATOM     30  C   UNL     1       6.168   3.923  13.995  0.00  0.00    +0.000 C 
ATOM     31  C   UNL     1       7.172   5.036  14.250  0.00  0.00    +0.000 C 
ATOM     32  O   UNL     1       7.706   4.945  15.575  0.00  0.00    +0.000 OA
ENDBRANCH  22  23
ENDBRANCH  17  18
ENDBRANCH   5  17
TORSDOF 4
ENDMDL
MODEL 3
REMARK VINA RESULT:      -9.0      0.643      1.471
REMARK  Name = 
REMARK  6 active torsions:
REMARK  status: ('A' for Active; 'I' for Inactive)
REMARK    1  A    between atoms: C_1  and  C_2
REMARK    2  A    between atoms: C_6  and  N_7
REMARK    3  A    between atoms: C_11  and  C_13
REMARK    4  A    between atoms: C_13  and  N_14
REMARK    5  A    between atoms: C_18  and  C_19
REMARK    6  A    between atoms: C_29  and  C_30
REMARK                            x       y       z     vdW  Elec       q    Type
REMARK                         _______ _______ _______ _____ _____    ______ ____
ROOT
ATOM      1  N   UNL     1       0.810   9.360  19.485  0.00  0.00    +0.000 N 
ATOM      2  C   UNL     1       1.753   8.975  18.568  0.00  0.00    +0.000 C 
ATOM      3  O   UNL     1       2.064   9.551  17.530  0.00  0.00    +0.000 OA
ATOM      4  N   UNL     1       2.368   7.769  18.847  0.00  0.00    +0.000 N 
ATOM      5  C   UNL     1       2.142   6.934  19.928  0.00  0.00    +0.000 C 
ATOM      6  O   UNL     1       1.478   7.274  20.908  0.00  0.00    +0.000 OA
ATOM      7  H   UNL     1       0.678   8.690  20.235  0.00  0.00    +0.000 HD
ATOM      8  H   UNL     1       2.993   7.483  18.109  0.00  0.00    +0.000 HD
ENDROOT
BRANCH   1  14
ATOM      9  C   UNL     1      -3.194  11.880  17.861  0.00  0.00    +0.000 C 
ATOM     10  C   UNL     1      -1.969  11.738  18.729  0.00  0.00    +0.000 A 
ATOM     11  C   UNL     1      -1.640  12.789  19.595  0.00  0.00    +0.000 A 
ATOM     12  C   UNL     1      -0.515  12.710  20.406  0.00  0.00    +0.000 A 
ATOM     13  C   UNL     1       0.300  11.582  20.359  0.00  0.00    +0.000 A 
ATOM     14  C   UNL     1       0.000  10.512  19.508  0.00  0.00    +0.000 A 
ATOM     15  C   UNL     1      -1.151  10.578  18.680  0.00  0.00    +0.000 A 
ATOM     16  C   UNL     1      -1.541   9.483  17.711  0.00  0.00    +0.000 C 
ENDBRANCH   1  14
BRANCH   5  17
ATOM     17  C   UNL     1       2.799   5.558  19.811  0.00  0.00    +0.000 C 
BRANCH  17  18
ATOM     18  N   UNL     1       3.061   5.233  18.394  0.00  0.00    +0.000 NA
ATOM     19  C   UNL     1       1.853   4.710  17.742  0.00  0.00    +0.000 C 
ATOM     20  C   UNL     1       1.874   3.231  18.055  0.00  0.00    +0.000 C 
ATOM     21  C   UNL     1       3.347   2.882  17.925  0.00  0.00    +0.000 C 
ATOM     22  C   UNL     1       4.106   4.191  18.225  0.00  0.00    +0.000 C 
BRANCH  22  23
ATOM     23  C   UNL     1       5.136   4.508  17.143  0.00  0.00    +0.000 A 
ATOM     24  C   UNL     1       6.313   5.232  17.396  0.00  0.00    +0.000 A 
ATOM     25  C   UNL     1       7.230   5.502  16.372  0.00  0.00    +0.000 A 
ATOM     26  C   UNL     1       6.989   5.046  15.080  0.00  0.00    +0.000 A 
ATOM     27  C   UNL     1       5.844   4.293  14.815  0.00  0.00    +0.000 A 
ATOM     28  C   UNL     1       4.921   4.037  15.832  0.00  0.00    +0.000 A 
ATOM     29  O   UNL     1       5.555   3.779  13.575  0.00  0.00    +0.000 OA
ATOM     30  C   UNL     1       6.707   3.793  12.723  0.00  0.00    +0.000 C 
ATOM     31  C   UNL     1       7.421   5.132  12.805  0.00  0.00    +0.000 C 
ATOM     32  O   UNL     1       7.924   5.360  14.127  0.00  0.00    +0.000 OA
ENDBRANCH  22  23
ENDBRANCH  17  18
ENDBRANCH   5  17
TORSDOF 4
ENDMDL
MODEL 4
REMARK VINA RESULT:      -8.9      1.075      1.102
REMARK  Name = 
REMARK  6 active torsions:
REMARK  status: ('A' for Active; 'I' for Inactive)
REMARK    1  A    between atoms: C_1  and  C_2
REMARK    2  A    between atoms: C_6  and  N_7
REMARK    3  A    between atoms: C_11  and  C_13
REMARK    4  A    between atoms: C_13  and  N_14
REMARK    5  A    between atoms: C_18  and  C_19
REMARK    6  A    between atoms: C_29  and  C_30
REMARK                            x       y       z     vdW  Elec       q    Type
REMARK                         _______ _______ _______ _____ _____    ______ ____
ROOT
ATOM      1  N   UNL     1       1.376   8.875  19.761  0.00  0.00    +0.000 N 
ATOM      2  C   UNL     1       2.113   8.222  18.806  0.00  0.00    +0.000 C 
ATOM      3  O   UNL     1       2.528   8.676  17.744  0.00  0.00    +0.000 OA
ATOM      4  N   UNL     1       2.355   6.889  19.078  0.00  0.00    +0.000 N 
ATOM      5  C   UNL     1       1.947   6.163  20.184  0.00  0.00    +0.000 C 
ATOM      6  O   UNL     1       1.465   6.689  21.188  0.00  0.00    +0.000 OA
ATOM      7  H   UNL     1       1.090   8.277  20.528  0.00  0.00    +0.000 HD
ATOM      8  H   UNL     1       2.828   6.427  18.316  0.00  0.00    +0.000 HD
ENDROOT
BRANCH   1  14
ATOM      9  C   UNL     1      -0.811  12.659  22.193  0.00  0.00    +0.000 C 
ATOM     10  C   UNL     1      -0.104  12.074  20.996  0.00  0.00    +0.000 A 
ATOM     11  C   UNL     1       0.144  12.904  19.896  0.00  0.00    +0.000 A 
ATOM     12  C   UNL     1       0.783  12.408  18.766  0.00  0.00    +0.000 A 
ATOM     13  C   UNL     1       1.177  11.073  18.719  0.00  0.00    +0.000 A 
ATOM     14  C   UNL     1       0.949  10.216  19.801  0.00  0.00    +0.000 A 
ATOM     15  C   UNL     1       0.304  10.713  20.963  0.00  0.00    +0.000 A 
ATOM     16  C   UNL     1      -0.008   9.856  22.171  0.00  0.00    +0.000 C 
ENDBRANCH   1  14
BRANCH   5  17
ATOM     17  C   UNL     1       2.157   4.654  20.062  0.00  0.00    +0.000 C 
BRANCH  17  18
ATOM     18  N   UNL     1       2.633   4.310  18.706  0.00  0.00    +0.000 NA
ATOM     19  C   UNL     1       1.633   3.514  17.983  0.00  0.00    +0.000 C 
ATOM     20  C   UNL     1       1.913   2.091  18.412  0.00  0.00    +0.000 C 
ATOM     21  C   UNL     1       3.431   2.046  18.451  0.00  0.00    +0.000 C 
ATOM     22  C   UNL     1       3.877   3.498  18.720  0.00  0.00    +0.000 C 
BRANCH  22  23
ATOM     23  C   UNL     1       4.936   3.959  17.721  0.00  0.00    +0.000 A 
ATOM     24  C   UNL     1       6.132   4.587  18.108  0.00  0.00    +0.000 A 
ATOM     25  C   UNL     1       7.075   4.995  17.157  0.00  0.00    +0.000 A 
ATOM     26  C   UNL     1       6.843   4.776  15.804  0.00  0.00    +0.000 A 
ATOM     27  C   UNL     1       5.679   4.121  15.399  0.00  0.00    +0.000 A 
ATOM     28  C   UNL     1       4.730   3.727  16.346  0.00  0.00    +0.000 A 
ATOM     29  O   UNL     1       5.394   3.836  14.086  0.00  0.00    +0.000 OA
ATOM     30  C   UNL     1       6.561   3.956  13.263  0.00  0.00    +0.000 C 
ATOM     31  C   UNL     1       7.318   5.235  13.583  0.00  0.00    +0.000 C 
ATOM     32  O   UNL     1       7.803   5.215  14.929  0.00  0.00    +0.000 OA
ENDBRANCH  22  23
ENDBRANCH  17  18
ENDBRANCH   5  17
TORSDOF 4
ENDMDL
MODEL 5
REMARK VINA RESULT:      -8.8      2.863     10.859
REMARK  Name = 
REMARK  6 active torsions:
REMARK  status: ('A' for Active; 'I' for Inactive)
REMARK    1  A    between atoms: C_1  and  C_2
REMARK    2  A    between atoms: C_6  and  N_7
REMARK    3  A    between atoms: C_11  and  C_13
REMARK    4  A    between atoms: C_13  and  N_14
REMARK    5  A    between atoms: C_18  and  C_19
REMARK    6  A    between atoms: C_29  and  C_30
REMARK                            x       y       z     vdW  Elec       q    Type
REMARK                         _______ _______ _______ _____ _____    ______ ____
ROOT
ATOM      1  N   UNL     1       2.331   7.060  18.287  0.00  0.00    +0.000 N 
ATOM      2  C   UNL     1       1.997   7.543  19.526  0.00  0.00    +0.000 C 
ATOM      3  O   UNL     1       1.944   6.918  20.582  0.00  0.00    +0.000 OA
ATOM      4  N   UNL     1       1.632   8.875  19.545  0.00  0.00    +0.000 N 
ATOM      5  C   UNL     1       1.575   9.753  18.476  0.00  0.00    +0.000 C 
ATOM      6  O   UNL     1       2.046   9.488  17.369  0.00  0.00    +0.000 OA
ATOM      7  H   UNL     1       2.242   7.748  17.549  0.00  0.00    +0.000 HD
ATOM      8  H   UNL     1       1.316   9.169  20.457  0.00  0.00    +0.000 HD
ENDROOT
BRANCH   1  14
ATOM      9  C   UNL     1       5.751   3.994  16.307  0.00  0.00    +0.000 C 
ATOM     10  C   UNL     1       4.418   4.262  16.959  0.00  0.00    +0.000 A 
ATOM     11  C   UNL     1       3.567   3.177  17.207  0.00  0.00    +0.000 A 
ATOM     12  C   UNL     1       2.324   3.375  17.795  0.00  0.00    +0.000 A 
ATOM     13  C   UNL     1       1.913   4.660  18.140  0.00  0.00    +0.000 A 
ATOM     14  C   UNL     1       2.738   5.766  17.910  0.00  0.00    +0.000 A 
ATOM     15  C   UNL     1       4.013   5.576  17.316  0.00  0.00    +0.000 A 
ATOM     16  C   UNL     1       4.963   6.713  17.007  0.00  0.00    +0.000 C 
ENDBRANCH   1  14
BRANCH   5  17
ATOM     17  C   UNL     1       0.891  11.084  18.786  0.00  0.00    +0.000 C 
BRANCH  17  18
ATOM     18  N   UNL     1      -0.462  10.851  19.333  0.00  0.00    +0.000 NA
ATOM     19  C   UNL     1      -1.275  10.055  18.405  0.00  0.00    +0.000 C 
ATOM     20  C   UNL     1      -1.864  11.076  17.459  0.00  0.00    +0.000 C 
ATOM     21  C   UNL     1      -2.196  12.235  18.384  0.00  0.00    +0.000 C 
ATOM     22  C   UNL     1      -1.214  12.111  19.566  0.00  0.00    +0.000 C 
BRANCH  22  23
ATOM     23  C   UNL     1      -1.938  12.167  20.911  0.00  0.00    +0.000 A 
ATOM     24  C   UNL     1      -1.355  11.729  22.112  0.00  0.00    +0.000 A 
ATOM     25  C   UNL     1      -2.056  11.797  23.322  0.00  0.00    +0.000 A 
ATOM     26  C   UNL     1      -3.348  12.312  23.354  0.00  0.00    +0.000 A 
ATOM     27  C   UNL     1      -3.931  12.786  22.178  0.00  0.00    +0.000 A 
ATOM     28  C   UNL     1      -3.239  12.704  20.968  0.00  0.00    +0.000 A 
ATOM     29  O   UNL     1      -5.188  13.340  22.134  0.00  0.00    +0.000 OA
ATOM     30  C   UNL     1      -5.647  13.694  23.445  0.00  0.00    +0.000 C 
ATOM     31  C   UNL     1      -5.383  12.568  24.431  0.00  0.00    +0.000 C 
ATOM     32  O   UNL     1      -3.978  12.334  24.571  0.00  0.00    +0.000 OA
ENDBRANCH  22  23
ENDBRANCH  17  18
ENDBRANCH   5  17
TORSDOF 4
ENDMDL
MODEL 6
REMARK VINA RESULT:      -8.5      4.995      8.362
REMARK  Name = 
REMARK  6 active torsions:
REMARK  status: ('A' for Active; 'I' for Inactive)
REMARK    1  A    between atoms: C_1  and  C_2
REMARK    2  A    between atoms: C_6  and  N_7
REMARK    3  A    between atoms: C_11  and  C_13
REMARK    4  A    between atoms: C_13  and  N_14
REMARK    5  A    between atoms: C_18  and  C_19
REMARK    6  A    between atoms: C_29  and  C_30
REMARK                            x       y       z     vdW  Elec       q    Type
REMARK                         _______ _______ _______ _____ _____    ______ ____
ROOT
ATOM      1  N   UNL     1       8.786   9.718  18.997  0.00  0.00    +0.000 N 
ATOM      2  C   UNL     1       8.061   9.807  17.837  0.00  0.00    +0.000 C 
ATOM      3  O   UNL     1       7.769  10.825  17.215  0.00  0.00    +0.000 OA
ATOM      4  N   UNL     1       7.572   8.602  17.369  0.00  0.00    +0.000 N 
ATOM      5  C   UNL     1       7.737   7.347  17.929  0.00  0.00    +0.000 C 
ATOM      6  O   UNL     1       8.531   7.123  18.843  0.00  0.00    +0.000 OA
ATOM      7  H   UNL     1       8.843   8.774  19.364  0.00  0.00    +0.000 HD
ATOM      8  H   UNL     1       6.979   8.722  16.562  0.00  0.00    +0.000 HD
ENDROOT
BRANCH   1  14
ATOM      9  C   UNL     1      12.318  13.233  19.417  0.00  0.00    +0.000 C 
ATOM     10  C   UNL     1      11.129  12.467  19.942  0.00  0.00    +0.000 A 
ATOM     11  C   UNL     1      10.632  12.795  21.209  0.00  0.00    +0.000 A 
ATOM     12  C   UNL     1       9.545  12.110  21.740  0.00  0.00    +0.000 A 
ATOM     13  C   UNL     1       8.945  11.085  21.012  0.00  0.00    +0.000 A 
ATOM     14  C   UNL     1       9.414  10.734  19.742  0.00  0.00    +0.000 A 
ATOM     15  C   UNL     1      10.519  11.431  19.186  0.00  0.00    +0.000 A 
ATOM     16  C   UNL     1      11.110  11.105  17.832  0.00  0.00    +0.000 C 
ENDBRANCH   1  14
BRANCH   5  17
ATOM     17  C   UNL     1       6.860   6.259  17.310  0.00  0.00    +0.000 C 
BRANCH  17  18
ATOM     18  N   UNL     1       5.692   5.988  18.173  0.00  0.00    +0.000 NA
ATOM     19  C   UNL     1       5.696   4.597  18.643  0.00  0.00    +0.000 C 
ATOM     20  C   UNL     1       5.018   3.828  17.531  0.00  0.00    +0.000 C 
ATOM     21  C   UNL     1       3.901   4.767  17.108  0.00  0.00    +0.000 C 
ATOM     22  C   UNL     1       4.397   6.182  17.468  0.00  0.00    +0.000 C 
BRANCH  22  23
ATOM     23  C   UNL     1       3.357   6.958  18.275  0.00  0.00    +0.000 A 
ATOM     24  C   UNL     1       2.868   6.517  19.516  0.00  0.00    +0.000 A 
ATOM     25  C   UNL     1       1.913   7.259  20.221  0.00  0.00    +0.000 A 
ATOM     26  C   UNL     1       1.436   8.459  19.701  0.00  0.00    +0.000 A 
ATOM     27  C   UNL     1       1.937   8.933  18.488  0.00  0.00    +0.000 A 
ATOM     28  C   UNL     1       2.878   8.185  17.776  0.00  0.00    +0.000 A 
ATOM     29  O   UNL     1       1.543  10.123  17.928  0.00  0.00    +0.000 OA
ATOM     30  C   UNL     1       0.869  10.952  18.884  0.00  0.00    +0.000 C 
ATOM     31  C   UNL     1      -0.152  10.146  19.671  0.00  0.00    +0.000 C 
ATOM     32  O   UNL     1       0.492   9.124  20.440  0.00  0.00    +0.000 OA
ENDBRANCH  22  23
ENDBRANCH  17  18
ENDBRANCH   5  17
TORSDOF 4
ENDMDL
MODEL 7
REMARK VINA RESULT:      -8.3      2.904     10.157
REMARK  Name = 
REMARK  6 active torsions:
REMARK  status: ('A' for Active; 'I' for Inactive)
REMARK    1  A    between atoms: C_1  and  C_2
REMARK    2  A    between atoms: C_6  and  N_7
REMARK    3  A    between atoms: C_11  and  C_13
REMARK    4  A    between atoms: C_13  and  N_14
REMARK    5  A    between atoms: C_18  and  C_19
REMARK    6  A    between atoms: C_29  and  C_30
REMARK                            x       y       z     vdW  Elec       q    Type
REMARK                         _______ _______ _______ _____ _____    ______ ____
ROOT
ATOM      1  N   UNL     1       2.452   7.194  18.790  0.00  0.00    +0.000 N 
ATOM      2  C   UNL     1       2.069   8.401  18.265  0.00  0.00    +0.000 C 
ATOM      3  O   UNL     1       2.247   8.807  17.120  0.00  0.00    +0.000 OA
ATOM      4  N   UNL     1       1.465   9.256  19.167  0.00  0.00    +0.000 N 
ATOM      5  C   UNL     1       1.207   9.027  20.507  0.00  0.00    +0.000 C 
ATOM      6  O   UNL     1       1.316   7.917  21.029  0.00  0.00    +0.000 OA
ATOM      7  H   UNL     1       2.255   7.105  19.782  0.00  0.00    +0.000 HD
ATOM      8  H   UNL     1       1.274  10.160  18.762  0.00  0.00    +0.000 HD
ENDROOT
BRANCH   1  14
ATOM      9  C   UNL     1       2.708   2.296  17.808  0.00  0.00    +0.000 C 
ATOM     10  C   UNL     1       3.206   3.713  17.668  0.00  0.00    +0.000 A 
ATOM     11  C   UNL     1       4.336   3.946  16.874  0.00  0.00    +0.000 A 
ATOM     12  C   UNL     1       4.840   5.233  16.723  0.00  0.00    +0.000 A 
ATOM     13  C   UNL     1       4.223   6.302  17.367  0.00  0.00    +0.000 A 
ATOM     14  C   UNL     1       3.090   6.106  18.165  0.00  0.00    +0.000 A 
ATOM     15  C   UNL     1       2.562   4.797  18.321  0.00  0.00    +0.000 A 
ATOM     16  C   UNL     1       1.358   4.485  19.183  0.00  0.00    +0.000 C 
ENDBRANCH   1  14
BRANCH   5  17
ATOM     17  C   UNL     1       0.760  10.265  21.284  0.00  0.00    +0.000 C 
BRANCH  17  18
ATOM     18  N   UNL     1       0.121  11.239  20.375  0.00  0.00    +0.000 NA
ATOM     19  C   UNL     1       0.937  12.454  20.248  0.00  0.00    +0.000 C 
ATOM     20  C   UNL     1       0.511  13.310  21.419  0.00  0.00    +0.000 C 
ATOM     21  C   UNL     1      -0.990  13.080  21.474  0.00  0.00    +0.000 C 
ATOM     22  C   UNL     1      -1.213  11.685  20.854  0.00  0.00    +0.000 C 
BRANCH  22  23
ATOM     23  C   UNL     1      -2.288  11.714  19.770  0.00  0.00    +0.000 A 
ATOM     24  C   UNL     1      -2.101  11.162  18.491  0.00  0.00    +0.000 A 
ATOM     25  C   UNL     1      -3.114  11.212  17.526  0.00  0.00    +0.000 A 
ATOM     26  C   UNL     1      -4.335  11.808  17.825  0.00  0.00    +0.000 A 
ATOM     27  C   UNL     1      -4.555  12.330  19.100  0.00  0.00    +0.000 A 
ATOM     28  C   UNL     1      -3.539  12.295  20.059  0.00  0.00    +0.000 A 
ATOM     29  O   UNL     1      -5.744  12.903  19.482  0.00  0.00    +0.000 OA
ATOM     30  C   UNL     1      -6.798  12.572  18.570  0.00  0.00    +0.000 C 
ATOM     31  C   UNL     1      -6.339  12.742  17.131  0.00  0.00    +0.000 C 
ATOM     32  O   UNL     1      -5.274  11.834  16.826  0.00  0.00    +0.000 OA
ENDBRANCH  22  23
ENDBRANCH  17  18
ENDBRANCH   5  17
TORSDOF 4
ENDMDL
MODEL 8
REMARK VINA RESULT:      -8.3      1.154      1.833
REMARK  Name = 
REMARK  6 active torsions:
REMARK  status: ('A' for Active; 'I' for Inactive)
REMARK    1  A    between atoms: C_1  and  C_2
REMARK    2  A    between atoms: C_6  and  N_7
REMARK    3  A    between atoms: C_11  and  C_13
REMARK    4  A    between atoms: C_13  and  N_14
REMARK    5  A    between atoms: C_18  and  C_19
REMARK    6  A    between atoms: C_29  and  C_30
REMARK                            x       y       z     vdW  Elec       q    Type
REMARK                         _______ _______ _______ _____ _____    ______ ____
ROOT
ATOM      1  N   UNL     1       1.164   9.468  20.131  0.00  0.00    +0.000 N 
ATOM      2  C   UNL     1       1.227   8.566  21.161  0.00  0.00    +0.000 C 
ATOM      3  O   UNL     1       0.894   8.742  22.330  0.00  0.00    +0.000 OA
ATOM      4  N   UNL     1       1.782   7.346  20.825  0.00  0.00    +0.000 N 
ATOM      5  C   UNL     1       2.264   6.946  19.590  0.00  0.00    +0.000 C 
ATOM      6  O   UNL     1       2.071   7.590  18.558  0.00  0.00    +0.000 OA
ATOM      7  H   UNL     1       1.557   9.118  19.264  0.00  0.00    +0.000 HD
ATOM      8  H   UNL     1       1.884   6.742  21.627  0.00  0.00    +0.000 HD
ENDROOT
BRANCH   1  14
ATOM      9  C   UNL     1      -2.397  12.759  18.906  0.00  0.00    +0.000 C 
ATOM     10  C   UNL     1      -1.079  12.395  19.542  0.00  0.00    +0.000 A 
ATOM     11  C   UNL     1      -0.332  13.409  20.156  0.00  0.00    +0.000 A 
ATOM     12  C   UNL     1       0.894  13.124  20.745  0.00  0.00    +0.000 A 
ATOM     13  C   UNL     1       1.392  11.824  20.724  0.00  0.00    +0.000 A 
ATOM     14  C   UNL     1       0.671  10.786  20.123  0.00  0.00    +0.000 A 
ATOM     15  C   UNL     1      -0.586  11.063  19.524  0.00  0.00    +0.000 A 
ATOM     16  C   UNL     1      -1.424  10.012  18.829  0.00  0.00    +0.000 C 
ENDBRANCH   1  14
BRANCH   5  17
ATOM     17  C   UNL     1       3.043   5.632  19.612  0.00  0.00    +0.000 C 
BRANCH  17  18
ATOM     18  N   UNL     1       3.299   5.164  18.234  0.00  0.00    +0.000 NA
ATOM     19  C   UNL     1       2.143   4.431  17.703  0.00  0.00    +0.000 C 
ATOM     20  C   UNL     1       2.346   3.015  18.191  0.00  0.00    +0.000 C 
ATOM     21  C   UNL     1       3.845   2.820  18.039  0.00  0.00    +0.000 C 
ATOM     22  C   UNL     1       4.454   4.233  18.146  0.00  0.00    +0.000 C 
BRANCH  22  23
ATOM     23  C   UNL     1       5.407   4.527  16.989  0.00  0.00    +0.000 A 
ATOM     24  C   UNL     1       6.603   5.247  17.147  0.00  0.00    +0.000 A 
ATOM     25  C   UNL     1       7.447   5.495  16.058  0.00  0.00    +0.000 A 
ATOM     26  C   UNL     1       7.114   5.021  14.794  0.00  0.00    +0.000 A 
ATOM     27  C   UNL     1       5.950   4.271  14.621  0.00  0.00    +0.000 A 
ATOM     28  C   UNL     1       5.099   4.037  15.705  0.00  0.00    +0.000 A 
ATOM     29  O   UNL     1       5.571   3.739  13.413  0.00  0.00    +0.000 OA
ATOM     30  C   UNL     1       6.661   3.733  12.482  0.00  0.00    +0.000 C 
ATOM     31  C   UNL     1       7.386   5.069  12.493  0.00  0.00    +0.000 C 
ATOM     32  O   UNL     1       7.981   5.314  13.772  0.00  0.00    +0.000 OA
ENDBRANCH  22  23
ENDBRANCH  17  18
ENDBRANCH   5  17
TORSDOF 4
ENDMDL
MODEL 9
REMARK VINA RESULT:      -8.3      1.347      2.145
REMARK  Name = 
REMARK  6 active torsions:
REMARK  status: ('A' for Active; 'I' for Inactive)
REMARK    1  A    between atoms: C_1  and  C_2
REMARK    2  A    between atoms: C_6  and  N_7
REMARK    3  A    between atoms: C_11  and  C_13
REMARK    4  A    between atoms: C_13  and  N_14
REMARK    5  A    between atoms: C_18  and  C_19
REMARK    6  A    between atoms: C_29  and  C_30
REMARK                            x       y       z     vdW  Elec       q    Type
REMARK                         _______ _______ _______ _____ _____    ______ ____
ROOT
ATOM      1  N   UNL     1       0.702   9.516  20.827  0.00  0.00    +0.000 N 
ATOM      2  C   UNL     1       0.218   8.357  21.375  0.00  0.00    +0.000 C 
ATOM      3  O   UNL     1      -0.671   8.242  22.214  0.00  0.00    +0.000 OA
ATOM      4  N   UNL     1       0.861   7.209  20.954  0.00  0.00    +0.000 N 
ATOM      5  C   UNL     1       1.910   7.106  20.056  0.00  0.00    +0.000 C 
ATOM      6  O   UNL     1       2.283   8.047  19.354  0.00  0.00    +0.000 OA
ATOM      7  H   UNL     1       1.486   9.369  20.200  0.00  0.00    +0.000 HD
ATOM      8  H   UNL     1       0.530   6.389  21.440  0.00  0.00    +0.000 HD
ENDROOT
BRANCH   1  14
ATOM      9  C   UNL     1       0.329  14.241  19.231  0.00  0.00    +0.000 C 
ATOM     10  C   UNL     1       0.091  13.155  20.249  0.00  0.00    +0.000 A 
ATOM     11  C   UNL     1      -0.577  13.487  21.435  0.00  0.00    +0.000 A 
ATOM     12  C   UNL     1      -0.810  12.522  22.407  0.00  0.00    +0.000 A 
ATOM     13  C   UNL     1      -0.375  11.214  22.210  0.00  0.00    +0.000 A 
ATOM     14  C   UNL     1       0.291  10.847  21.036  0.00  0.00    +0.000 A 
ATOM     15  C   UNL     1       0.529  11.821  20.031  0.00  0.00    +0.000 A 
ATOM     16  C   UNL     1       1.263  11.523  18.742  0.00  0.00    +0.000 C 
ENDBRANCH   1  14
BRANCH   5  17
ATOM     17  C   UNL     1       2.559   5.724  19.999  0.00  0.00    +0.000 C 
BRANCH  17  18
ATOM     18  N   UNL     1       2.869   5.359  18.601  0.00  0.00    +0.000 NA
ATOM     19  C   UNL     1       1.672   4.864  17.909  0.00  0.00    +0.000 C 
ATOM     20  C   UNL     1       1.628   3.392  18.253  0.00  0.00    +0.000 C 
ATOM     21  C   UNL     1       3.092   2.991  18.192  0.00  0.00    +0.000 C 
ATOM     22  C   UNL     1       3.883   4.279  18.498  0.00  0.00    +0.000 C 
BRANCH  22  23
ATOM     23  C   UNL     1       4.968   4.538  17.454  0.00  0.00    +0.000 A 
ATOM     24  C   UNL     1       6.207   5.122  17.767  0.00  0.00    +0.000 A 
ATOM     25  C   UNL     1       7.172   5.343  16.777  0.00  0.00    +0.000 A 
ATOM     26  C   UNL     1       6.919   4.976  15.459  0.00  0.00    +0.000 A 
ATOM     27  C   UNL     1       5.710   4.361  15.133  0.00  0.00    +0.000 A 
ATOM     28  C   UNL     1       4.740   4.155  16.117  0.00  0.00    +0.000 A 
ATOM     29  O   UNL     1       5.401   3.938  13.864  0.00  0.00    +0.000 OA
ATOM     30  C   UNL     1       6.569   3.873  13.037  0.00  0.00    +0.000 C 
ATOM     31  C   UNL     1       7.416   5.125  13.201  0.00  0.00    +0.000 C 
ATOM     32  O   UNL     1       7.905   5.236  14.542  0.00  0.00    +0.000 OA
ENDBRANCH  22  23
ENDBRANCH  17  18
ENDBRANCH   5  17
TORSDOF 4
ENDMDL
