MODEL 1
REMARK VINA RESULT:      -8.0      0.000      0.000
REMARK  Name = 
REMARK  5 active torsions:
REMARK  status: ('A' for Active; 'I' for Inactive)
REMARK    1  A    between atoms: C_2  and  C_13
REMARK    2  A    between atoms: N_3  and  C_4
REMARK    3  A    between atoms: C_4  and  C_5
REMARK    4  A    between atoms: N_9  and  C_10
REMARK    5  A    between atoms: C_13  and  C_14
REMARK                            x       y       z     vdW  Elec       q    Type
REMARK                         _______ _______ _______ _____ _____    ______ ____
ROOT
ATOM      1  O   UNL     1       3.172   7.674  17.307  0.00  0.00    +0.000 OA
ATOM      2  C   UNL     1       2.574   7.181  18.262  0.00  0.00    +0.000 C 
ATOM      3  N   UNL     1       1.746   7.952  19.052  0.00  0.00    +0.000 N 
ATOM      4  H   UNL     1       1.447   7.620  19.961  0.00  0.00    +0.000 HD
ENDROOT
BRANCH   2   5
ATOM      5  C   UNL     1       2.732   5.684  18.677  0.00  0.00    +0.000 C 
ATOM      6  C   UNL     1       1.693   4.861  17.847  0.00  0.00    +0.000 C 
ATOM      7  C   UNL     1       1.585   3.401  18.286  0.00  0.00    +0.000 C 
ATOM      8  C   UNL     1       1.181   3.292  19.749  0.00  0.00    +0.000 C 
ATOM      9  C   UNL     1       2.099   4.095  20.656  0.00  0.00    +0.000 C 
ATOM     10  C   UNL     1       2.317   5.535  20.174  0.00  0.00    +0.000 C 
BRANCH   5  11
ATOM     11  C   UNL     1       4.160   5.209  18.325  0.00  0.00    +0.000 A 
ATOM     12  C   UNL     1       5.220   5.450  19.224  0.00  0.00    +0.000 A 
ATOM     13  C   UNL     1       6.551   5.154  18.893  0.00  0.00    +0.000 A 
ATOM     14  C   UNL     1       6.848   4.606  17.651  0.00  0.00    +0.000 A 
ATOM     15  C   UNL     1       5.814   4.316  16.779  0.00  0.00    +0.000 A 
ATOM     16  F   UNL     1       6.092   3.795  15.576  0.00  0.00    +0.000 F 
ATOM     17  C   UNL     1       4.486   4.582  17.111  0.00  0.00    +0.000 A 
ENDBRANCH   5  11
ENDBRANCH   2   5
BRANCH   3  18
ATOM     18  C   UNL     1       1.579   9.359  18.773  0.00  0.00    +0.000 C 
BRANCH  18  19
ATOM     19  C   UNL     1       0.737   9.988  19.825  0.00  0.00    +0.000 A 
ATOM     20  N   UNL     1       0.941   9.940  21.132  0.00  0.00    +0.000 NA
ATOM     21  N   UNL     1      -0.035  10.688  21.750  0.00  0.00    +0.000 NA
ATOM     22  C   UNL     1      -0.817  11.178  20.812  0.00  0.00    +0.000 A 
ATOM     23  N   UNL     1      -0.381  10.752  19.595  0.00  0.00    +0.000 N 
BRANCH  23  24
ATOM     24  C   UNL     1      -0.979  11.054  18.313  0.00  0.00    +0.000 C 
ATOM     25  C   UNL     1      -2.445  11.422  18.166  0.00  0.00    +0.000 C 
ATOM     26  C   UNL     1      -1.970  10.110  17.649  0.00  0.00    +0.000 C 
ENDBRANCH  23  24
ENDBRANCH  18  19
ENDBRANCH   3  18
TORSDOF 5
ENDMDL
MODEL 2
REMARK VINA RESULT:      -8.0      2.104      2.994
REMARK  Name = 
REMARK  5 active torsions:
REMARK  status: ('A' for Active; 'I' for Inactive)
REMARK    1  A    between atoms: C_2  and  C_13
REMARK    2  A    between atoms: N_3  and  C_4
REMARK    3  A    between atoms: C_4  and  C_5
REMARK    4  A    between atoms: N_9  and  C_10
REMARK    5  A    between atoms: C_13  and  C_14
REMARK                            x       y       z     vdW  Elec       q    Type
REMARK                         _______ _______ _______ _____ _____    ______ ____
ROOT
ATOM      1  O   UNL     1       2.271   4.986  21.444  0.00  0.00    +0.000 OA
ATOM      2  C   UNL     1       2.568   5.447  20.343  0.00  0.00    +0.000 C 
ATOM      3  N   UNL     1       2.326   6.772  20.043  0.00  0.00    +0.000 N 
ATOM      4  H   UNL     1       2.343   7.093  19.083  0.00  0.00    +0.000 HD
ENDROOT
BRANCH   2   5
ATOM      5  C   UNL     1       3.189   4.580  19.203  0.00  0.00    +0.000 C 
ATOM      6  C   UNL     1       2.104   4.439  18.085  0.00  0.00    +0.000 C 
ATOM      7  C   UNL     1       2.489   3.448  16.988  0.00  0.00    +0.000 C 
ATOM      8  C   UNL     1       2.732   2.058  17.558  0.00  0.00    +0.000 C 
ATOM      9  C   UNL     1       3.743   2.075  18.692  0.00  0.00    +0.000 C 
ATOM     10  C   UNL     1       3.444   3.142  19.754  0.00  0.00    +0.000 C 
BRANCH   5  11
ATOM     11  C   UNL     1       4.424   5.308  18.629  0.00  0.00    +0.000 A 
ATOM     12  C   UNL     1       4.299   6.081  17.456  0.00  0.00    +0.000 A 
ATOM     13  C   UNL     1       5.415   6.653  16.825  0.00  0.00    +0.000 A 
ATOM     14  C   UNL     1       6.682   6.465  17.361  0.00  0.00    +0.000 A 
ATOM     15  C   UNL     1       6.816   5.752  18.539  0.00  0.00    +0.000 A 
ATOM     16  F   UNL     1       8.036   5.559  19.058  0.00  0.00    +0.000 F 
ATOM     17  C   UNL     1       5.709   5.203  19.186  0.00  0.00    +0.000 A 
ENDBRANCH   5  11
ENDBRANCH   2   5
BRANCH   3  18
ATOM     18  C   UNL     1       1.707   7.638  21.020  0.00  0.00    +0.000 C 
BRANCH  18  19
ATOM     19  C   UNL     1       1.048   8.783  20.337  0.00  0.00    +0.000 A 
ATOM     20  N   UNL     1       1.341   9.260  19.138  0.00  0.00    +0.000 NA
ATOM     21  N   UNL     1       0.470  10.287  18.856  0.00  0.00    +0.000 NA
ATOM     22  C   UNL     1      -0.338  10.420  19.886  0.00  0.00    +0.000 A 
ATOM     23  N   UNL     1      -0.001   9.510  20.842  0.00  0.00    +0.000 N 
BRANCH  23  24
ATOM     24  C   UNL     1      -0.634   9.344  22.131  0.00  0.00    +0.000 C 
ATOM     25  C   UNL     1      -0.974  10.521  23.028  0.00  0.00    +0.000 C 
ATOM     26  C   UNL     1       0.117   9.593  23.430  0.00  0.00    +0.000 C 
ENDBRANCH  23  24
ENDBRANCH  18  19
ENDBRANCH   3  18
TORSDOF 5
ENDMDL
MODEL 3
REMARK VINA RESULT:      -7.9      1.174      1.387
REMARK  Name = 
REMARK  5 active torsions:
REMARK  status: ('A' for Active; 'I' for Inactive)
REMARK    1  A    between atoms: C_2  and  C_13
REMARK    2  A    between atoms: N_3  and  C_4
REMARK    3  A    between atoms: C_4  and  C_5
REMARK    4  A    between atoms: N_9  and  C_10
REMARK    5  A    between atoms: C_13  and  C_14
REMARK                            x       y       z     vdW  Elec       q    Type
REMARK                         _______ _______ _______ _____ _____    ______ ____
ROOT
ATOM      1  O   UNL     1       2.296   7.343  17.986  0.00  0.00    +0.000 OA
ATOM      2  C   UNL     1       2.254   6.785  19.081  0.00  0.00    +0.000 C 
ATOM      3  N   UNL     1       1.969   7.497  20.228  0.00  0.00    +0.000 N 
ATOM      4  H   UNL     1       2.166   7.104  21.140  0.00  0.00    +0.000 HD
ENDROOT
BRANCH   2   5
ATOM      5  C   UNL     1       2.557   5.264  19.267  0.00  0.00    +0.000 C 
ATOM      6  C   UNL     1       1.436   4.474  18.515  0.00  0.00    +0.000 C 
ATOM      7  C   UNL     1       1.478   2.968  18.771  0.00  0.00    +0.000 C 
ATOM      8  C   UNL     1       1.333   2.655  20.253  0.00  0.00    +0.000 C 
ATOM      9  C   UNL     1       2.349   3.408  21.097  0.00  0.00    +0.000 C 
ATOM     10  C   UNL     1       2.409   4.907  20.779  0.00  0.00    +0.000 C 
BRANCH   5  11
ATOM     11  C   UNL     1       3.927   4.939  18.631  0.00  0.00    +0.000 A 
ATOM     12  C   UNL     1       5.114   5.237  19.332  0.00  0.00    +0.000 A 
ATOM     13  C   UNL     1       6.378   5.080  18.744  0.00  0.00    +0.000 A 
ATOM     14  C   UNL     1       6.480   4.616  17.439  0.00  0.00    +0.000 A 
ATOM     15  C   UNL     1       5.328   4.271  16.755  0.00  0.00    +0.000 A 
ATOM     16  F   UNL     1       5.417   3.831  15.493  0.00  0.00    +0.000 F 
ATOM     17  C   UNL     1       4.069   4.398  17.342  0.00  0.00    +0.000 A 
ENDBRANCH   5  11
ENDBRANCH   2   5
BRANCH   3  18
ATOM     18  C   UNL     1       1.726   8.920  20.158  0.00  0.00    +0.000 C 
BRANCH  18  19
ATOM     19  C   UNL     1       0.980   9.366  21.364  0.00  0.00    +0.000 A 
ATOM     20  N   UNL     1       1.308   9.134  22.626  0.00  0.00    +0.000 NA
ATOM     21  N   UNL     1       0.386   9.759  23.434  0.00  0.00    +0.000 NA
ATOM     22  C   UNL     1      -0.488  10.359  22.655  0.00  0.00    +0.000 A 
ATOM     23  N   UNL     1      -0.164  10.126  21.353  0.00  0.00    +0.000 N 
BRANCH  23  24
ATOM     24  C   UNL     1      -0.884  10.596  20.190  0.00  0.00    +0.000 C 
ATOM     25  C   UNL     1      -0.382  11.744  19.331  0.00  0.00    +0.000 C 
ATOM     26  C   UNL     1      -1.590  11.943  20.177  0.00  0.00    +0.000 C 
ENDBRANCH  23  24
ENDBRANCH  18  19
ENDBRANCH   3  18
TORSDOF 5
ENDMDL
MODEL 4
REMARK VINA RESULT:      -7.8      1.171      1.329
REMARK  Name = 
REMARK  5 active torsions:
REMARK  status: ('A' for Active; 'I' for Inactive)
REMARK    1  A    between atoms: C_2  and  C_13
REMARK    2  A    between atoms: N_3  and  C_4
REMARK    3  A    between atoms: C_4  and  C_5
REMARK    4  A    between atoms: N_9  and  C_10
REMARK    5  A    between atoms: C_13  and  C_14
REMARK                            x       y       z     vdW  Elec       q    Type
REMARK                         _______ _______ _______ _____ _____    ______ ____
ROOT
ATOM      1  O   UNL     1       4.099   7.404  17.463  0.00  0.00    +0.000 OA
ATOM      2  C   UNL     1       3.314   6.652  18.040  0.00  0.00    +0.000 C 
ATOM      3  N   UNL     1       2.173   7.145  18.637  0.00  0.00    +0.000 N 
ATOM      4  H   UNL     1       1.658   6.584  19.305  0.00  0.00    +0.000 HD
ENDROOT
BRANCH   2   5
ATOM      5  C   UNL     1       3.562   5.117  18.179  0.00  0.00    +0.000 C 
ATOM      6  C   UNL     1       2.300   4.391  17.608  0.00  0.00    +0.000 C 
ATOM      7  C   UNL     1       2.302   2.883  17.857  0.00  0.00    +0.000 C 
ATOM      8  C   UNL     1       2.369   2.568  19.344  0.00  0.00    +0.000 C 
ATOM      9  C   UNL     1       3.539   3.261  20.022  0.00  0.00    +0.000 C 
ATOM     10  C   UNL     1       3.628   4.757  19.696  0.00  0.00    +0.000 C 
BRANCH   5  11
ATOM     11  C   UNL     1       4.800   4.725  17.341  0.00  0.00    +0.000 A 
ATOM     12  C   UNL     1       6.085   4.782  17.921  0.00  0.00    +0.000 A 
ATOM     13  C   UNL     1       7.246   4.562  17.166  0.00  0.00    +0.000 A 
ATOM     14  C   UNL     1       7.145   4.276  15.810  0.00  0.00    +0.000 A 
ATOM     15  C   UNL     1       5.890   4.166  15.238  0.00  0.00    +0.000 A 
ATOM     16  F   UNL     1       5.782   3.899  13.929  0.00  0.00    +0.000 F 
ATOM     17  C   UNL     1       4.729   4.357  15.988  0.00  0.00    +0.000 A 
ENDBRANCH   5  11
ENDBRANCH   2   5
BRANCH   3  18
ATOM     18  C   UNL     1       1.888   8.561  18.603  0.00  0.00    +0.000 C 
BRANCH  18  19
ATOM     19  C   UNL     1       1.156   8.961  19.834  0.00  0.00    +0.000 A 
ATOM     20  N   UNL     1       1.368   8.507  21.060  0.00  0.00    +0.000 NA
ATOM     21  N   UNL     1       0.517   9.164  21.917  0.00  0.00    +0.000 NA
ATOM     22  C   UNL     1      -0.200  10.005  21.203  0.00  0.00    +0.000 A 
ATOM     23  N   UNL     1       0.156   9.899  19.893  0.00  0.00    +0.000 N 
BRANCH  23  24
ATOM     24  C   UNL     1      -0.409  10.640  18.786  0.00  0.00    +0.000 C 
ATOM     25  C   UNL     1      -1.673  11.469  18.924  0.00  0.00    +0.000 C 
ATOM     26  C   UNL     1      -1.710  10.217  18.122  0.00  0.00    +0.000 C 
ENDBRANCH  23  24
ENDBRANCH  18  19
ENDBRANCH   3  18
TORSDOF 5
ENDMDL
MODEL 5
REMARK VINA RESULT:      -7.8      1.266      1.602
REMARK  Name = 
REMARK  5 active torsions:
REMARK  status: ('A' for Active; 'I' for Inactive)
REMARK    1  A    between atoms: C_2  and  C_13
REMARK    2  A    between atoms: N_3  and  C_4
REMARK    3  A    between atoms: C_4  and  C_5
REMARK    4  A    between atoms: N_9  and  C_10
REMARK    5  A    between atoms: C_13  and  C_14
REMARK                            x       y       z     vdW  Elec       q    Type
REMARK                         _______ _______ _______ _____ _____    ______ ____
ROOT
ATOM      1  O   UNL     1       3.276   7.632  17.447  0.00  0.00    +0.000 OA
ATOM      2  C   UNL     1       2.842   6.934  18.363  0.00  0.00    +0.000 C 
ATOM      3  N   UNL     1       2.024   7.472  19.335  0.00  0.00    +0.000 N 
ATOM      4  H   UNL     1       1.865   6.977  20.204  0.00  0.00    +0.000 HD
ENDROOT
BRANCH   2   5
ATOM      5  C   UNL     1       3.210   5.425  18.522  0.00  0.00    +0.000 C 
ATOM      6  C   UNL     1       2.164   4.604  17.698  0.00  0.00    +0.000 C 
ATOM      7  C   UNL     1       2.268   3.096  17.916  0.00  0.00    +0.000 C 
ATOM      8  C   UNL     1       2.071   2.734  19.381  0.00  0.00    +0.000 C 
ATOM      9  C   UNL     1       3.010   3.509  20.291  0.00  0.00    +0.000 C 
ATOM     10  C   UNL     1       3.011   5.018  20.016  0.00  0.00    +0.000 C 
BRANCH   5  11
ATOM     11  C   UNL     1       4.621   5.183  17.942  0.00  0.00    +0.000 A 
ATOM     12  C   UNL     1       4.764   4.653  16.643  0.00  0.00    +0.000 A 
ATOM     13  C   UNL     1       6.017   4.296  16.124  0.00  0.00    +0.000 A 
ATOM     14  C   UNL     1       7.159   4.467  16.897  0.00  0.00    +0.000 A 
ATOM     15  C   UNL     1       7.042   5.034  18.154  0.00  0.00    +0.000 A 
ATOM     16  F   UNL     1       8.137   5.194  18.909  0.00  0.00    +0.000 F 
ATOM     17  C   UNL     1       5.802   5.416  18.666  0.00  0.00    +0.000 A 
ENDBRANCH   5  11
ENDBRANCH   2   5
BRANCH   3  18
ATOM     18  C   UNL     1       1.673   8.873  19.297  0.00  0.00    +0.000 C 
BRANCH  18  19
ATOM     19  C   UNL     1       0.933   9.243  20.532  0.00  0.00    +0.000 A 
ATOM     20  N   UNL     1       1.077   8.701  21.731  0.00  0.00    +0.000 NA
ATOM     21  N   UNL     1       0.245   9.360  22.606  0.00  0.00    +0.000 NA
ATOM     22  C   UNL     1      -0.393  10.290  21.929  0.00  0.00    +0.000 A 
ATOM     23  N   UNL     1      -0.005  10.242  20.624  0.00  0.00    +0.000 N 
BRANCH  23  24
ATOM     24  C   UNL     1      -0.486  11.086  19.553  0.00  0.00    +0.000 C 
ATOM     25  C   UNL     1      -1.819  11.811  19.624  0.00  0.00    +0.000 C 
ATOM     26  C   UNL     1      -1.658  10.676  18.676  0.00  0.00    +0.000 C 
ENDBRANCH  23  24
ENDBRANCH  18  19
ENDBRANCH   3  18
TORSDOF 5
ENDMDL
MODEL 6
REMARK VINA RESULT:      -7.7      0.962      2.016
REMARK  Name = 
REMARK  5 active torsions:
REMARK  status: ('A' for Active; 'I' for Inactive)
REMARK    1  A    between atoms: C_2  and  C_13
REMARK    2  A    between atoms: N_3  and  C_4
REMARK    3  A    between atoms: C_4  and  C_5
REMARK    4  A    between atoms: N_9  and  C_10
REMARK    5  A    between atoms: C_13  and  C_14
REMARK                            x       y       z     vdW  Elec       q    Type
REMARK                         _______ _______ _______ _____ _____    ______ ____
ROOT
ATOM      1  O   UNL     1       3.433   7.703  17.156  0.00  0.00    +0.000 OA
ATOM      2  C   UNL     1       2.751   7.274  18.086  0.00  0.00    +0.000 C 
ATOM      3  N   UNL     1       1.876   8.099  18.761  0.00  0.00    +0.000 N 
ATOM      4  H   UNL     1       1.499   7.824  19.660  0.00  0.00    +0.000 HD
ENDROOT
BRANCH   2   5
ATOM      5  C   UNL     1       2.850   5.801  18.596  0.00  0.00    +0.000 C 
ATOM      6  C   UNL     1       1.784   4.967  17.813  0.00  0.00    +0.000 C 
ATOM      7  C   UNL     1       1.617   3.544  18.342  0.00  0.00    +0.000 C 
ATOM      8  C   UNL     1       1.202   3.543  19.806  0.00  0.00    +0.000 C 
ATOM      9  C   UNL     1       2.146   4.367  20.667  0.00  0.00    +0.000 C 
ATOM     10  C   UNL     1       2.422   5.764  20.097  0.00  0.00    +0.000 C 
BRANCH   5  11
ATOM     11  C   UNL     1       4.259   5.251  18.286  0.00  0.00    +0.000 A 
ATOM     12  C   UNL     1       5.314   5.470  19.196  0.00  0.00    +0.000 A 
ATOM     13  C   UNL     1       6.635   5.104  18.899  0.00  0.00    +0.000 A 
ATOM     14  C   UNL     1       6.928   4.504  17.681  0.00  0.00    +0.000 A 
ATOM     15  C   UNL     1       5.897   4.236  16.798  0.00  0.00    +0.000 A 
ATOM     16  F   UNL     1       6.171   3.665  15.617  0.00  0.00    +0.000 F 
ATOM     17  C   UNL     1       4.577   4.572  17.097  0.00  0.00    +0.000 A 
ENDBRANCH   5  11
ENDBRANCH   2   5
BRANCH   3  18
ATOM     18  C   UNL     1       1.756   9.490  18.391  0.00  0.00    +0.000 C 
BRANCH  18  19
ATOM     19  C   UNL     1       0.388   9.982  18.702  0.00  0.00    +0.000 A 
ATOM     20  N   UNL     1      -0.605  10.146  17.842  0.00  0.00    +0.000 NA
ATOM     21  N   UNL     1      -1.714  10.570  18.538  0.00  0.00    +0.000 NA
ATOM     22  C   UNL     1      -1.381  10.658  19.807  0.00  0.00    +0.000 A 
ATOM     23  N   UNL     1      -0.070  10.315  19.953  0.00  0.00    +0.000 N 
BRANCH  23  24
ATOM     24  C   UNL     1       0.682  10.300  21.188  0.00  0.00    +0.000 C 
ATOM     25  C   UNL     1       0.924   9.025  21.977  0.00  0.00    +0.000 C 
ATOM     26  C   UNL     1       0.011  10.061  22.531  0.00  0.00    +0.000 C 
ENDBRANCH  23  24
ENDBRANCH  18  19
ENDBRANCH   3  18
TORSDOF 5
ENDMDL
MODEL 7
REMARK VINA RESULT:      -7.7      4.004      6.700
REMARK  Name = 
REMARK  5 active torsions:
REMARK  status: ('A' for Active; 'I' for Inactive)
REMARK    1  A    between atoms: C_2  and  C_13
REMARK    2  A    between atoms: N_3  and  C_4
REMARK    3  A    between atoms: C_4  and  C_5
REMARK    4  A    between atoms: N_9  and  C_10
REMARK    5  A    between atoms: C_13  and  C_14
REMARK                            x       y       z     vdW  Elec       q    Type
REMARK                         _______ _______ _______ _____ _____    ______ ____
ROOT
ATOM      1  O   UNL     1       5.184   3.028  19.684  0.00  0.00    +0.000 OA
ATOM      2  C   UNL     1       4.531   4.054  19.499  0.00  0.00    +0.000 C 
ATOM      3  N   UNL     1       5.159   5.269  19.320  0.00  0.00    +0.000 N 
ATOM      4  H   UNL     1       4.640   6.135  19.408  0.00  0.00    +0.000 HD
ENDROOT
BRANCH   2   5
ATOM      5  C   UNL     1       2.969   4.073  19.497  0.00  0.00    +0.000 C 
ATOM      6  C   UNL     1       2.496   3.423  20.838  0.00  0.00    +0.000 C 
ATOM      7  C   UNL     1       0.988   3.185  20.899  0.00  0.00    +0.000 C 
ATOM      8  C   UNL     1       0.526   2.275  19.770  0.00  0.00    +0.000 C 
ATOM      9  C   UNL     1       0.971   2.785  18.408  0.00  0.00    +0.000 C 
ATOM     10  C   UNL     1       2.461   3.142  18.352  0.00  0.00    +0.000 C 
BRANCH   5  11
ATOM     11  C   UNL     1       2.481   5.538  19.438  0.00  0.00    +0.000 A 
ATOM     12  C   UNL     1       2.531   6.245  18.218  0.00  0.00    +0.000 A 
ATOM     13  C   UNL     1       2.221   7.611  18.143  0.00  0.00    +0.000 A 
ATOM     14  C   UNL     1       1.849   8.299  19.291  0.00  0.00    +0.000 A 
ATOM     15  C   UNL     1       1.746   7.609  20.485  0.00  0.00    +0.000 A 
ATOM     16  F   UNL     1       1.396   8.266  21.599  0.00  0.00    +0.000 F 
ATOM     17  C   UNL     1       2.026   6.244  20.563  0.00  0.00    +0.000 A 
ENDBRANCH   5  11
ENDBRANCH   2   5
BRANCH   3  18
ATOM     18  C   UNL     1       6.601   5.356  19.359  0.00  0.00    +0.000 C 
BRANCH  18  19
ATOM     19  C   UNL     1       7.098   6.081  18.160  0.00  0.00    +0.000 A 
ATOM     20  N   UNL     1       7.675   7.273  18.143  0.00  0.00    +0.000 NA
ATOM     21  N   UNL     1       8.030   7.562  16.846  0.00  0.00    +0.000 NA
ATOM     22  C   UNL     1       7.664   6.546  16.094  0.00  0.00    +0.000 A 
ATOM     23  N   UNL     1       7.063   5.605  16.873  0.00  0.00    +0.000 N 
BRANCH  23  24
ATOM     24  C   UNL     1       6.504   4.348  16.426  0.00  0.00    +0.000 C 
ATOM     25  C   UNL     1       6.215   4.061  14.963  0.00  0.00    +0.000 C 
ATOM     26  C   UNL     1       5.079   4.245  15.906  0.00  0.00    +0.000 C 
ENDBRANCH  23  24
ENDBRANCH  18  19
ENDBRANCH   3  18
TORSDOF 5
ENDMDL
MODEL 8
REMARK VINA RESULT:      -7.6      1.700      2.224
REMARK  Name = 
REMARK  5 active torsions:
REMARK  status: ('A' for Active; 'I' for Inactive)
REMARK    1  A    between atoms: C_2  and  C_13
REMARK    2  A    between atoms: N_3  and  C_4
REMARK    3  A    between atoms: C_4  and  C_5
REMARK    4  A    between atoms: N_9  and  C_10
REMARK    5  A    between atoms: C_13  and  C_14
REMARK                            x       y       z     vdW  Elec       q    Type
REMARK                         _______ _______ _______ _____ _____    ______ ____
ROOT
ATOM      1  O   UNL     1       1.392   5.537  17.551  0.00  0.00    +0.000 OA
ATOM      2  C   UNL     1       2.531   5.585  18.012  0.00  0.00    +0.000 C 
ATOM      3  N   UNL     1       3.099   6.790  18.370  0.00  0.00    +0.000 N 
ATOM      4  H   UNL     1       4.098   6.864  18.519  0.00  0.00    +0.000 HD
ENDROOT
BRANCH   2   5
ATOM      5  C   UNL     1       3.426   4.317  18.186  0.00  0.00    +0.000 C 
ATOM      6  C   UNL     1       2.667   3.121  17.525  0.00  0.00    +0.000 C 
ATOM      7  C   UNL     1       3.322   1.766  17.789  0.00  0.00    +0.000 C 
ATOM      8  C   UNL     1       3.410   1.475  19.280  0.00  0.00    +0.000 C 
ATOM      9  C   UNL     1       4.094   2.599  20.041  0.00  0.00    +0.000 C 
ATOM     10  C   UNL     1       3.531   3.986  19.708  0.00  0.00    +0.000 C 
BRANCH   5  11
ATOM     11  C   UNL     1       4.768   4.540  17.453  0.00  0.00    +0.000 A 
ATOM     12  C   UNL     1       4.783   4.696  16.052  0.00  0.00    +0.000 A 
ATOM     13  C   UNL     1       5.984   4.771  15.330  0.00  0.00    +0.000 A 
ATOM     14  C   UNL     1       7.198   4.694  15.999  0.00  0.00    +0.000 A 
ATOM     15  C   UNL     1       7.200   4.592  17.379  0.00  0.00    +0.000 A 
ATOM     16  F   UNL     1       8.367   4.508  18.033  0.00  0.00    +0.000 F 
ATOM     17  C   UNL     1       6.011   4.544  18.107  0.00  0.00    +0.000 A 
ENDBRANCH   5  11
ENDBRANCH   2   5
BRANCH   3  18
ATOM     18  C   UNL     1       2.363   8.021  18.195  0.00  0.00    +0.000 C 
BRANCH  18  19
ATOM     19  C   UNL     1       1.687   8.393  19.466  0.00  0.00    +0.000 A 
ATOM     20  N   UNL     1       1.847   7.811  20.644  0.00  0.00    +0.000 NA
ATOM     21  N   UNL     1       1.081   8.484  21.567  0.00  0.00    +0.000 NA
ATOM     22  C   UNL     1       0.465   9.462  20.939  0.00  0.00    +0.000 A 
ATOM     23  N   UNL     1       0.803   9.432  19.620  0.00  0.00    +0.000 N 
BRANCH  23  24
ATOM     24  C   UNL     1       0.326  10.328  18.589  0.00  0.00    +0.000 C 
ATOM     25  C   UNL     1      -0.888  11.220  18.785  0.00  0.00    +0.000 C 
ATOM     26  C   UNL     1      -0.975  10.070  17.845  0.00  0.00    +0.000 C 
ENDBRANCH  23  24
ENDBRANCH  18  19
ENDBRANCH   3  18
TORSDOF 5
ENDMDL
MODEL 9
REMARK VINA RESULT:      -7.6      1.158      1.508
REMARK  Name = 
REMARK  5 active torsions:
REMARK  status: ('A' for Active; 'I' for Inactive)
REMARK    1  A    between atoms: C_2  and  C_13
REMARK    2  A    between atoms: N_3  and  C_4
REMARK    3  A    between atoms: C_4  and  C_5
REMARK    4  A    between atoms: N_9  and  C_10
REMARK    5  A    between atoms: C_13  and  C_14
REMARK                            x       y       z     vdW  Elec       q    Type
REMARK                         _______ _______ _______ _____ _____    ______ ____
ROOT
ATOM      1  O   UNL     1       3.096   7.962  17.013  0.00  0.00    +0.000 OA
ATOM      2  C   UNL     1       2.517   7.560  18.021  0.00  0.00    +0.000 C 
ATOM      3  N   UNL     1       1.685   8.394  18.739  0.00  0.00    +0.000 N 
ATOM      4  H   UNL     1       1.403   8.152  19.681  0.00  0.00    +0.000 HD
ENDROOT
BRANCH   2   5
ATOM      5  C   UNL     1       2.708   6.116  18.585  0.00  0.00    +0.000 C 
ATOM      6  C   UNL     1       1.712   5.185  17.818  0.00  0.00    +0.000 C 
ATOM      7  C   UNL     1       1.634   3.773  18.396  0.00  0.00    +0.000 C 
ATOM      8  C   UNL     1       1.198   3.795  19.853  0.00  0.00    +0.000 C 
ATOM      9  C   UNL     1       2.072   4.710  20.696  0.00  0.00    +0.000 C 
ATOM     10  C   UNL     1       2.261   6.102  20.080  0.00  0.00    +0.000 C 
BRANCH   5  11
ATOM     11  C   UNL     1       4.156   5.652  18.311  0.00  0.00    +0.000 A 
ATOM     12  C   UNL     1       4.450   4.933  17.134  0.00  0.00    +0.000 A 
ATOM     13  C   UNL     1       5.719   4.380  16.905  0.00  0.00    +0.000 A 
ATOM     14  C   UNL     1       6.724   4.540  17.851  0.00  0.00    +0.000 A 
ATOM     15  C   UNL     1       6.466   5.287  18.987  0.00  0.00    +0.000 A 
ATOM     16  F   UNL     1       7.426   5.439  19.909  0.00  0.00    +0.000 F 
ATOM     17  C   UNL     1       5.215   5.862  19.210  0.00  0.00    +0.000 A 
ENDBRANCH   5  11
ENDBRANCH   2   5
BRANCH   3  18
ATOM     18  C   UNL     1       1.490   9.762  18.321  0.00  0.00    +0.000 C 
BRANCH  18  19
ATOM     19  C   UNL     1       0.527  10.438  19.230  0.00  0.00    +0.000 A 
ATOM     20  N   UNL     1       0.767  10.856  20.463  0.00  0.00    +0.000 NA
ATOM     21  N   UNL     1      -0.368  11.470  20.940  0.00  0.00    +0.000 NA
ATOM     22  C   UNL     1      -1.280  11.417  19.994  0.00  0.00    +0.000 A 
ATOM     23  N   UNL     1      -0.768  10.765  18.912  0.00  0.00    +0.000 N 
BRANCH  23  24
ATOM     24  C   UNL     1      -1.458  10.483  17.673  0.00  0.00    +0.000 C 
ATOM     25  C   UNL     1      -2.719  11.222  17.257  0.00  0.00    +0.000 C 
ATOM     26  C   UNL     1      -2.810   9.789  17.649  0.00  0.00    +0.000 C 
ENDBRANCH  23  24
ENDBRANCH  18  19
ENDBRANCH   3  18
TORSDOF 5
ENDMDL
