MODEL 1
REMARK VINA RESULT:      -9.1      0.000      0.000
REMARK  Name = 
REMARK  3 active torsions:
REMARK  status: ('A' for Active; 'I' for Inactive)
REMARK    1  A    between atoms: C_1  and  C_2
REMARK    2  A    between atoms: C_7  and  C_8
REMARK    3  A    between atoms: C_16  and  C_17
REMARK                            x       y       z     vdW  Elec       q    Type
REMARK                         _______ _______ _______ _____ _____    ______ ____
ROOT
ATOM      1  C   UNL     1       0.912   3.533  20.540  0.00  0.00    +0.000 C 
ATOM      2  C   UNL     1       1.870   3.055  19.512  0.00  0.00    +0.000 A 
ATOM      3  N   UNL     1       1.970   1.738  19.289  0.00  0.00    +0.000 NA
ATOM      4  O   UNL     1       2.912   1.593  18.289  0.00  0.00    +0.000 OA
ATOM      5  C   UNL     1       3.368   2.816  17.908  0.00  0.00    +0.000 A 
ATOM      6  N   UNL     1       4.284   2.987  16.940  0.00  0.00    +0.000 NA
ATOM      7  C   UNL     1       4.619   4.271  16.687  0.00  0.00    +0.000 A 
ATOM      8  C   UNL     1       4.074   5.350  17.389  0.00  0.00    +0.000 A 
ATOM      9  C   UNL     1       3.106   5.126  18.381  0.00  0.00    +0.000 A 
ATOM     10  C   UNL     1       2.736   3.795  18.658  0.00  0.00    +0.000 A 
ENDROOT
BRANCH   9  11
ATOM     11  C   UNL     1       2.557   6.245  19.167  0.00  0.00    +0.000 C 
ATOM     12  O   UNL     1       2.393   6.048  20.366  0.00  0.00    +0.000 OA
ATOM     13  N   UNL     1       2.258   7.397  18.469  0.00  0.00    +0.000 N 
ATOM     14  C   UNL     1       1.679   8.465  19.107  0.00  0.00    +0.000 A 
ATOM     15  N   UNL     1       1.513   8.661  20.398  0.00  0.00    +0.000 NA
ATOM     16  C   UNL     1       0.803   9.809  20.554  0.00  0.00    +0.000 A 
ATOM     17  C   UNL     1       0.436  10.459  19.413  0.00  0.00    +0.000 A 
ATOM     18  S   UNL     1       1.046   9.686  18.053  0.00  0.00    +0.000 S 
ATOM     19  C   UNL     1      -0.414  11.640  19.638  0.00  0.00    +0.000 C 
ATOM     20  C   UNL     1      -0.509  11.670  21.205  0.00  0.00    +0.000 C 
ATOM     21  C   UNL     1       0.297  10.456  21.775  0.00  0.00    +0.000 C 
ATOM     22  H   UNL     1       2.318   7.450  17.461  0.00  0.00    +0.000 HD
ENDBRANCH   9  11
BRANCH   7  23
ATOM     23  C   UNL     1       5.603   4.437  15.596  0.00  0.00    +0.000 A 
ATOM     24  C   UNL     1       5.355   3.908  14.312  0.00  0.00    +0.000 A 
ATOM     25  C   UNL     1       6.248   4.105  13.251  0.00  0.00    +0.000 A 
ATOM     26  C   UNL     1       7.417   4.835  13.451  0.00  0.00    +0.000 A 
ATOM     27  C   UNL     1       7.693   5.361  14.710  0.00  0.00    +0.000 A 
ATOM     28  C   UNL     1       6.794   5.162  15.759  0.00  0.00    +0.000 A 
ATOM     29  F   UNL     1       7.094   5.721  16.944  0.00  0.00    +0.000 F 
ENDBRANCH   7  23
TORSDOF 2
ENDMDL
MODEL 2
REMARK VINA RESULT:      -8.5      2.451      7.724
REMARK  Name = 
REMARK  3 active torsions:
REMARK  status: ('A' for Active; 'I' for Inactive)
REMARK    1  A    between atoms: C_1  and  C_2
REMARK    2  A    between atoms: C_7  and  C_8
REMARK    3  A    between atoms: C_16  and  C_17
REMARK                            x       y       z     vdW  Elec       q    Type
REMARK                         _______ _______ _______ _____ _____    ______ ____
ROOT
ATOM      1  C   UNL     1       3.859   1.851  19.247  0.00  0.00    +0.000 C 
ATOM      2  C   UNL     1       3.189   2.864  20.099  0.00  0.00    +0.000 A 
ATOM      3  N   UNL     1       2.838   2.525  21.346  0.00  0.00    +0.000 NA
ATOM      4  O   UNL     1       2.258   3.651  21.896  0.00  0.00    +0.000 OA
ATOM      5  C   UNL     1       2.268   4.662  20.989  0.00  0.00    +0.000 A 
ATOM      6  N   UNL     1       1.781   5.887  21.250  0.00  0.00    +0.000 NA
ATOM      7  C   UNL     1       1.877   6.773  20.235  0.00  0.00    +0.000 A 
ATOM      8  C   UNL     1       2.423   6.444  18.991  0.00  0.00    +0.000 A 
ATOM      9  C   UNL     1       2.937   5.158  18.768  0.00  0.00    +0.000 A 
ATOM     10  C   UNL     1       2.854   4.218  19.814  0.00  0.00    +0.000 A 
ENDROOT
BRANCH   9  11
ATOM     11  C   UNL     1       3.472   4.776  17.448  0.00  0.00    +0.000 C 
ATOM     12  O   UNL     1       2.908   3.852  16.871  0.00  0.00    +0.000 OA
ATOM     13  N   UNL     1       4.570   5.483  17.003  0.00  0.00    +0.000 N 
ATOM     14  C   UNL     1       5.175   5.151  15.816  0.00  0.00    +0.000 A 
ATOM     15  N   UNL     1       4.750   4.334  14.876  0.00  0.00    +0.000 NA
ATOM     16  C   UNL     1       5.727   4.241  13.936  0.00  0.00    +0.000 A 
ATOM     17  C   UNL     1       6.862   4.961  14.164  0.00  0.00    +0.000 A 
ATOM     18  S   UNL     1       6.728   5.877  15.564  0.00  0.00    +0.000 S 
ATOM     19  C   UNL     1       7.923   4.746  13.165  0.00  0.00    +0.000 C 
ATOM     20  C   UNL     1       7.232   3.738  12.178  0.00  0.00    +0.000 C 
ATOM     21  C   UNL     1       5.795   3.425  12.713  0.00  0.00    +0.000 C 
ATOM     22  H   UNL     1       5.049   6.159  17.581  0.00  0.00    +0.000 HD
ENDBRANCH   9  11
BRANCH   7  23
ATOM     23  C   UNL     1       1.365   8.122  20.557  0.00  0.00    +0.000 A 
ATOM     24  C   UNL     1       1.083   8.490  21.889  0.00  0.00    +0.000 A 
ATOM     25  C   UNL     1       0.653   9.780  22.220  0.00  0.00    +0.000 A 
ATOM     26  C   UNL     1       0.490  10.738  21.222  0.00  0.00    +0.000 A 
ATOM     27  C   UNL     1       0.752  10.401  19.897  0.00  0.00    +0.000 A 
ATOM     28  C   UNL     1       1.184   9.112  19.579  0.00  0.00    +0.000 A 
ATOM     29  F   UNL     1       1.454   8.852  18.288  0.00  0.00    +0.000 F 
ENDBRANCH   7  23
TORSDOF 2
ENDMDL
MODEL 3
REMARK VINA RESULT:      -8.3      0.897      1.274
REMARK  Name = 
REMARK  3 active torsions:
REMARK  status: ('A' for Active; 'I' for Inactive)
REMARK    1  A    between atoms: C_1  and  C_2
REMARK    2  A    between atoms: C_7  and  C_8
REMARK    3  A    between atoms: C_16  and  C_17
REMARK                            x       y       z     vdW  Elec       q    Type
REMARK                         _______ _______ _______ _____ _____    ______ ____
ROOT
ATOM      1  C   UNL     1       1.005   3.487  20.400  0.00  0.00    +0.000 C 
ATOM      2  C   UNL     1       1.979   3.064  19.363  0.00  0.00    +0.000 A 
ATOM      3  N   UNL     1       2.107   1.758  19.095  0.00  0.00    +0.000 NA
ATOM      4  O   UNL     1       3.058   1.667  18.097  0.00  0.00    +0.000 OA
ATOM      5  C   UNL     1       3.492   2.910  17.763  0.00  0.00    +0.000 A 
ATOM      6  N   UNL     1       4.410   3.134  16.807  0.00  0.00    +0.000 NA
ATOM      7  C   UNL     1       4.721   4.432  16.601  0.00  0.00    +0.000 A 
ATOM      8  C   UNL     1       4.151   5.475  17.337  0.00  0.00    +0.000 A 
ATOM      9  C   UNL     1       3.182   5.197  18.313  0.00  0.00    +0.000 A 
ATOM     10  C   UNL     1       2.836   3.851  18.541  0.00  0.00    +0.000 A 
ENDROOT
BRANCH   9  11
ATOM     11  C   UNL     1       2.605   6.277  19.134  0.00  0.00    +0.000 C 
ATOM     12  O   UNL     1       2.444   6.037  20.326  0.00  0.00    +0.000 OA
ATOM     13  N   UNL     1       2.280   7.444  18.473  0.00  0.00    +0.000 N 
ATOM     14  C   UNL     1       1.676   8.477  19.145  0.00  0.00    +0.000 A 
ATOM     15  N   UNL     1       1.503   8.627  20.440  0.00  0.00    +0.000 NA
ATOM     16  C   UNL     1       0.767   9.753  20.632  0.00  0.00    +0.000 A 
ATOM     17  C   UNL     1       0.386  10.430  19.512  0.00  0.00    +0.000 A 
ATOM     18  S   UNL     1       1.014   9.716  18.129  0.00  0.00    +0.000 S 
ATOM     19  C   UNL     1      -0.492  11.583  19.774  0.00  0.00    +0.000 C 
ATOM     20  C   UNL     1      -0.590  11.560  21.341  0.00  0.00    +0.000 C 
ATOM     21  C   UNL     1       0.244  10.347  21.873  0.00  0.00    +0.000 C 
ATOM     22  H   UNL     1       2.340   7.531  17.468  0.00  0.00    +0.000 HD
ENDBRANCH   9  11
BRANCH   7  23
ATOM     23  C   UNL     1       5.709   4.655  15.524  0.00  0.00    +0.000 A 
ATOM     24  C   UNL     1       6.950   5.268  15.795  0.00  0.00    +0.000 A 
ATOM     25  C   UNL     1       7.921   5.435  14.800  0.00  0.00    +0.000 A 
ATOM     26  C   UNL     1       7.671   4.995  13.502  0.00  0.00    +0.000 A 
ATOM     27  C   UNL     1       6.450   4.396  13.203  0.00  0.00    +0.000 A 
ATOM     28  C   UNL     1       5.492   4.231  14.204  0.00  0.00    +0.000 A 
ATOM     29  F   UNL     1       4.345   3.616  13.866  0.00  0.00    +0.000 F 
ENDBRANCH   7  23
TORSDOF 2
ENDMDL
MODEL 4
REMARK VINA RESULT:      -8.2      4.117      7.131
REMARK  Name = 
REMARK  3 active torsions:
REMARK  status: ('A' for Active; 'I' for Inactive)
REMARK    1  A    between atoms: C_1  and  C_2
REMARK    2  A    between atoms: C_7  and  C_8
REMARK    3  A    between atoms: C_16  and  C_17
REMARK                            x       y       z     vdW  Elec       q    Type
REMARK                         _______ _______ _______ _____ _____    ______ ____
ROOT
ATOM      1  C   UNL     1      -1.350  12.341  22.734  0.00  0.00    +0.000 C 
ATOM      2  C   UNL     1      -0.661  11.040  22.550  0.00  0.00    +0.000 A 
ATOM      3  N   UNL     1      -0.682  10.155  23.555  0.00  0.00    +0.000 NA
ATOM      4  O   UNL     1       0.015   9.052  23.103  0.00  0.00    +0.000 OA
ATOM      5  C   UNL     1       0.444   9.270  21.832  0.00  0.00    +0.000 A 
ATOM      6  N   UNL     1       1.139   8.361  21.127  0.00  0.00    +0.000 NA
ATOM      7  C   UNL     1       1.480   8.743  19.876  0.00  0.00    +0.000 A 
ATOM      8  C   UNL     1       1.157   9.997  19.351  0.00  0.00    +0.000 A 
ATOM      9  C   UNL     1       0.413  10.908  20.117  0.00  0.00    +0.000 A 
ATOM     10  C   UNL     1       0.040  10.530  21.421  0.00  0.00    +0.000 A 
ENDROOT
BRANCH   9  11
ATOM     11  C   UNL     1       0.105  12.254  19.600  0.00  0.00    +0.000 C 
ATOM     12  O   UNL     1      -0.716  12.320  18.691  0.00  0.00    +0.000 OA
ATOM     13  N   UNL     1       0.791  13.304  20.175  0.00  0.00    +0.000 N 
ATOM     14  C   UNL     1       0.617  14.584  19.710  0.00  0.00    +0.000 A 
ATOM     15  N   UNL     1      -0.289  15.039  18.871  0.00  0.00    +0.000 NA
ATOM     16  C   UNL     1      -0.008  16.346  18.628  0.00  0.00    +0.000 A 
ATOM     17  C   UNL     1       1.084  16.862  19.260  0.00  0.00    +0.000 A 
ATOM     18  S   UNL     1       1.787  15.728  20.278  0.00  0.00    +0.000 S 
ATOM     19  C   UNL     1       1.397  18.251  18.883  0.00  0.00    +0.000 C 
ATOM     20  C   UNL     1       0.239  18.578  17.875  0.00  0.00    +0.000 C 
ATOM     21  C   UNL     1      -0.663  17.308  17.727  0.00  0.00    +0.000 C 
ATOM     22  H   UNL     1       1.533  13.163  20.845  0.00  0.00    +0.000 HD
ENDBRANCH   9  11
BRANCH   7  23
ATOM     23  C   UNL     1       2.216   7.715  19.108  0.00  0.00    +0.000 A 
ATOM     24  C   UNL     1       2.938   8.058  17.947  0.00  0.00    +0.000 A 
ATOM     25  C   UNL     1       3.687   7.110  17.240  0.00  0.00    +0.000 A 
ATOM     26  C   UNL     1       3.729   5.789  17.677  0.00  0.00    +0.000 A 
ATOM     27  C   UNL     1       3.018   5.418  18.815  0.00  0.00    +0.000 A 
ATOM     28  C   UNL     1       2.278   6.373  19.514  0.00  0.00    +0.000 A 
ATOM     29  F   UNL     1       1.639   5.967  20.625  0.00  0.00    +0.000 F 
ENDBRANCH   7  23
TORSDOF 2
ENDMDL
MODEL 5
REMARK VINA RESULT:      -8.0      4.164      7.205
REMARK  Name = 
REMARK  3 active torsions:
REMARK  status: ('A' for Active; 'I' for Inactive)
REMARK    1  A    between atoms: C_1  and  C_2
REMARK    2  A    between atoms: C_7  and  C_8
REMARK    3  A    between atoms: C_16  and  C_17
REMARK                            x       y       z     vdW  Elec       q    Type
REMARK                         _______ _______ _______ _____ _____    ______ ____
ROOT
ATOM      1  C   UNL     1      -1.471  12.424  22.842  0.00  0.00    +0.000 C 
ATOM      2  C   UNL     1      -0.777  11.124  22.669  0.00  0.00    +0.000 A 
ATOM      3  N   UNL     1      -0.811  10.238  23.672  0.00  0.00    +0.000 NA
ATOM      4  O   UNL     1      -0.105   9.136  23.229  0.00  0.00    +0.000 OA
ATOM      5  C   UNL     1       0.343   9.356  21.965  0.00  0.00    +0.000 A 
ATOM      6  N   UNL     1       1.050   8.450  21.270  0.00  0.00    +0.000 NA
ATOM      7  C   UNL     1       1.410   8.833  20.026  0.00  0.00    +0.000 A 
ATOM      8  C   UNL     1       1.092  10.087  19.497  0.00  0.00    +0.000 A 
ATOM      9  C   UNL     1       0.335  10.996  20.251  0.00  0.00    +0.000 A 
ATOM     10  C   UNL     1      -0.057  10.617  21.550  0.00  0.00    +0.000 A 
ENDROOT
BRANCH   9  11
ATOM     11  C   UNL     1       0.032  12.342  19.731  0.00  0.00    +0.000 C 
ATOM     12  O   UNL     1      -1.044  12.482  19.159  0.00  0.00    +0.000 OA
ATOM     13  N   UNL     1       1.002  13.305  19.918  0.00  0.00    +0.000 N 
ATOM     14  C   UNL     1       0.834  14.568  19.407  0.00  0.00    +0.000 A 
ATOM     15  N   UNL     1      -0.247  15.108  18.888  0.00  0.00    +0.000 NA
ATOM     16  C   UNL     1       0.088  16.341  18.424  0.00  0.00    +0.000 A 
ATOM     17  C   UNL     1       1.388  16.718  18.582  0.00  0.00    +0.000 A 
ATOM     18  S   UNL     1       2.262  15.550  19.411  0.00  0.00    +0.000 S 
ATOM     19  C   UNL     1       1.716  18.019  17.974  0.00  0.00    +0.000 C 
ATOM     20  C   UNL     1       0.325  18.462  17.397  0.00  0.00    +0.000 C 
ATOM     21  C   UNL     1      -0.721  17.340  17.706  0.00  0.00    +0.000 C 
ATOM     22  H   UNL     1       1.911  13.090  20.303  0.00  0.00    +0.000 HD
ENDBRANCH   9  11
BRANCH   7  23
ATOM     23  C   UNL     1       2.159   7.807  19.268  0.00  0.00    +0.000 A 
ATOM     24  C   UNL     1       2.304   6.498  19.772  0.00  0.00    +0.000 A 
ATOM     25  C   UNL     1       2.959   5.498  19.043  0.00  0.00    +0.000 A 
ATOM     26  C   UNL     1       3.492   5.786  17.789  0.00  0.00    +0.000 A 
ATOM     27  C   UNL     1       3.373   7.073  17.270  0.00  0.00    +0.000 A 
ATOM     28  C   UNL     1       2.714   8.060  18.004  0.00  0.00    +0.000 A 
ATOM     29  F   UNL     1       2.599   9.275  17.440  0.00  0.00    +0.000 F 
ENDBRANCH   7  23
TORSDOF 2
ENDMDL
MODEL 6
REMARK VINA RESULT:      -7.8      4.783      7.816
REMARK  Name = 
REMARK  3 active torsions:
REMARK  status: ('A' for Active; 'I' for Inactive)
REMARK    1  A    between atoms: C_1  and  C_2
REMARK    2  A    between atoms: C_7  and  C_8
REMARK    3  A    between atoms: C_16  and  C_17
REMARK                            x       y       z     vdW  Elec       q    Type
REMARK                         _______ _______ _______ _____ _____    ______ ____
ROOT
ATOM      1  C   UNL     1      -0.013  14.732  18.954  0.00  0.00    +0.000 C 
ATOM      2  C   UNL     1       0.916  13.621  18.635  0.00  0.00    +0.000 A 
ATOM      3  N   UNL     1       2.075  13.905  18.026  0.00  0.00    +0.000 NA
ATOM      4  O   UNL     1       2.729  12.699  17.871  0.00  0.00    +0.000 OA
ATOM      5  C   UNL     1       1.972  11.697  18.391  0.00  0.00    +0.000 A 
ATOM      6  N   UNL     1       2.361  10.411  18.396  0.00  0.00    +0.000 NA
ATOM      7  C   UNL     1       1.487   9.548  18.958  0.00  0.00    +0.000 A 
ATOM      8  C   UNL     1       0.255   9.950  19.481  0.00  0.00    +0.000 A 
ATOM      9  C   UNL     1      -0.103  11.306  19.472  0.00  0.00    +0.000 A 
ATOM     10  C   UNL     1       0.795  12.226  18.897  0.00  0.00    +0.000 A 
ENDROOT
BRANCH   9  11
ATOM     11  C   UNL     1      -1.419  11.744  19.974  0.00  0.00    +0.000 C 
ATOM     12  O   UNL     1      -1.495  12.000  21.171  0.00  0.00    +0.000 OA
ATOM     13  N   UNL     1      -2.441  11.798  19.049  0.00  0.00    +0.000 N 
ATOM     14  C   UNL     1      -3.715  12.130  19.441  0.00  0.00    +0.000 A 
ATOM     15  N   UNL     1      -4.121  12.613  20.595  0.00  0.00    +0.000 NA
ATOM     16  C   UNL     1      -5.477  12.689  20.557  0.00  0.00    +0.000 A 
ATOM     17  C   UNL     1      -6.079  12.267  19.409  0.00  0.00    +0.000 A 
ATOM     18  S   UNL     1      -4.943  11.816  18.260  0.00  0.00    +0.000 S 
ATOM     19  C   UNL     1      -7.551  12.279  19.461  0.00  0.00    +0.000 C 
ATOM     20  C   UNL     1      -7.815  12.846  20.902  0.00  0.00    +0.000 C 
ATOM     21  C   UNL     1      -6.436  13.102  21.595  0.00  0.00    +0.000 C 
ATOM     22  H   UNL     1      -2.331  11.468  18.101  0.00  0.00    +0.000 HD
ENDBRANCH   9  11
BRANCH   7  23
ATOM     23  C   UNL     1       1.951   8.144  18.981  0.00  0.00    +0.000 A 
ATOM     24  C   UNL     1       2.577   7.570  17.855  0.00  0.00    +0.000 A 
ATOM     25  C   UNL     1       3.075   6.262  17.878  0.00  0.00    +0.000 A 
ATOM     26  C   UNL     1       2.954   5.490  19.031  0.00  0.00    +0.000 A 
ATOM     27  C   UNL     1       2.332   6.027  20.155  0.00  0.00    +0.000 A 
ATOM     28  C   UNL     1       1.843   7.334  20.122  0.00  0.00    +0.000 A 
ATOM     29  F   UNL     1       1.283   7.812  21.247  0.00  0.00    +0.000 F 
ENDBRANCH   7  23
TORSDOF 2
ENDMDL
MODEL 7
REMARK VINA RESULT:      -7.8      2.591      7.890
REMARK  Name = 
REMARK  3 active torsions:
REMARK  status: ('A' for Active; 'I' for Inactive)
REMARK    1  A    between atoms: C_1  and  C_2
REMARK    2  A    between atoms: C_7  and  C_8
REMARK    3  A    between atoms: C_16  and  C_17
REMARK                            x       y       z     vdW  Elec       q    Type
REMARK                         _______ _______ _______ _____ _____    ______ ____
ROOT
ATOM      1  C   UNL     1       4.624   2.886  19.073  0.00  0.00    +0.000 C 
ATOM      2  C   UNL     1       3.606   3.703  19.778  0.00  0.00    +0.000 A 
ATOM      3  N   UNL     1       2.914   3.144  20.779  0.00  0.00    +0.000 NA
ATOM      4  O   UNL     1       2.065   4.127  21.249  0.00  0.00    +0.000 OA
ATOM      5  C   UNL     1       2.252   5.271  20.540  0.00  0.00    +0.000 A 
ATOM      6  N   UNL     1       1.572   6.404  20.784  0.00  0.00    +0.000 NA
ATOM      7  C   UNL     1       1.888   7.447  19.986  0.00  0.00    +0.000 A 
ATOM      8  C   UNL     1       2.837   7.360  18.965  0.00  0.00    +0.000 A 
ATOM      9  C   UNL     1       3.538   6.162  18.757  0.00  0.00    +0.000 A 
ATOM     10  C   UNL     1       3.230   5.062  19.580  0.00  0.00    +0.000 A 
ENDROOT
BRANCH   9  11
ATOM     11  C   UNL     1       4.507   6.035  17.653  0.00  0.00    +0.000 C 
ATOM     12  O   UNL     1       5.302   6.958  17.509  0.00  0.00    +0.000 OA
ATOM     13  N   UNL     1       4.405   4.900  16.875  0.00  0.00    +0.000 N 
ATOM     14  C   UNL     1       5.222   4.731  15.785  0.00  0.00    +0.000 A 
ATOM     15  N   UNL     1       6.281   5.429  15.433  0.00  0.00    +0.000 NA
ATOM     16  C   UNL     1       6.705   4.959  14.231  0.00  0.00    +0.000 A 
ATOM     17  C   UNL     1       5.983   3.940  13.685  0.00  0.00    +0.000 A 
ATOM     18  S   UNL     1       4.750   3.453  14.714  0.00  0.00    +0.000 S 
ATOM     19  C   UNL     1       6.428   3.538  12.340  0.00  0.00    +0.000 C 
ATOM     20  C   UNL     1       7.651   4.496  12.109  0.00  0.00    +0.000 C 
ATOM     21  C   UNL     1       7.805   5.416  13.366  0.00  0.00    +0.000 C 
ATOM     22  H   UNL     1       3.654   4.234  16.986  0.00  0.00    +0.000 HD
ENDBRANCH   9  11
BRANCH   7  23
ATOM     23  C   UNL     1       1.150   8.692  20.295  0.00  0.00    +0.000 A 
ATOM     24  C   UNL     1       0.872   9.055  21.629  0.00  0.00    +0.000 A 
ATOM     25  C   UNL     1       0.227  10.257  21.944  0.00  0.00    +0.000 A 
ATOM     26  C   UNL     1      -0.161  11.127  20.928  0.00  0.00    +0.000 A 
ATOM     27  C   UNL     1       0.092  10.790  19.600  0.00  0.00    +0.000 A 
ATOM     28  C   UNL     1       0.740   9.591  19.299  0.00  0.00    +0.000 A 
ATOM     29  F   UNL     1       0.989   9.332  18.003  0.00  0.00    +0.000 F 
ENDBRANCH   7  23
TORSDOF 2
ENDMDL
MODEL 8
REMARK VINA RESULT:      -7.8      3.857      5.877
REMARK  Name = 
REMARK  3 active torsions:
REMARK  status: ('A' for Active; 'I' for Inactive)
REMARK    1  A    between atoms: C_1  and  C_2
REMARK    2  A    between atoms: C_7  and  C_8
REMARK    3  A    between atoms: C_16  and  C_17
REMARK                            x       y       z     vdW  Elec       q    Type
REMARK                         _______ _______ _______ _____ _____    ______ ____
ROOT
ATOM      1  C   UNL     1       0.706  11.464  18.748  0.00  0.00    +0.000 C 
ATOM      2  C   UNL     1       1.413  10.191  18.468  0.00  0.00    +0.000 A 
ATOM      3  N   UNL     1       2.136  10.091  17.345  0.00  0.00    +0.000 NA
ATOM      4  O   UNL     1       2.681   8.821  17.357  0.00  0.00    +0.000 OA
ATOM      5  C   UNL     1       2.294   8.167  18.483  0.00  0.00    +0.000 A 
ATOM      6  N   UNL     1       2.684   6.914  18.773  0.00  0.00    +0.000 NA
ATOM      7  C   UNL     1       2.209   6.419  19.937  0.00  0.00    +0.000 A 
ATOM      8  C   UNL     1       1.356   7.141  20.776  0.00  0.00    +0.000 A 
ATOM      9  C   UNL     1       0.989   8.454  20.443  0.00  0.00    +0.000 A 
ATOM     10  C   UNL     1       1.478   8.995  19.238  0.00  0.00    +0.000 A 
ENDROOT
BRANCH   9  11
ATOM     11  C   UNL     1       0.052   9.214  21.289  0.00  0.00    +0.000 C 
ATOM     12  O   UNL     1      -0.902   8.595  21.748  0.00  0.00    +0.000 OA
ATOM     13  N   UNL     1       0.328  10.555  21.460  0.00  0.00    +0.000 N 
ATOM     14  C   UNL     1      -0.528  11.355  22.176  0.00  0.00    +0.000 A 
ATOM     15  N   UNL     1      -1.545  11.002  22.932  0.00  0.00    +0.000 NA
ATOM     16  C   UNL     1      -2.158  12.137  23.357  0.00  0.00    +0.000 A 
ATOM     17  C   UNL     1      -1.625  13.316  22.927  0.00  0.00    +0.000 A 
ATOM     18  S   UNL     1      -0.244  13.056  22.010  0.00  0.00    +0.000 S 
ATOM     19  C   UNL     1      -2.387  14.508  23.337  0.00  0.00    +0.000 C 
ATOM     20  C   UNL     1      -3.547  13.870  24.181  0.00  0.00    +0.000 C 
ATOM     21  C   UNL     1      -3.370  12.315  24.173  0.00  0.00    +0.000 C 
ATOM     22  H   UNL     1       1.073  11.022  20.962  0.00  0.00    +0.000 HD
ENDBRANCH   9  11
BRANCH   7  23
ATOM     23  C   UNL     1       2.677   5.052  20.250  0.00  0.00    +0.000 A 
ATOM     24  C   UNL     1       1.993   4.250  21.188  0.00  0.00    +0.000 A 
ATOM     25  C   UNL     1       2.387   2.934  21.455  0.00  0.00    +0.000 A 
ATOM     26  C   UNL     1       3.482   2.386  20.791  0.00  0.00    +0.000 A 
ATOM     27  C   UNL     1       4.183   3.157  19.867  0.00  0.00    +0.000 A 
ATOM     28  C   UNL     1       3.778   4.467  19.606  0.00  0.00    +0.000 A 
ATOM     29  F   UNL     1       4.470   5.154  18.680  0.00  0.00    +0.000 F 
ENDBRANCH   7  23
TORSDOF 2
ENDMDL
MODEL 9
REMARK VINA RESULT:      -7.8      5.665     12.066
REMARK  Name = 
REMARK  3 active torsions:
REMARK  status: ('A' for Active; 'I' for Inactive)
REMARK    1  A    between atoms: C_1  and  C_2
REMARK    2  A    between atoms: C_7  and  C_8
REMARK    3  A    between atoms: C_16  and  C_17
REMARK                            x       y       z     vdW  Elec       q    Type
REMARK                         _______ _______ _______ _____ _____    ______ ____
ROOT
ATOM      1  C   UNL     1       1.552  14.394  21.669  0.00  0.00    +0.000 C 
ATOM      2  C   UNL     1       0.241  14.675  22.305  0.00  0.00    +0.000 A 
ATOM      3  N   UNL     1       0.141  15.721  23.136  0.00  0.00    +0.000 NA
ATOM      4  O   UNL     1      -1.174  15.745  23.558  0.00  0.00    +0.000 OA
ATOM      5  C   UNL     1      -1.861  14.726  22.978  0.00  0.00    +0.000 A 
ATOM      6  N   UNL     1      -3.169  14.508  23.192  0.00  0.00    +0.000 NA
ATOM      7  C   UNL     1      -3.693  13.453  22.530  0.00  0.00    +0.000 A 
ATOM      8  C   UNL     1      -2.932  12.628  21.696  0.00  0.00    +0.000 A 
ATOM      9  C   UNL     1      -1.573  12.904  21.487  0.00  0.00    +0.000 A 
ATOM     10  C   UNL     1      -1.006  14.003  22.161  0.00  0.00    +0.000 A 
ENDROOT
BRANCH   9  11
ATOM     11  C   UNL     1      -0.742  12.017  20.651  0.00  0.00    +0.000 C 
ATOM     12  O   UNL     1      -0.722  12.255  19.448  0.00  0.00    +0.000 OA
ATOM     13  N   UNL     1      -0.090  10.992  21.304  0.00  0.00    +0.000 N 
ATOM     14  C   UNL     1       0.650  10.078  20.596  0.00  0.00    +0.000 A 
ATOM     15  N   UNL     1       1.018  10.118  19.333  0.00  0.00    +0.000 NA
ATOM     16  C   UNL     1       1.650   8.949  19.050  0.00  0.00    +0.000 A 
ATOM     17  C   UNL     1       1.750   8.048  20.067  0.00  0.00    +0.000 A 
ATOM     18  S   UNL     1       1.111   8.667  21.490  0.00  0.00    +0.000 S 
ATOM     19  C   UNL     1       2.356   6.763  19.677  0.00  0.00    +0.000 C 
ATOM     20  C   UNL     1       2.682   7.011  18.161  0.00  0.00    +0.000 C 
ATOM     21  C   UNL     1       2.205   8.452  17.780  0.00  0.00    +0.000 C 
ATOM     22  H   UNL     1      -0.240  10.791  22.283  0.00  0.00    +0.000 HD
ENDBRANCH   9  11
BRANCH   7  23
ATOM     23  C   UNL     1      -5.141  13.253  22.755  0.00  0.00    +0.000 A 
ATOM     24  C   UNL     1      -6.077  13.541  21.740  0.00  0.00    +0.000 A 
ATOM     25  C   UNL     1      -7.445  13.303  21.914  0.00  0.00    +0.000 A 
ATOM     26  C   UNL     1      -7.914  12.775  23.115  0.00  0.00    +0.000 A 
ATOM     27  C   UNL     1      -7.014  12.491  24.138  0.00  0.00    +0.000 A 
ATOM     28  C   UNL     1      -5.651  12.728  23.952  0.00  0.00    +0.000 A 
ATOM     29  F   UNL     1      -4.824  12.403  24.961  0.00  0.00    +0.000 F 
ENDBRANCH   7  23
TORSDOF 2
ENDMDL
