MODEL 1
REMARK VINA RESULT:      -8.4      0.000      0.000
REMARK  Name = 
REMARK  8 active torsions:
REMARK  status: ('A' for Active; 'I' for Inactive)
REMARK    1  A    between atoms: C_1  and  C_2
REMARK    2  A    between atoms: C_2  and  C_3
REMARK    3  A    between atoms: C_2  and  C_4
REMARK    4  A    between atoms: C_2  and  N_5
REMARK    5  A    between atoms: N_5  and  C_6
REMARK    6  A    between atoms: C_9  and  C_10
REMARK    7  A    between atoms: C_13  and  C_14
REMARK    8  A    between atoms: C_14  and  C_15
REMARK                            x       y       z     vdW  Elec       q    Type
REMARK                         _______ _______ _______ _____ _____    ______ ____
ROOT
ATOM      1  C   UNL     1       3.074   6.171  18.728  0.00  0.00    +0.000 A 
ATOM      2  N   UNL     1       3.428   5.355  19.739  0.00  0.00    +0.000 NA
ATOM      3  O   UNL     1       4.077   4.296  19.096  0.00  0.00    +0.000 OA
ATOM      4  C   UNL     1       4.036   4.568  17.761  0.00  0.00    +0.000 A 
ATOM      5  N   UNL     1       3.390   5.671  17.477  0.00  0.00    +0.000 NA
ENDROOT
BRANCH   1   9
ATOM      6  C   UNL     1       1.261  10.005  18.985  0.00  0.00    +0.000 A 
ATOM      7  C   UNL     1       1.965   9.608  17.852  0.00  0.00    +0.000 A 
ATOM      8  C   UNL     1       2.523   8.342  17.764  0.00  0.00    +0.000 A 
ATOM      9  C   UNL     1       2.448   7.485  18.855  0.00  0.00    +0.000 A 
ATOM     10  N   UNL     1       1.858   7.855  20.018  0.00  0.00    +0.000 NA
ATOM     11  C   UNL     1       1.301   9.097  20.051  0.00  0.00    +0.000 A 
BRANCH   6  12
ATOM     12  N   UNL     1       0.618  11.238  19.092  0.00  0.00    +0.000 N 
ATOM     13  H   UNL     1       1.097  11.850  19.751  0.00  0.00    +0.000 HD
BRANCH  12  15
ATOM     14  C   UNL     1      -1.380  11.455  20.613  0.00  0.00    +0.000 C 
ATOM     15  C   UNL     1      -0.860  11.374  19.166  0.00  0.00    +0.000 C 
ATOM     16  C   UNL     1      -1.540  10.251  18.366  0.00  0.00    +0.000 C 
ATOM     17  C   UNL     1      -1.237  12.709  18.486  0.00  0.00    +0.000 C 
ENDBRANCH  12  15
ENDBRANCH   6  12
ENDBRANCH   1   9
BRANCH   4  18
ATOM     18  C   UNL     1       4.717   3.630  16.837  0.00  0.00    +0.000 C 
BRANCH  18  19
ATOM     19  C   UNL     1       5.799   4.306  16.052  0.00  0.00    +0.000 A 
ATOM     20  C   UNL     1       6.728   5.201  16.549  0.00  0.00    +0.000 A 
ATOM     21  N   UNL     1       7.543   5.592  15.522  0.00  0.00    +0.000 N 
ATOM     22  C   UNL     1       7.173   4.968  14.355  0.00  0.00    +0.000 A 
ATOM     23  C   UNL     1       7.726   5.062  13.072  0.00  0.00    +0.000 A 
ATOM     24  C   UNL     1       7.130   4.315  12.052  0.00  0.00    +0.000 A 
ATOM     25  C   UNL     1       6.020   3.514  12.310  0.00  0.00    +0.000 A 
ATOM     26  C   UNL     1       5.478   3.432  13.598  0.00  0.00    +0.000 A 
ATOM     27  C   UNL     1       6.069   4.167  14.649  0.00  0.00    +0.000 A 
ATOM     28  H   UNL     1       8.307   6.248  15.602  0.00  0.00    +0.000 HD
ENDBRANCH  18  19
ENDBRANCH   4  18
TORSDOF 5
ENDMDL
MODEL 2
REMARK VINA RESULT:      -8.2      0.863      1.233
REMARK  Name = 
REMARK  8 active torsions:
REMARK  status: ('A' for Active; 'I' for Inactive)
REMARK    1  A    between atoms: C_1  and  C_2
REMARK    2  A    between atoms: C_2  and  C_3
REMARK    3  A    between atoms: C_2  and  C_4
REMARK    4  A    between atoms: C_2  and  N_5
REMARK    5  A    between atoms: N_5  and  C_6
REMARK    6  A    between atoms: C_9  and  C_10
REMARK    7  A    between atoms: C_13  and  C_14
REMARK    8  A    between atoms: C_14  and  C_15
REMARK                            x       y       z     vdW  Elec       q    Type
REMARK                         _______ _______ _______ _____ _____    ______ ____
ROOT
ATOM      1  C   UNL     1       3.195   6.186  18.756  0.00  0.00    +0.000 A 
ATOM      2  N   UNL     1       3.899   5.532  19.699  0.00  0.00    +0.000 NA
ATOM      3  O   UNL     1       4.545   4.517  18.986  0.00  0.00    +0.000 OA
ATOM      4  C   UNL     1       4.155   4.648  17.687  0.00  0.00    +0.000 A 
ATOM      5  N   UNL     1       3.293   5.615  17.499  0.00  0.00    +0.000 NA
ENDROOT
BRANCH   1   9
ATOM      6  C   UNL     1       0.909   9.739  19.201  0.00  0.00    +0.000 A 
ATOM      7  C   UNL     1       1.526   9.418  17.997  0.00  0.00    +0.000 A 
ATOM      8  C   UNL     1       2.240   8.239  17.850  0.00  0.00    +0.000 A 
ATOM      9  C   UNL     1       2.411   7.404  18.947  0.00  0.00    +0.000 A 
ATOM     10  N   UNL     1       1.914   7.714  20.169  0.00  0.00    +0.000 NA
ATOM     11  C   UNL     1       1.197   8.868  20.261  0.00  0.00    +0.000 A 
BRANCH   6  12
ATOM     12  N   UNL     1       0.117  10.874  19.377  0.00  0.00    +0.000 N 
ATOM     13  H   UNL     1      -0.805  10.751  18.962  0.00  0.00    +0.000 HD
BRANCH  12  15
ATOM     14  C   UNL     1       2.047  12.287  18.582  0.00  0.00    +0.000 C 
ATOM     15  C   UNL     1       0.637  12.255  19.200  0.00  0.00    +0.000 C 
ATOM     16  C   UNL     1       0.567  13.027  20.528  0.00  0.00    +0.000 C 
ATOM     17  C   UNL     1      -0.298  12.978  18.205  0.00  0.00    +0.000 C 
ENDBRANCH  12  15
ENDBRANCH   6  12
ENDBRANCH   1   9
BRANCH   4  18
ATOM     18  C   UNL     1       4.749   3.729  16.686  0.00  0.00    +0.000 C 
BRANCH  18  19
ATOM     19  C   UNL     1       5.839   4.389  15.899  0.00  0.00    +0.000 A 
ATOM     20  C   UNL     1       6.769   5.287  16.389  0.00  0.00    +0.000 A 
ATOM     21  N   UNL     1       7.592   5.660  15.363  0.00  0.00    +0.000 N 
ATOM     22  C   UNL     1       7.228   5.022  14.202  0.00  0.00    +0.000 A 
ATOM     23  C   UNL     1       7.790   5.095  12.922  0.00  0.00    +0.000 A 
ATOM     24  C   UNL     1       7.198   4.337  11.909  0.00  0.00    +0.000 A 
ATOM     25  C   UNL     1       6.082   3.544  12.170  0.00  0.00    +0.000 A 
ATOM     26  C   UNL     1       5.532   3.483  13.455  0.00  0.00    +0.000 A 
ATOM     27  C   UNL     1       6.118   4.230  14.500  0.00  0.00    +0.000 A 
ATOM     28  H   UNL     1       8.359   6.314  15.439  0.00  0.00    +0.000 HD
ENDBRANCH  18  19
ENDBRANCH   4  18
TORSDOF 5
ENDMDL
MODEL 3
REMARK VINA RESULT:      -8.2      0.631      1.333
REMARK  Name = 
REMARK  8 active torsions:
REMARK  status: ('A' for Active; 'I' for Inactive)
REMARK    1  A    between atoms: C_1  and  C_2
REMARK    2  A    between atoms: C_2  and  C_3
REMARK    3  A    between atoms: C_2  and  C_4
REMARK    4  A    between atoms: C_2  and  N_5
REMARK    5  A    between atoms: N_5  and  C_6
REMARK    6  A    between atoms: C_9  and  C_10
REMARK    7  A    between atoms: C_13  and  C_14
REMARK    8  A    between atoms: C_14  and  C_15
REMARK                            x       y       z     vdW  Elec       q    Type
REMARK                         _______ _______ _______ _____ _____    ______ ____
ROOT
ATOM      1  C   UNL     1       3.039   6.342  18.805  0.00  0.00    +0.000 A 
ATOM      2  N   UNL     1       3.665   5.602  19.739  0.00  0.00    +0.000 NA
ATOM      3  O   UNL     1       4.259   4.573  19.002  0.00  0.00    +0.000 OA
ATOM      4  C   UNL     1       3.920   4.784  17.699  0.00  0.00    +0.000 A 
ATOM      5  N   UNL     1       3.135   5.817  17.528  0.00  0.00    +0.000 NA
ENDROOT
BRANCH   1   9
ATOM      6  C   UNL     1       1.001   9.993  19.558  0.00  0.00    +0.000 A 
ATOM      7  C   UNL     1       1.045   8.977  20.506  0.00  0.00    +0.000 A 
ATOM      8  C   UNL     1       1.743   7.804  20.265  0.00  0.00    +0.000 A 
ATOM      9  C   UNL     1       2.338   7.606  19.026  0.00  0.00    +0.000 A 
ATOM     10  N   UNL     1       2.245   8.521  18.031  0.00  0.00    +0.000 NA
ATOM     11  C   UNL     1       1.574   9.670  18.321  0.00  0.00    +0.000 A 
BRANCH   6  12
ATOM     12  N   UNL     1       0.378  11.221  19.781  0.00  0.00    +0.000 N 
ATOM     13  H   UNL     1       0.442  11.497  20.760  0.00  0.00    +0.000 HD
BRANCH  12  15
ATOM     14  C   UNL     1      -0.795  12.630  18.052  0.00  0.00    +0.000 C 
ATOM     15  C   UNL     1      -0.930  11.585  19.175  0.00  0.00    +0.000 C 
ATOM     16  C   UNL     1      -1.920  12.026  20.265  0.00  0.00    +0.000 C 
ATOM     17  C   UNL     1      -1.509  10.309  18.524  0.00  0.00    +0.000 C 
ENDBRANCH  12  15
ENDBRANCH   6  12
ENDBRANCH   1   9
BRANCH   4  18
ATOM     18  C   UNL     1       4.478   3.866  16.677  0.00  0.00    +0.000 C 
BRANCH  18  19
ATOM     19  C   UNL     1       5.633   4.478  15.946  0.00  0.00    +0.000 A 
ATOM     20  C   UNL     1       6.561   5.354  16.478  0.00  0.00    +0.000 A 
ATOM     21  N   UNL     1       7.455   5.684  15.497  0.00  0.00    +0.000 N 
ATOM     22  C   UNL     1       7.138   5.040  14.326  0.00  0.00    +0.000 A 
ATOM     23  C   UNL     1       7.776   5.075  13.080  0.00  0.00    +0.000 A 
ATOM     24  C   UNL     1       7.219   4.320  12.044  0.00  0.00    +0.000 A 
ATOM     25  C   UNL     1       6.065   3.567  12.250  0.00  0.00    +0.000 A 
ATOM     26  C   UNL     1       5.439   3.544  13.502  0.00  0.00    +0.000 A 
ATOM     27  C   UNL     1       5.988   4.288  14.568  0.00  0.00    +0.000 A 
ATOM     28  H   UNL     1       8.237   6.314  15.609  0.00  0.00    +0.000 HD
ENDBRANCH  18  19
ENDBRANCH   4  18
TORSDOF 5
ENDMDL
MODEL 4
REMARK VINA RESULT:      -8.0      1.046      1.577
REMARK  Name = 
REMARK  8 active torsions:
REMARK  status: ('A' for Active; 'I' for Inactive)
REMARK    1  A    between atoms: C_1  and  C_2
REMARK    2  A    between atoms: C_2  and  C_3
REMARK    3  A    between atoms: C_2  and  C_4
REMARK    4  A    between atoms: C_2  and  N_5
REMARK    5  A    between atoms: N_5  and  C_6
REMARK    6  A    between atoms: C_9  and  C_10
REMARK    7  A    between atoms: C_13  and  C_14
REMARK    8  A    between atoms: C_14  and  C_15
REMARK                            x       y       z     vdW  Elec       q    Type
REMARK                         _______ _______ _______ _____ _____    ______ ____
ROOT
ATOM      1  C   UNL     1       3.206   6.324  18.698  0.00  0.00    +0.000 A 
ATOM      2  N   UNL     1       3.966   5.761  19.656  0.00  0.00    +0.000 NA
ATOM      3  O   UNL     1       4.622   4.722  18.989  0.00  0.00    +0.000 OA
ATOM      4  C   UNL     1       4.182   4.750  17.699  0.00  0.00    +0.000 A 
ATOM      5  N   UNL     1       3.279   5.672  17.480  0.00  0.00    +0.000 NA
ENDROOT
BRANCH   1   9
ATOM      6  C   UNL     1       0.839   9.815  19.212  0.00  0.00    +0.000 A 
ATOM      7  C   UNL     1       1.119   8.964  20.276  0.00  0.00    +0.000 A 
ATOM      8  C   UNL     1       1.922   7.847  20.106  0.00  0.00    +0.000 A 
ATOM      9  C   UNL     1       2.386   7.527  18.837  0.00  0.00    +0.000 A 
ATOM     10  N   UNL     1       2.064   8.266  17.747  0.00  0.00    +0.000 NA
ATOM     11  C   UNL     1       1.296   9.369  17.965  0.00  0.00    +0.000 A 
BRANCH   6  12
ATOM     12  N   UNL     1       0.100  10.991  19.347  0.00  0.00    +0.000 N 
ATOM     13  H   UNL     1      -0.768  10.946  18.816  0.00  0.00    +0.000 HD
BRANCH  12  15
ATOM     14  C   UNL     1      -0.217  13.409  18.712  0.00  0.00    +0.000 C 
ATOM     15  C   UNL     1       0.719  12.341  19.308  0.00  0.00    +0.000 C 
ATOM     16  C   UNL     1       2.075  12.288  18.586  0.00  0.00    +0.000 C 
ATOM     17  C   UNL     1       0.998  12.765  20.768  0.00  0.00    +0.000 C 
ENDBRANCH  12  15
ENDBRANCH   6  12
ENDBRANCH   1   9
BRANCH   4  18
ATOM     18  C   UNL     1       4.771   3.784  16.741  0.00  0.00    +0.000 C 
BRANCH  18  19
ATOM     19  C   UNL     1       5.849   4.410  15.910  0.00  0.00    +0.000 A 
ATOM     20  C   UNL     1       6.798   5.313  16.352  0.00  0.00    +0.000 A 
ATOM     21  N   UNL     1       7.601   5.647  15.297  0.00  0.00    +0.000 N 
ATOM     22  C   UNL     1       7.204   4.978  14.164  0.00  0.00    +0.000 A 
ATOM     23  C   UNL     1       7.738   5.008  12.870  0.00  0.00    +0.000 A 
ATOM     24  C   UNL     1       7.115   4.226  11.893  0.00  0.00    +0.000 A 
ATOM     25  C   UNL     1       5.998   3.452  12.203  0.00  0.00    +0.000 A 
ATOM     26  C   UNL     1       5.477   3.434  13.502  0.00  0.00    +0.000 A 
ATOM     27  C   UNL     1       6.095   4.206  14.510  0.00  0.00    +0.000 A 
ATOM     28  H   UNL     1       8.375   6.295  15.336  0.00  0.00    +0.000 HD
ENDBRANCH  18  19
ENDBRANCH   4  18
TORSDOF 5
ENDMDL
MODEL 5
REMARK VINA RESULT:      -7.7      3.228      4.996
REMARK  Name = 
REMARK  8 active torsions:
REMARK  status: ('A' for Active; 'I' for Inactive)
REMARK    1  A    between atoms: C_1  and  C_2
REMARK    2  A    between atoms: C_2  and  C_3
REMARK    3  A    between atoms: C_2  and  C_4
REMARK    4  A    between atoms: C_2  and  N_5
REMARK    5  A    between atoms: N_5  and  C_6
REMARK    6  A    between atoms: C_9  and  C_10
REMARK    7  A    between atoms: C_13  and  C_14
REMARK    8  A    between atoms: C_14  and  C_15
REMARK                            x       y       z     vdW  Elec       q    Type
REMARK                         _______ _______ _______ _____ _____    ______ ____
ROOT
ATOM      1  C   UNL     1       1.081   8.847  20.578  0.00  0.00    +0.000 A 
ATOM      2  N   UNL     1       1.483   7.675  21.103  0.00  0.00    +0.000 NA
ATOM      3  O   UNL     1       2.209   7.080  20.067  0.00  0.00    +0.000 OA
ATOM      4  C   UNL     1       2.161   7.944  19.014  0.00  0.00    +0.000 A 
ATOM      5  N   UNL     1       1.442   9.012  19.252  0.00  0.00    +0.000 NA
ENDROOT
BRANCH   1   9
ATOM      6  C   UNL     1      -1.014  11.871  22.703  0.00  0.00    +0.000 A 
ATOM      7  C   UNL     1      -1.050  10.541  23.108  0.00  0.00    +0.000 A 
ATOM      8  C   UNL     1      -0.334   9.567  22.429  0.00  0.00    +0.000 A 
ATOM      9  C   UNL     1       0.364   9.911  21.278  0.00  0.00    +0.000 A 
ATOM     10  N   UNL     1       0.355  11.172  20.784  0.00  0.00    +0.000 NA
ATOM     11  C   UNL     1      -0.339  12.102  21.498  0.00  0.00    +0.000 A 
BRANCH   6  12
ATOM     12  N   UNL     1      -1.654  12.899  23.396  0.00  0.00    +0.000 N 
ATOM     13  H   UNL     1      -1.375  12.916  24.375  0.00  0.00    +0.000 HD
BRANCH  12  15
ATOM     14  C   UNL     1      -3.648  12.725  21.865  0.00  0.00    +0.000 C 
ATOM     15  C   UNL     1      -3.093  13.222  23.213  0.00  0.00    +0.000 C 
ATOM     16  C   UNL     1      -3.334  14.726  23.421  0.00  0.00    +0.000 C 
ATOM     17  C   UNL     1      -3.879  12.479  24.315  0.00  0.00    +0.000 C 
ENDBRANCH  12  15
ENDBRANCH   6  12
ENDBRANCH   1   9
BRANCH   4  18
ATOM     18  C   UNL     1       2.913   7.589  17.787  0.00  0.00    +0.000 C 
BRANCH  18  19
ATOM     19  C   UNL     1       3.620   6.275  17.926  0.00  0.00    +0.000 A 
ATOM     20  C   UNL     1       4.986   6.094  18.044  0.00  0.00    +0.000 A 
ATOM     21  N   UNL     1       5.236   4.753  18.151  0.00  0.00    +0.000 N 
ATOM     22  C   UNL     1       4.060   4.044  18.111  0.00  0.00    +0.000 A 
ATOM     23  C   UNL     1       3.840   2.663  18.195  0.00  0.00    +0.000 A 
ATOM     24  C   UNL     1       2.521   2.210  18.110  0.00  0.00    +0.000 A 
ATOM     25  C   UNL     1       1.467   3.106  17.940  0.00  0.00    +0.000 A 
ATOM     26  C   UNL     1       1.704   4.483  17.857  0.00  0.00    +0.000 A 
ATOM     27  C   UNL     1       3.027   4.969  17.952  0.00  0.00    +0.000 A 
ATOM     28  H   UNL     1       6.151   4.337  18.243  0.00  0.00    +0.000 HD
ENDBRANCH  18  19
ENDBRANCH   4  18
TORSDOF 5
ENDMDL
MODEL 6
REMARK VINA RESULT:      -7.6      1.270      1.875
REMARK  Name = 
REMARK  8 active torsions:
REMARK  status: ('A' for Active; 'I' for Inactive)
REMARK    1  A    between atoms: C_1  and  C_2
REMARK    2  A    between atoms: C_2  and  C_3
REMARK    3  A    between atoms: C_2  and  C_4
REMARK    4  A    between atoms: C_2  and  N_5
REMARK    5  A    between atoms: N_5  and  C_6
REMARK    6  A    between atoms: C_9  and  C_10
REMARK    7  A    between atoms: C_13  and  C_14
REMARK    8  A    between atoms: C_14  and  C_15
REMARK                            x       y       z     vdW  Elec       q    Type
REMARK                         _______ _______ _______ _____ _____    ______ ____
ROOT
ATOM      1  C   UNL     1       2.391   6.260  19.922  0.00  0.00    +0.000 A 
ATOM      2  N   UNL     1       1.861   5.239  20.619  0.00  0.00    +0.000 NA
ATOM      3  O   UNL     1       2.766   4.193  20.414  0.00  0.00    +0.000 OA
ATOM      4  C   UNL     1       3.744   4.682  19.600  0.00  0.00    +0.000 A 
ATOM      5  N   UNL     1       3.538   5.920  19.227  0.00  0.00    +0.000 NA
ENDROOT
BRANCH   1   9
ATOM      6  C   UNL     1       0.939  10.246  19.684  0.00  0.00    +0.000 A 
ATOM      7  C   UNL     1       1.583   9.642  18.609  0.00  0.00    +0.000 A 
ATOM      8  C   UNL     1       2.022   8.330  18.684  0.00  0.00    +0.000 A 
ATOM      9  C   UNL     1       1.889   7.632  19.878  0.00  0.00    +0.000 A 
ATOM     10  N   UNL     1       1.357   8.203  20.986  0.00  0.00    +0.000 NA
ATOM     11  C   UNL     1       0.915   9.485  20.860  0.00  0.00    +0.000 A 
BRANCH   6  12
ATOM     12  N   UNL     1       0.413  11.537  19.632  0.00  0.00    +0.000 N 
ATOM     13  H   UNL     1       0.606  12.051  20.490  0.00  0.00    +0.000 HD
BRANCH  12  15
ATOM     14  C   UNL     1      -1.618  10.602  18.470  0.00  0.00    +0.000 C 
ATOM     15  C   UNL     1      -0.936  11.838  19.085  0.00  0.00    +0.000 C 
ATOM     16  C   UNL     1      -0.862  13.013  18.097  0.00  0.00    +0.000 C 
ATOM     17  C   UNL     1      -1.824  12.292  20.265  0.00  0.00    +0.000 C 
ENDBRANCH  12  15
ENDBRANCH   6  12
ENDBRANCH   1   9
BRANCH   4  18
ATOM     18  C   UNL     1       4.883   3.793  19.268  0.00  0.00    +0.000 C 
BRANCH  18  19
ATOM     19  C   UNL     1       5.873   4.466  18.368  0.00  0.00    +0.000 A 
ATOM     20  C   UNL     1       6.926   5.267  18.769  0.00  0.00    +0.000 A 
ATOM     21  N   UNL     1       7.597   5.689  17.654  0.00  0.00    +0.000 N 
ATOM     22  C   UNL     1       7.009   5.179  16.521  0.00  0.00    +0.000 A 
ATOM     23  C   UNL     1       7.362   5.340  15.176  0.00  0.00    +0.000 A 
ATOM     24  C   UNL     1       6.566   4.708  14.216  0.00  0.00    +0.000 A 
ATOM     25  C   UNL     1       5.458   3.953  14.593  0.00  0.00    +0.000 A 
ATOM     26  C   UNL     1       5.119   3.802  15.943  0.00  0.00    +0.000 A 
ATOM     27  C   UNL     1       5.913   4.420  16.933  0.00  0.00    +0.000 A 
ATOM     28  H   UNL     1       8.406   6.294  17.655  0.00  0.00    +0.000 HD
ENDBRANCH  18  19
ENDBRANCH   4  18
TORSDOF 5
ENDMDL
MODEL 7
REMARK VINA RESULT:      -7.6      3.208      9.271
REMARK  Name = 
REMARK  8 active torsions:
REMARK  status: ('A' for Active; 'I' for Inactive)
REMARK    1  A    between atoms: C_1  and  C_2
REMARK    2  A    between atoms: C_2  and  C_3
REMARK    3  A    between atoms: C_2  and  C_4
REMARK    4  A    between atoms: C_2  and  N_5
REMARK    5  A    between atoms: N_5  and  C_6
REMARK    6  A    between atoms: C_9  and  C_10
REMARK    7  A    between atoms: C_13  and  C_14
REMARK    8  A    between atoms: C_14  and  C_15
REMARK                            x       y       z     vdW  Elec       q    Type
REMARK                         _______ _______ _______ _____ _____    ______ ____
ROOT
ATOM      1  C   UNL     1       0.817   8.695  20.780  0.00  0.00    +0.000 A 
ATOM      2  N   UNL     1      -0.053   8.758  21.805  0.00  0.00    +0.000 NA
ATOM      3  O   UNL     1      -0.579  10.051  21.713  0.00  0.00    +0.000 OA
ATOM      4  C   UNL     1       0.038  10.645  20.652  0.00  0.00    +0.000 A 
ATOM      5  N   UNL     1       0.936   9.883  20.080  0.00  0.00    +0.000 NA
ENDROOT
BRANCH   1   9
ATOM      6  C   UNL     1       2.948   5.210  19.611  0.00  0.00    +0.000 A 
ATOM      7  C   UNL     1       2.079   5.200  20.696  0.00  0.00    +0.000 A 
ATOM      8  C   UNL     1       1.361   6.332  21.048  0.00  0.00    +0.000 A 
ATOM      9  C   UNL     1       1.574   7.518  20.357  0.00  0.00    +0.000 A 
ATOM     10  N   UNL     1       2.480   7.610  19.353  0.00  0.00    +0.000 NA
ATOM     11  C   UNL     1       3.143   6.467  19.023  0.00  0.00    +0.000 A 
BRANCH   6  12
ATOM     12  N   UNL     1       3.635   4.079  19.170  0.00  0.00    +0.000 N 
ATOM     13  H   UNL     1       4.643   4.207  19.238  0.00  0.00    +0.000 HD
BRANCH  12  15
ATOM     14  C   UNL     1       1.808   3.635  17.492  0.00  0.00    +0.000 C 
ATOM     15  C   UNL     1       3.242   3.318  17.955  0.00  0.00    +0.000 C 
ATOM     16  C   UNL     1       3.463   1.812  18.172  0.00  0.00    +0.000 C 
ATOM     17  C   UNL     1       4.182   3.756  16.810  0.00  0.00    +0.000 C 
ENDBRANCH  12  15
ENDBRANCH   6  12
ENDBRANCH   1   9
BRANCH   4  18
ATOM     18  C   UNL     1      -0.383  12.018  20.282  0.00  0.00    +0.000 C 
BRANCH  18  19
ATOM     19  C   UNL     1      -1.757  12.039  19.685  0.00  0.00    +0.000 A 
ATOM     20  C   UNL     1      -2.849  12.730  20.178  0.00  0.00    +0.000 A 
ATOM     21  N   UNL     1      -3.915  12.496  19.354  0.00  0.00    +0.000 N 
ATOM     22  C   UNL     1      -3.549  11.665  18.323  0.00  0.00    +0.000 A 
ATOM     23  C   UNL     1      -4.307  11.174  17.252  0.00  0.00    +0.000 A 
ATOM     24  C   UNL     1      -3.671  10.322  16.345  0.00  0.00    +0.000 A 
ATOM     25  C   UNL     1      -2.332   9.974  16.509  0.00  0.00    +0.000 A 
ATOM     26  C   UNL     1      -1.589  10.473  17.585  0.00  0.00    +0.000 A 
ATOM     27  C   UNL     1      -2.204  11.345  18.511  0.00  0.00    +0.000 A 
ATOM     28  H   UNL     1      -4.844  12.873  19.482  0.00  0.00    +0.000 HD
ENDBRANCH  18  19
ENDBRANCH   4  18
TORSDOF 5
ENDMDL
MODEL 8
REMARK VINA RESULT:      -7.5      6.040      7.560
REMARK  Name = 
REMARK  8 active torsions:
REMARK  status: ('A' for Active; 'I' for Inactive)
REMARK    1  A    between atoms: C_1  and  C_2
REMARK    2  A    between atoms: C_2  and  C_3
REMARK    3  A    between atoms: C_2  and  C_4
REMARK    4  A    between atoms: C_2  and  N_5
REMARK    5  A    between atoms: N_5  and  C_6
REMARK    6  A    between atoms: C_9  and  C_10
REMARK    7  A    between atoms: C_13  and  C_14
REMARK    8  A    between atoms: C_14  and  C_15
REMARK                            x       y       z     vdW  Elec       q    Type
REMARK                         _______ _______ _______ _____ _____    ______ ____
ROOT
ATOM      1  C   UNL     1       8.338   9.048  18.179  0.00  0.00    +0.000 A 
ATOM      2  N   UNL     1       7.442   8.842  17.196  0.00  0.00    +0.000 NA
ATOM      3  O   UNL     1       7.139   7.481  17.304  0.00  0.00    +0.000 OA
ATOM      4  C   UNL     1       7.894   6.997  18.331  0.00  0.00    +0.000 A 
ATOM      5  N   UNL     1       8.681   7.896  18.865  0.00  0.00    +0.000 NA
ENDROOT
BRANCH   1   9
ATOM      6  C   UNL     1      10.058  12.733  19.412  0.00  0.00    +0.000 A 
ATOM      7  C   UNL     1       9.999  11.636  20.266  0.00  0.00    +0.000 A 
ATOM      8  C   UNL     1       9.468  10.428  19.843  0.00  0.00    +0.000 A 
ATOM      9  C   UNL     1       8.912  10.333  18.574  0.00  0.00    +0.000 A 
ATOM     10  N   UNL     1       8.855  11.396  17.735  0.00  0.00    +0.000 NA
ATOM     11  C   UNL     1       9.412  12.556  18.181  0.00  0.00    +0.000 A 
BRANCH   6  12
ATOM     12  N   UNL     1      10.650  13.946  19.764  0.00  0.00    +0.000 N 
ATOM     13  H   UNL     1      11.625  13.819  20.031  0.00  0.00    +0.000 HD
BRANCH  12  15
ATOM     14  C   UNL     1       9.815  14.534  22.068  0.00  0.00    +0.000 C 
ATOM     15  C   UNL     1       9.964  14.967  20.597  0.00  0.00    +0.000 C 
ATOM     16  C   UNL     1       8.617  15.355  19.966  0.00  0.00    +0.000 C 
ATOM     17  C   UNL     1      10.847  16.235  20.598  0.00  0.00    +0.000 C 
ENDBRANCH  12  15
ENDBRANCH   6  12
ENDBRANCH   1   9
BRANCH   4  18
ATOM     18  C   UNL     1       7.720   5.575  18.712  0.00  0.00    +0.000 C 
BRANCH  18  19
ATOM     19  C   UNL     1       6.662   4.903  17.892  0.00  0.00    +0.000 A 
ATOM     20  C   UNL     1       6.855   4.259  16.683  0.00  0.00    +0.000 A 
ATOM     21  N   UNL     1       5.649   3.776  16.254  0.00  0.00    +0.000 N 
ATOM     22  C   UNL     1       4.662   4.085  17.158  0.00  0.00    +0.000 A 
ATOM     23  C   UNL     1       3.294   3.787  17.132  0.00  0.00    +0.000 A 
ATOM     24  C   UNL     1       2.509   4.245  18.194  0.00  0.00    +0.000 A 
ATOM     25  C   UNL     1       3.075   4.979  19.235  0.00  0.00    +0.000 A 
ATOM     26  C   UNL     1       4.444   5.270  19.245  0.00  0.00    +0.000 A 
ATOM     27  C   UNL     1       5.261   4.809  18.191  0.00  0.00    +0.000 A 
ATOM     28  H   UNL     1       5.497   3.268  15.394  0.00  0.00    +0.000 HD
ENDBRANCH  18  19
ENDBRANCH   4  18
TORSDOF 5
ENDMDL
MODEL 9
REMARK VINA RESULT:      -7.5      3.149      4.422
REMARK  Name = 
REMARK  8 active torsions:
REMARK  status: ('A' for Active; 'I' for Inactive)
REMARK    1  A    between atoms: C_1  and  C_2
REMARK    2  A    between atoms: C_2  and  C_3
REMARK    3  A    between atoms: C_2  and  C_4
REMARK    4  A    between atoms: C_2  and  N_5
REMARK    5  A    between atoms: N_5  and  C_6
REMARK    6  A    between atoms: C_9  and  C_10
REMARK    7  A    between atoms: C_13  and  C_14
REMARK    8  A    between atoms: C_14  and  C_15
REMARK                            x       y       z     vdW  Elec       q    Type
REMARK                         _______ _______ _______ _____ _____    ______ ____
ROOT
ATOM      1  C   UNL     1       1.393   8.935  19.289  0.00  0.00    +0.000 A 
ATOM      2  N   UNL     1       1.723   8.058  20.254  0.00  0.00    +0.000 NA
ATOM      3  O   UNL     1       2.651   7.216  19.633  0.00  0.00    +0.000 OA
ATOM      4  C   UNL     1       2.776   7.658  18.349  0.00  0.00    +0.000 A 
ATOM      5  N   UNL     1       1.994   8.670  18.071  0.00  0.00    +0.000 NA
ENDROOT
BRANCH   1   9
ATOM      6  C   UNL     1      -1.205  12.278  19.648  0.00  0.00    +0.000 A 
ATOM      7  C   UNL     1      -1.305  11.391  18.581  0.00  0.00    +0.000 A 
ATOM      8  C   UNL     1      -0.477  10.283  18.491  0.00  0.00    +0.000 A 
ATOM      9  C   UNL     1       0.524  10.101  19.438  0.00  0.00    +0.000 A 
ATOM     10  N   UNL     1       0.730  10.986  20.444  0.00  0.00    +0.000 NA
ATOM     11  C   UNL     1      -0.125  12.044  20.509  0.00  0.00    +0.000 A 
BRANCH   6  12
ATOM     12  N   UNL     1      -2.064  13.364  19.823  0.00  0.00    +0.000 N 
ATOM     13  H   UNL     1      -1.544  14.231  19.945  0.00  0.00    +0.000 HD
BRANCH  12  15
ATOM     14  C   UNL     1      -2.997  12.676  22.061  0.00  0.00    +0.000 C 
ATOM     15  C   UNL     1      -3.275  13.303  20.682  0.00  0.00    +0.000 C 
ATOM     16  C   UNL     1      -4.421  12.595  19.941  0.00  0.00    +0.000 C 
ATOM     17  C   UNL     1      -3.731  14.756  20.942  0.00  0.00    +0.000 C 
ENDBRANCH  12  15
ENDBRANCH   6  12
ENDBRANCH   1   9
BRANCH   4  18
ATOM     18  C   UNL     1       3.758   6.978  17.472  0.00  0.00    +0.000 C 
BRANCH  18  19
ATOM     19  C   UNL     1       4.173   5.648  18.023  0.00  0.00    +0.000 A 
ATOM     20  C   UNL     1       5.441   5.305  18.456  0.00  0.00    +0.000 A 
ATOM     21  N   UNL     1       5.413   4.008  18.888  0.00  0.00    +0.000 N 
ATOM     22  C   UNL     1       4.149   3.486  18.753  0.00  0.00    +0.000 A 
ATOM     23  C   UNL     1       3.663   2.212  19.074  0.00  0.00    +0.000 A 
ATOM     24  C   UNL     1       2.317   1.947  18.813  0.00  0.00    +0.000 A 
ATOM     25  C   UNL     1       1.494   2.918  18.247  0.00  0.00    +0.000 A 
ATOM     26  C   UNL     1       1.995   4.186  17.932  0.00  0.00    +0.000 A 
ATOM     27  C   UNL     1       3.349   4.485  18.196  0.00  0.00    +0.000 A 
ATOM     28  H   UNL     1       6.206   3.497  19.252  0.00  0.00    +0.000 HD
ENDBRANCH  18  19
ENDBRANCH   4  18
TORSDOF 5
ENDMDL
