MODEL 1
REMARK VINA RESULT:      -8.8      0.000      0.000
REMARK  Name = 
REMARK  4 active torsions:
REMARK  status: ('A' for Active; 'I' for Inactive)
REMARK    1  A    between atoms: C_6  and  C_7
REMARK    2  A    between atoms: C_7  and  C_8
REMARK    3  A    between atoms: C_8  and  N_9
REMARK    4  A    between atoms: C_16  and  C_17
REMARK                            x       y       z     vdW  Elec       q    Type
REMARK                         _______ _______ _______ _____ _____    ______ ____
ROOT
ATOM      1  N   UNL     1       4.041   2.782  18.572  0.00  0.00    +0.000 N 
ATOM      2  C   UNL     1       4.856   3.465  17.645  0.00  0.00    +0.000 A 
ATOM      3  C   UNL     1       4.706   3.254  16.165  0.00  0.00    +0.000 A 
ATOM      4  C   UNL     1       5.449   4.017  15.332  0.00  0.00    +0.000 A 
ATOM      5  C   UNL     1       6.337   4.978  15.861  0.00  0.00    +0.000 A 
ATOM      6  N   UNL     1       7.158   5.833  15.311  0.00  0.00    +0.000 NA
ATOM      7  N   UNL     1       7.800   6.502  16.331  0.00  0.00    +0.000 NA
ATOM      8  C   UNL     1       7.355   6.021  17.481  0.00  0.00    +0.000 A 
ATOM      9  N   UNL     1       6.419   5.050  17.233  0.00  0.00    +0.000 N 
ATOM     10  N   UNL     1       5.711   4.338  18.131  0.00  0.00    +0.000 NA
ATOM     11  H   UNL     1       3.241   2.312  18.172  0.00  0.00    +0.000 HD
ENDROOT
BRANCH   8  12
ATOM     12  C   UNL     1       7.775   6.403  18.840  0.00  0.00    +0.000 C 
ATOM     13  F   UNL     1       8.439   5.400  19.476  0.00  0.00    +0.000 F 
ATOM     14  F   UNL     1       8.610   7.478  18.838  0.00  0.00    +0.000 F 
ENDBRANCH   8  12
BRANCH   1  15
ATOM     15  C   UNL     1       3.732   3.592  19.746  0.00  0.00    +0.000 C 
BRANCH  15  16
ATOM     16  C   UNL     1       2.321   3.868  20.238  0.00  0.00    +0.000 C 
ATOM     17  C   UNL     1       1.245   2.799  20.240  0.00  0.00    +0.000 C 
ATOM     18  C   UNL     1       1.764   3.324  21.547  0.00  0.00    +0.000 C 
BRANCH  16  24
ATOM     19  F   UNL     1       3.016   7.681  17.271  0.00  0.00    +0.000 F 
ATOM     20  C   UNL     1       2.489   7.221  18.416  0.00  0.00    +0.000 A 
ATOM     21  C   UNL     1       2.090   8.121  19.392  0.00  0.00    +0.000 A 
ATOM     22  C   UNL     1       1.596   7.636  20.600  0.00  0.00    +0.000 A 
ATOM     23  C   UNL     1       1.548   6.255  20.830  0.00  0.00    +0.000 A 
ATOM     24  C   UNL     1       1.989   5.328  19.861  0.00  0.00    +0.000 A 
ATOM     25  C   UNL     1       2.426   5.846  18.630  0.00  0.00    +0.000 A 
ENDBRANCH  16  24
ENDBRANCH  15  16
ENDBRANCH   1  15
TORSDOF 4
ENDMDL
MODEL 2
REMARK VINA RESULT:      -8.8      1.001      1.401
REMARK  Name = 
REMARK  4 active torsions:
REMARK  status: ('A' for Active; 'I' for Inactive)
REMARK    1  A    between atoms: C_6  and  C_7
REMARK    2  A    between atoms: C_7  and  C_8
REMARK    3  A    between atoms: C_8  and  N_9
REMARK    4  A    between atoms: C_16  and  C_17
REMARK                            x       y       z     vdW  Elec       q    Type
REMARK                         _______ _______ _______ _____ _____    ______ ____
ROOT
ATOM      1  N   UNL     1       4.025   2.819  18.544  0.00  0.00    +0.000 N 
ATOM      2  C   UNL     1       4.851   3.492  17.620  0.00  0.00    +0.000 A 
ATOM      3  C   UNL     1       4.717   3.265  16.140  0.00  0.00    +0.000 A 
ATOM      4  C   UNL     1       5.472   4.018  15.308  0.00  0.00    +0.000 A 
ATOM      5  C   UNL     1       6.356   4.982  15.838  0.00  0.00    +0.000 A 
ATOM      6  N   UNL     1       7.185   5.830  15.289  0.00  0.00    +0.000 NA
ATOM      7  N   UNL     1       7.817   6.508  16.309  0.00  0.00    +0.000 NA
ATOM      8  C   UNL     1       7.357   6.040  17.458  0.00  0.00    +0.000 A 
ATOM      9  N   UNL     1       6.423   5.068  17.210  0.00  0.00    +0.000 N 
ATOM     10  N   UNL     1       5.703   4.367  18.106  0.00  0.00    +0.000 NA
ATOM     11  H   UNL     1       3.227   2.347  18.140  0.00  0.00    +0.000 HD
ENDROOT
BRANCH   8  12
ATOM     12  C   UNL     1       7.763   6.436  18.818  0.00  0.00    +0.000 C 
ATOM     13  F   UNL     1       8.456   5.453  19.455  0.00  0.00    +0.000 F 
ATOM     14  F   UNL     1       8.565   7.535  18.818  0.00  0.00    +0.000 F 
ENDBRANCH   8  12
BRANCH   1  15
ATOM     15  C   UNL     1       3.704   3.642  19.706  0.00  0.00    +0.000 C 
BRANCH  15  16
ATOM     16  C   UNL     1       2.324   4.214  19.986  0.00  0.00    +0.000 C 
ATOM     17  C   UNL     1       1.055   3.444  19.673  0.00  0.00    +0.000 C 
ATOM     18  C   UNL     1       1.416   3.717  21.104  0.00  0.00    +0.000 C 
BRANCH  16  24
ATOM     19  F   UNL     1       0.947   8.727  21.235  0.00  0.00    +0.000 F 
ATOM     20  C   UNL     1       1.573   7.942  20.346  0.00  0.00    +0.000 A 
ATOM     21  C   UNL     1       1.853   8.435  19.080  0.00  0.00    +0.000 A 
ATOM     22  C   UNL     1       2.453   7.598  18.144  0.00  0.00    +0.000 A 
ATOM     23  C   UNL     1       2.726   6.264  18.474  0.00  0.00    +0.000 A 
ATOM     24  C   UNL     1       2.409   5.736  19.745  0.00  0.00    +0.000 A 
ATOM     25  C   UNL     1       1.861   6.622  20.687  0.00  0.00    +0.000 A 
ENDBRANCH  16  24
ENDBRANCH  15  16
ENDBRANCH   1  15
TORSDOF 4
ENDMDL
MODEL 3
REMARK VINA RESULT:      -8.4      4.336      6.689
REMARK  Name = 
REMARK  4 active torsions:
REMARK  status: ('A' for Active; 'I' for Inactive)
REMARK    1  A    between atoms: C_6  and  C_7
REMARK    2  A    between atoms: C_7  and  C_8
REMARK    3  A    between atoms: C_8  and  N_9
REMARK    4  A    between atoms: C_16  and  C_17
REMARK                            x       y       z     vdW  Elec       q    Type
REMARK                         _______ _______ _______ _____ _____    ______ ____
ROOT
ATOM      1  N   UNL     1       2.714   6.530  19.763  0.00  0.00    +0.000 N 
ATOM      2  C   UNL     1       2.044   7.763  19.630  0.00  0.00    +0.000 A 
ATOM      3  C   UNL     1       2.097   8.551  18.351  0.00  0.00    +0.000 A 
ATOM      4  C   UNL     1       1.349   9.674  18.261  0.00  0.00    +0.000 A 
ATOM      5  C   UNL     1       0.550  10.077  19.352  0.00  0.00    +0.000 A 
ATOM      6  N   UNL     1      -0.254  11.090  19.542  0.00  0.00    +0.000 NA
ATOM      7  N   UNL     1      -0.747  10.988  20.826  0.00  0.00    +0.000 NA
ATOM      8  C   UNL     1      -0.214   9.914  21.386  0.00  0.00    +0.000 A 
ATOM      9  N   UNL     1       0.617   9.299  20.485  0.00  0.00    +0.000 N 
ATOM     10  N   UNL     1       1.324   8.166  20.655  0.00  0.00    +0.000 NA
ATOM     11  H   UNL     1       3.050   6.131  18.897  0.00  0.00    +0.000 HD
ENDROOT
BRANCH   8  12
ATOM     12  C   UNL     1      -0.417   9.419  22.759  0.00  0.00    +0.000 C 
ATOM     13  F   UNL     1       0.731   9.443  23.489  0.00  0.00    +0.000 F 
ATOM     14  F   UNL     1      -1.327  10.163  23.445  0.00  0.00    +0.000 F 
ENDBRANCH   8  12
BRANCH   1  15
ATOM     15  C   UNL     1       1.987   5.589  20.610  0.00  0.00    +0.000 C 
BRANCH  15  16
ATOM     16  C   UNL     1       2.131   4.080  20.518  0.00  0.00    +0.000 C 
ATOM     17  C   UNL     1       2.214   3.201  21.751  0.00  0.00    +0.000 C 
ATOM     18  C   UNL     1       1.012   3.104  20.859  0.00  0.00    +0.000 C 
BRANCH  16  24
ATOM     19  F   UNL     1       6.482   4.244  18.312  0.00  0.00    +0.000 F 
ATOM     20  C   UNL     1       5.165   4.022  18.197  0.00  0.00    +0.000 A 
ATOM     21  C   UNL     1       4.586   3.992  16.937  0.00  0.00    +0.000 A 
ATOM     22  C   UNL     1       3.210   3.816  16.827  0.00  0.00    +0.000 A 
ATOM     23  C   UNL     1       2.425   3.715  17.982  0.00  0.00    +0.000 A 
ATOM     24  C   UNL     1       2.994   3.784  19.273  0.00  0.00    +0.000 A 
ATOM     25  C   UNL     1       4.392   3.901  19.350  0.00  0.00    +0.000 A 
ENDBRANCH  16  24
ENDBRANCH  15  16
ENDBRANCH   1  15
TORSDOF 4
ENDMDL
MODEL 4
REMARK VINA RESULT:      -8.4      2.320      6.177
REMARK  Name = 
REMARK  4 active torsions:
REMARK  status: ('A' for Active; 'I' for Inactive)
REMARK    1  A    between atoms: C_6  and  C_7
REMARK    2  A    between atoms: C_7  and  C_8
REMARK    3  A    between atoms: C_8  and  N_9
REMARK    4  A    between atoms: C_16  and  C_17
REMARK                            x       y       z     vdW  Elec       q    Type
REMARK                         _______ _______ _______ _____ _____    ______ ____
ROOT
ATOM      1  N   UNL     1       4.313   6.578  17.749  0.00  0.00    +0.000 N 
ATOM      2  C   UNL     1       3.503   5.902  18.685  0.00  0.00    +0.000 A 
ATOM      3  C   UNL     1       2.570   6.648  19.597  0.00  0.00    +0.000 A 
ATOM      4  C   UNL     1       1.750   5.931  20.398  0.00  0.00    +0.000 A 
ATOM      5  C   UNL     1       1.789   4.520  20.363  0.00  0.00    +0.000 A 
ATOM      6  N   UNL     1       1.129   3.594  21.006  0.00  0.00    +0.000 NA
ATOM      7  N   UNL     1       1.613   2.375  20.582  0.00  0.00    +0.000 NA
ATOM      8  C   UNL     1       2.567   2.599  19.694  0.00  0.00    +0.000 A 
ATOM      9  N   UNL     1       2.714   3.951  19.519  0.00  0.00    +0.000 N 
ATOM     10  N   UNL     1       3.557   4.588  18.684  0.00  0.00    +0.000 NA
ATOM     11  H   UNL     1       4.076   7.549  17.601  0.00  0.00    +0.000 HD
ENDROOT
BRANCH   8  12
ATOM     12  C   UNL     1       3.396   1.603  18.992  0.00  0.00    +0.000 C 
ATOM     13  F   UNL     1       3.395   1.791  17.644  0.00  0.00    +0.000 F 
ATOM     14  F   UNL     1       4.698   1.647  19.387  0.00  0.00    +0.000 F 
ENDBRANCH   8  12
BRANCH   1  15
ATOM     15  C   UNL     1       4.496   5.815  16.518  0.00  0.00    +0.000 C 
BRANCH  15  16
ATOM     16  C   UNL     1       5.824   5.222  16.078  0.00  0.00    +0.000 C 
ATOM     17  C   UNL     1       5.951   3.782  15.620  0.00  0.00    +0.000 C 
ATOM     18  C   UNL     1       6.161   4.890  14.630  0.00  0.00    +0.000 C 
BRANCH  16  24
ATOM     19  F   UNL     1       8.343   5.336  20.257  0.00  0.00    +0.000 F 
ATOM     20  C   UNL     1       8.039   5.949  19.104  0.00  0.00    +0.000 A 
ATOM     21  C   UNL     1       8.340   7.294  18.948  0.00  0.00    +0.000 A 
ATOM     22  C   UNL     1       7.973   7.938  17.770  0.00  0.00    +0.000 A 
ATOM     23  C   UNL     1       7.270   7.238  16.781  0.00  0.00    +0.000 A 
ATOM     24  C   UNL     1       6.921   5.879  16.943  0.00  0.00    +0.000 A 
ATOM     25  C   UNL     1       7.358   5.241  18.116  0.00  0.00    +0.000 A 
ENDBRANCH  16  24
ENDBRANCH  15  16
ENDBRANCH   1  15
TORSDOF 4
ENDMDL
MODEL 5
REMARK VINA RESULT:      -8.3      3.010      6.722
REMARK  Name = 
REMARK  4 active torsions:
REMARK  status: ('A' for Active; 'I' for Inactive)
REMARK    1  A    between atoms: C_6  and  C_7
REMARK    2  A    between atoms: C_7  and  C_8
REMARK    3  A    between atoms: C_8  and  N_9
REMARK    4  A    between atoms: C_16  and  C_17
REMARK                            x       y       z     vdW  Elec       q    Type
REMARK                         _______ _______ _______ _____ _____    ______ ____
ROOT
ATOM      1  N   UNL     1       4.426   6.634  17.381  0.00  0.00    +0.000 N 
ATOM      2  C   UNL     1       3.722   6.053  18.456  0.00  0.00    +0.000 A 
ATOM      3  C   UNL     1       2.592   6.776  19.134  0.00  0.00    +0.000 A 
ATOM      4  C   UNL     1       1.896   6.119  20.090  0.00  0.00    +0.000 A 
ATOM      5  C   UNL     1       2.241   4.793  20.426  0.00  0.00    +0.000 A 
ATOM      6  N   UNL     1       1.757   3.936  21.286  0.00  0.00    +0.000 NA
ATOM      7  N   UNL     1       2.520   2.791  21.200  0.00  0.00    +0.000 NA
ATOM      8  C   UNL     1       3.459   2.992  20.290  0.00  0.00    +0.000 A 
ATOM      9  N   UNL     1       3.321   4.252  19.768  0.00  0.00    +0.000 N 
ATOM     10  N   UNL     1       4.059   4.830  18.801  0.00  0.00    +0.000 NA
ATOM     11  H   UNL     1       3.995   7.457  16.982  0.00  0.00    +0.000 HD
ENDROOT
BRANCH   8  12
ATOM     12  C   UNL     1       4.528   2.065  19.879  0.00  0.00    +0.000 C 
ATOM     13  F   UNL     1       5.100   1.434  20.941  0.00  0.00    +0.000 F 
ATOM     14  F   UNL     1       4.071   1.087  19.049  0.00  0.00    +0.000 F 
ENDBRANCH   8  12
BRANCH   1  15
ATOM     15  C   UNL     1       4.851   5.645  16.394  0.00  0.00    +0.000 C 
BRANCH  15  16
ATOM     16  C   UNL     1       6.302   5.292  16.118  0.00  0.00    +0.000 C 
ATOM     17  C   UNL     1       7.445   5.904  16.907  0.00  0.00    +0.000 C 
ATOM     18  C   UNL     1       7.155   4.438  17.049  0.00  0.00    +0.000 C 
BRANCH  16  24
ATOM     19  F   UNL     1       5.275   2.530  12.228  0.00  0.00    +0.000 F 
ATOM     20  C   UNL     1       5.982   3.551  12.733  0.00  0.00    +0.000 A 
ATOM     21  C   UNL     1       7.082   4.029  12.038  0.00  0.00    +0.000 A 
ATOM     22  C   UNL     1       7.844   5.052  12.594  0.00  0.00    +0.000 A 
ATOM     23  C   UNL     1       7.520   5.554  13.860  0.00  0.00    +0.000 A 
ATOM     24  C   UNL     1       6.427   5.050  14.599  0.00  0.00    +0.000 A 
ATOM     25  C   UNL     1       5.641   4.060  13.985  0.00  0.00    +0.000 A 
ENDBRANCH  16  24
ENDBRANCH  15  16
ENDBRANCH   1  15
TORSDOF 4
ENDMDL
MODEL 6
REMARK VINA RESULT:      -8.2      2.453      5.970
REMARK  Name = 
REMARK  4 active torsions:
REMARK  status: ('A' for Active; 'I' for Inactive)
REMARK    1  A    between atoms: C_6  and  C_7
REMARK    2  A    between atoms: C_7  and  C_8
REMARK    3  A    between atoms: C_8  and  N_9
REMARK    4  A    between atoms: C_16  and  C_17
REMARK                            x       y       z     vdW  Elec       q    Type
REMARK                         _______ _______ _______ _____ _____    ______ ____
ROOT
ATOM      1  N   UNL     1       3.337   5.573  17.584  0.00  0.00    +0.000 N 
ATOM      2  C   UNL     1       2.906   4.995  18.797  0.00  0.00    +0.000 A 
ATOM      3  C   UNL     1       1.653   5.460  19.484  0.00  0.00    +0.000 A 
ATOM      4  C   UNL     1       1.245   4.794  20.588  0.00  0.00    +0.000 A 
ATOM      5  C   UNL     1       1.994   3.697  21.065  0.00  0.00    +0.000 A 
ATOM      6  N   UNL     1       1.843   2.888  22.080  0.00  0.00    +0.000 NA
ATOM      7  N   UNL     1       2.909   2.014  22.072  0.00  0.00    +0.000 NA
ATOM      8  C   UNL     1       3.688   2.328  21.050  0.00  0.00    +0.000 A 
ATOM      9  N   UNL     1       3.146   3.392  20.378  0.00  0.00    +0.000 N 
ATOM     10  N   UNL     1       3.617   3.994  19.268  0.00  0.00    +0.000 NA
ATOM     11  H   UNL     1       2.655   6.160  17.124  0.00  0.00    +0.000 HD
ENDROOT
BRANCH   8  12
ATOM     12  C   UNL     1       4.961   1.696  20.660  0.00  0.00    +0.000 C 
ATOM     13  F   UNL     1       5.456   0.888  21.638  0.00  0.00    +0.000 F 
ATOM     14  F   UNL     1       4.832   0.921  19.549  0.00  0.00    +0.000 F 
ENDBRANCH   8  12
BRANCH   1  15
ATOM     15  C   UNL     1       3.981   4.603  16.704  0.00  0.00    +0.000 C 
BRANCH  15  16
ATOM     16  C   UNL     1       5.399   4.745  16.179  0.00  0.00    +0.000 C 
ATOM     17  C   UNL     1       6.086   3.638  15.401  0.00  0.00    +0.000 C 
ATOM     18  C   UNL     1       5.740   4.921  14.704  0.00  0.00    +0.000 C 
BRANCH  16  24
ATOM     19  F   UNL     1       7.789   8.866  17.246  0.00  0.00    +0.000 F 
ATOM     20  C   UNL     1       7.466   7.618  17.618  0.00  0.00    +0.000 A 
ATOM     21  C   UNL     1       8.183   7.002  18.632  0.00  0.00    +0.000 A 
ATOM     22  C   UNL     1       7.879   5.688  18.976  0.00  0.00    +0.000 A 
ATOM     23  C   UNL     1       6.889   4.993  18.269  0.00  0.00    +0.000 A 
ATOM     24  C   UNL     1       6.178   5.594  17.207  0.00  0.00    +0.000 A 
ATOM     25  C   UNL     1       6.466   6.940  16.924  0.00  0.00    +0.000 A 
ENDBRANCH  16  24
ENDBRANCH  15  16
ENDBRANCH   1  15
TORSDOF 4
ENDMDL
MODEL 7
REMARK VINA RESULT:      -8.1      2.910      6.537
REMARK  Name = 
REMARK  4 active torsions:
REMARK  status: ('A' for Active; 'I' for Inactive)
REMARK    1  A    between atoms: C_6  and  C_7
REMARK    2  A    between atoms: C_7  and  C_8
REMARK    3  A    between atoms: C_8  and  N_9
REMARK    4  A    between atoms: C_16  and  C_17
REMARK                            x       y       z     vdW  Elec       q    Type
REMARK                         _______ _______ _______ _____ _____    ______ ____
ROOT
ATOM      1  N   UNL     1       4.284   6.939  18.082  0.00  0.00    +0.000 N 
ATOM      2  C   UNL     1       3.539   6.182  19.010  0.00  0.00    +0.000 A 
ATOM      3  C   UNL     1       2.320   6.747  19.683  0.00  0.00    +0.000 A 
ATOM      4  C   UNL     1       1.596   5.931  20.483  0.00  0.00    +0.000 A 
ATOM      5  C   UNL     1       1.996   4.590  20.668  0.00  0.00    +0.000 A 
ATOM      6  N   UNL     1       1.503   3.601  21.364  0.00  0.00    +0.000 NA
ATOM      7  N   UNL     1       2.338   2.519  21.190  0.00  0.00    +0.000 NA
ATOM      8  C   UNL     1       3.329   2.889  20.394  0.00  0.00    +0.000 A 
ATOM      9  N   UNL     1       3.153   4.200  20.034  0.00  0.00    +0.000 N 
ATOM     10  N   UNL     1       3.924   4.941  19.215  0.00  0.00    +0.000 NA
ATOM     11  H   UNL     1       3.834   7.786  17.762  0.00  0.00    +0.000 HD
ENDROOT
BRANCH   8  12
ATOM     12  C   UNL     1       4.479   2.082  19.953  0.00  0.00    +0.000 C 
ATOM     13  F   UNL     1       5.082   1.435  20.987  0.00  0.00    +0.000 F 
ATOM     14  F   UNL     1       4.122   1.125  19.054  0.00  0.00    +0.000 F 
ENDBRANCH   8  12
BRANCH   1  15
ATOM     15  C   UNL     1       4.840   6.117  17.011  0.00  0.00    +0.000 C 
BRANCH  15  16
ATOM     16  C   UNL     1       6.325   5.860  16.824  0.00  0.00    +0.000 C 
ATOM     17  C   UNL     1       7.376   6.883  17.212  0.00  0.00    +0.000 C 
ATOM     18  C   UNL     1       7.287   5.594  17.975  0.00  0.00    +0.000 C 
BRANCH  16  24
ATOM     19  F   UNL     1       8.208   5.345  12.350  0.00  0.00    +0.000 F 
ATOM     20  C   UNL     1       7.348   4.891  13.273  0.00  0.00    +0.000 A 
ATOM     21  C   UNL     1       6.346   4.010  12.895  0.00  0.00    +0.000 A 
ATOM     22  C   UNL     1       5.423   3.585  13.846  0.00  0.00    +0.000 A 
ATOM     23  C   UNL     1       5.489   4.082  15.154  0.00  0.00    +0.000 A 
ATOM     24  C   UNL     1       6.478   5.011  15.543  0.00  0.00    +0.000 A 
ATOM     25  C   UNL     1       7.432   5.374  14.577  0.00  0.00    +0.000 A 
ENDBRANCH  16  24
ENDBRANCH  15  16
ENDBRANCH   1  15
TORSDOF 4
ENDMDL
MODEL 8
REMARK VINA RESULT:      -8.0      3.740      5.866
REMARK  Name = 
REMARK  4 active torsions:
REMARK  status: ('A' for Active; 'I' for Inactive)
REMARK    1  A    between atoms: C_6  and  C_7
REMARK    2  A    between atoms: C_7  and  C_8
REMARK    3  A    between atoms: C_8  and  N_9
REMARK    4  A    between atoms: C_16  and  C_17
REMARK                            x       y       z     vdW  Elec       q    Type
REMARK                         _______ _______ _______ _____ _____    ______ ____
ROOT
ATOM      1  N   UNL     1       2.781   7.733  18.184  0.00  0.00    +0.000 N 
ATOM      2  C   UNL     1       3.345   6.475  18.481  0.00  0.00    +0.000 A 
ATOM      3  C   UNL     1       4.741   6.121  18.049  0.00  0.00    +0.000 A 
ATOM      4  C   UNL     1       5.254   4.937  18.456  0.00  0.00    +0.000 A 
ATOM      5  C   UNL     1       4.480   4.073  19.260  0.00  0.00    +0.000 A 
ATOM      6  N   UNL     1       4.711   2.900  19.787  0.00  0.00    +0.000 NA
ATOM      7  N   UNL     1       3.569   2.518  20.458  0.00  0.00    +0.000 NA
ATOM      8  C   UNL     1       2.667   3.474  20.309  0.00  0.00    +0.000 A 
ATOM      9  N   UNL     1       3.202   4.487  19.555  0.00  0.00    +0.000 N 
ATOM     10  N   UNL     1       2.619   5.649  19.202  0.00  0.00    +0.000 NA
ATOM     11  H   UNL     1       3.436   8.427  17.851  0.00  0.00    +0.000 HD
ENDROOT
BRANCH   8  12
ATOM     12  C   UNL     1       1.285   3.496  20.819  0.00  0.00    +0.000 C 
ATOM     13  F   UNL     1       0.380   3.123  19.872  0.00  0.00    +0.000 F 
ATOM     14  F   UNL     1       1.111   2.652  21.872  0.00  0.00    +0.000 F 
ENDBRANCH   8  12
BRANCH   1  15
ATOM     15  C   UNL     1       1.894   8.209  19.241  0.00  0.00    +0.000 C 
BRANCH  15  16
ATOM     16  C   UNL     1       1.045   9.464  19.134  0.00  0.00    +0.000 C 
ATOM     17  C   UNL     1       1.514  10.692  18.378  0.00  0.00    +0.000 C 
ATOM     18  C   UNL     1       0.349   9.905  17.853  0.00  0.00    +0.000 C 
BRANCH  16  24
ATOM     19  F   UNL     1      -0.604  12.305  22.745  0.00  0.00    +0.000 F 
ATOM     20  C   UNL     1      -0.405  11.060  22.288  0.00  0.00    +0.000 A 
ATOM     21  C   UNL     1      -0.470   9.991  23.170  0.00  0.00    +0.000 A 
ATOM     22  C   UNL     1      -0.208   8.708  22.700  0.00  0.00    +0.000 A 
ATOM     23  C   UNL     1       0.158   8.515  21.362  0.00  0.00    +0.000 A 
ATOM     24  C   UNL     1       0.268   9.598  20.462  0.00  0.00    +0.000 A 
ATOM     25  C   UNL     1      -0.061  10.873  20.951  0.00  0.00    +0.000 A 
ENDBRANCH  16  24
ENDBRANCH  15  16
ENDBRANCH   1  15
TORSDOF 4
ENDMDL
MODEL 9
REMARK VINA RESULT:      -7.9      4.961      7.841
REMARK  Name = 
REMARK  4 active torsions:
REMARK  status: ('A' for Active; 'I' for Inactive)
REMARK    1  A    between atoms: C_6  and  C_7
REMARK    2  A    between atoms: C_7  and  C_8
REMARK    3  A    between atoms: C_8  and  N_9
REMARK    4  A    between atoms: C_16  and  C_17
REMARK                            x       y       z     vdW  Elec       q    Type
REMARK                         _______ _______ _______ _____ _____    ______ ____
ROOT
ATOM      1  N   UNL     1       1.645   7.405  21.043  0.00  0.00    +0.000 N 
ATOM      2  C   UNL     1       0.828   8.544  21.203  0.00  0.00    +0.000 A 
ATOM      3  C   UNL     1       0.710   9.243  22.528  0.00  0.00    +0.000 A 
ATOM      4  C   UNL     1      -0.011  10.386  22.584  0.00  0.00    +0.000 A 
ATOM      5  C   UNL     1      -0.627  10.889  21.418  0.00  0.00    +0.000 A 
ATOM      6  N   UNL     1      -1.362  11.942  21.182  0.00  0.00    +0.000 NA
ATOM      7  N   UNL     1      -1.714  11.908  19.850  0.00  0.00    +0.000 NA
ATOM      8  C   UNL     1      -1.187  10.819  19.314  0.00  0.00    +0.000 A 
ATOM      9  N   UNL     1      -0.483  10.138  20.274  0.00  0.00    +0.000 N 
ATOM     10  N   UNL     1       0.221   9.000  20.129  0.00  0.00    +0.000 NA
ATOM     11  H   UNL     1       2.281   7.225  21.808  0.00  0.00    +0.000 HD
ENDROOT
BRANCH   8  12
ATOM     12  C   UNL     1      -1.320  10.342  17.927  0.00  0.00    +0.000 C 
ATOM     13  F   UNL     1      -0.212   9.677  17.502  0.00  0.00    +0.000 F 
ATOM     14  F   UNL     1      -2.366   9.484  17.775  0.00  0.00    +0.000 F 
ENDBRANCH   8  12
BRANCH   1  15
ATOM     15  C   UNL     1       2.267   7.347  19.724  0.00  0.00    +0.000 C 
BRANCH  15  16
ATOM     16  C   UNL     1       2.969   6.118  19.171  0.00  0.00    +0.000 C 
ATOM     17  C   UNL     1       3.890   6.189  17.968  0.00  0.00    +0.000 C 
ATOM     18  C   UNL     1       4.464   5.864  19.316  0.00  0.00    +0.000 C 
BRANCH  16  24
ATOM     19  F   UNL     1       1.207   2.603  22.063  0.00  0.00    +0.000 F 
ATOM     20  C   UNL     1       1.279   3.119  20.827  0.00  0.00    +0.000 A 
ATOM     21  C   UNL     1       0.896   2.345  19.742  0.00  0.00    +0.000 A 
ATOM     22  C   UNL     1       1.025   2.867  18.458  0.00  0.00    +0.000 A 
ATOM     23  C   UNL     1       1.577   4.141  18.275  0.00  0.00    +0.000 A 
ATOM     24  C   UNL     1       2.010   4.924  19.367  0.00  0.00    +0.000 A 
ATOM     25  C   UNL     1       1.811   4.395  20.653  0.00  0.00    +0.000 A 
ENDBRANCH  16  24
ENDBRANCH  15  16
ENDBRANCH   1  15
TORSDOF 4
ENDMDL
