MODEL 1
REMARK VINA RESULT:      -8.6      0.000      0.000
REMARK  Name = 
REMARK  3 active torsions:
REMARK  status: ('A' for Active; 'I' for Inactive)
REMARK    1  A    between atoms: C_6  and  C_7
REMARK    2  A    between atoms: C_10  and  C_11
REMARK    3  A    between atoms: C_11  and  C_12
REMARK                            x       y       z     vdW  Elec       q    Type
REMARK                         _______ _______ _______ _____ _____    ______ ____
ROOT
ATOM      1  C   UNL     1       6.223   6.145  17.335  0.00  0.00    +0.000 C 
ATOM      2  C   UNL     1       4.890   6.682  16.764  0.00  0.00    +0.000 C 
ATOM      3  C   UNL     1       3.982   6.818  17.981  0.00  0.00    +0.000 C 
ATOM      4  N   UNL     1       4.359   5.672  18.792  0.00  0.00    +0.000 N 
ATOM      5  C   UNL     1       3.450   4.902  19.514  0.00  0.00    +0.000 A 
ATOM      6  N   UNL     1       2.197   5.314  19.594  0.00  0.00    +0.000 NA
ATOM      7  C   UNL     1       1.262   4.563  20.283  0.00  0.00    +0.000 A 
ATOM      8  C   UNL     1       1.538   3.401  20.895  0.00  0.00    +0.000 A 
ATOM      9  N   UNL     1       2.831   2.934  20.836  0.00  0.00    +0.000 N 
ATOM     10  N   UNL     1       3.411   1.820  21.333  0.00  0.00    +0.000 NA
ATOM     11  N   UNL     1       4.685   1.880  20.963  0.00  0.00    +0.000 NA
ATOM     12  N   UNL     1       4.943   3.020  20.241  0.00  0.00    +0.000 NA
ATOM     13  C   UNL     1       3.795   3.653  20.171  0.00  0.00    +0.000 A 
ATOM     14  C   UNL     1       5.743   5.274  18.515  0.00  0.00    +0.000 C 
ENDROOT
BRANCH   1  18
ATOM     15  C   UNL     1       8.212   9.038  18.053  0.00  0.00    +0.000 A 
ATOM     16  N   UNL     1       8.842   8.138  18.825  0.00  0.00    +0.000 NA
ATOM     17  O   UNL     1       8.104   6.971  18.657  0.00  0.00    +0.000 OA
ATOM     18  C   UNL     1       7.090   7.271  17.793  0.00  0.00    +0.000 A 
ATOM     19  N   UNL     1       7.098   8.529  17.414  0.00  0.00    +0.000 NA
BRANCH  15  25
ATOM     20  F   UNL     1       7.315  13.708  17.089  0.00  0.00    +0.000 F 
ATOM     21  C   UNL     1       8.194  12.743  17.390  0.00  0.00    +0.000 A 
ATOM     22  C   UNL     1       9.539  13.067  17.527  0.00  0.00    +0.000 A 
ATOM     23  C   UNL     1      10.453  12.066  17.844  0.00  0.00    +0.000 A 
ATOM     24  C   UNL     1      10.014  10.750  18.017  0.00  0.00    +0.000 A 
ATOM     25  C   UNL     1       8.655  10.416  17.871  0.00  0.00    +0.000 A 
ATOM     26  C   UNL     1       7.745  11.437  17.558  0.00  0.00    +0.000 A 
ENDBRANCH  15  25
ENDBRANCH   1  18
BRANCH   1  27
ATOM     27  C   UNL     1       6.995   5.310  16.307  0.00  0.00    +0.000 C 
ATOM     28  F   UNL     1       7.793   4.374  16.870  0.00  0.00    +0.000 F 
ATOM     29  F   UNL     1       6.176   4.645  15.459  0.00  0.00    +0.000 F 
ATOM     30  F   UNL     1       7.804   6.077  15.538  0.00  0.00    +0.000 F 
ENDBRANCH   1  27
TORSDOF 3
ENDMDL
MODEL 2
REMARK VINA RESULT:      -8.6      0.852      1.404
REMARK  Name = 
REMARK  3 active torsions:
REMARK  status: ('A' for Active; 'I' for Inactive)
REMARK    1  A    between atoms: C_6  and  C_7
REMARK    2  A    between atoms: C_10  and  C_11
REMARK    3  A    between atoms: C_11  and  C_12
REMARK                            x       y       z     vdW  Elec       q    Type
REMARK                         _______ _______ _______ _____ _____    ______ ____
ROOT
ATOM      1  C   UNL     1       6.251   6.177  17.320  0.00  0.00    +0.000 C 
ATOM      2  C   UNL     1       4.915   6.710  16.751  0.00  0.00    +0.000 C 
ATOM      3  C   UNL     1       4.008   6.837  17.969  0.00  0.00    +0.000 C 
ATOM      4  N   UNL     1       4.389   5.690  18.775  0.00  0.00    +0.000 N 
ATOM      5  C   UNL     1       3.484   4.912  19.493  0.00  0.00    +0.000 A 
ATOM      6  N   UNL     1       2.230   5.318  19.575  0.00  0.00    +0.000 NA
ATOM      7  C   UNL     1       1.299   4.560  20.262  0.00  0.00    +0.000 A 
ATOM      8  C   UNL     1       1.580   3.397  20.869  0.00  0.00    +0.000 A 
ATOM      9  N   UNL     1       2.875   2.937  20.808  0.00  0.00    +0.000 N 
ATOM     10  N   UNL     1       3.461   1.823  21.301  0.00  0.00    +0.000 NA
ATOM     11  N   UNL     1       4.734   1.890  20.930  0.00  0.00    +0.000 NA
ATOM     12  N   UNL     1       4.986   3.035  20.213  0.00  0.00    +0.000 NA
ATOM     13  C   UNL     1       3.836   3.663  20.146  0.00  0.00    +0.000 A 
ATOM     14  C   UNL     1       5.776   5.300  18.496  0.00  0.00    +0.000 C 
ENDROOT
BRANCH   1  18
ATOM     15  C   UNL     1       8.231   9.075  18.047  0.00  0.00    +0.000 A 
ATOM     16  N   UNL     1       8.853   8.178  18.830  0.00  0.00    +0.000 NA
ATOM     17  O   UNL     1       8.117   7.010  18.659  0.00  0.00    +0.000 OA
ATOM     18  C   UNL     1       7.113   7.306  17.782  0.00  0.00    +0.000 A 
ATOM     19  N   UNL     1       7.125   8.563  17.398  0.00  0.00    +0.000 NA
BRANCH  15  25
ATOM     20  F   UNL     1      11.708  12.459  18.014  0.00  0.00    +0.000 F 
ATOM     21  C   UNL     1      10.420  12.130  17.847  0.00  0.00    +0.000 A 
ATOM     22  C   UNL     1       9.506  13.117  17.496  0.00  0.00    +0.000 A 
ATOM     23  C   UNL     1       8.168  12.776  17.319  0.00  0.00    +0.000 A 
ATOM     24  C   UNL     1       7.756  11.452  17.499  0.00  0.00    +0.000 A 
ATOM     25  C   UNL     1       8.676  10.452  17.863  0.00  0.00    +0.000 A 
ATOM     26  C   UNL     1      10.022  10.810  18.031  0.00  0.00    +0.000 A 
ENDBRANCH  15  25
ENDBRANCH   1  18
BRANCH   1  27
ATOM     27  C   UNL     1       7.027   5.351  16.288  0.00  0.00    +0.000 C 
ATOM     28  F   UNL     1       6.226   4.686  15.425  0.00  0.00    +0.000 F 
ATOM     29  F   UNL     1       7.848   6.113  15.526  0.00  0.00    +0.000 F 
ATOM     30  F   UNL     1       7.807   4.412  16.874  0.00  0.00    +0.000 F 
ENDBRANCH   1  27
TORSDOF 3
ENDMDL
MODEL 3
REMARK VINA RESULT:      -8.2      7.164      9.516
REMARK  Name = 
REMARK  3 active torsions:
REMARK  status: ('A' for Active; 'I' for Inactive)
REMARK    1  A    between atoms: C_6  and  C_7
REMARK    2  A    between atoms: C_10  and  C_11
REMARK    3  A    between atoms: C_11  and  C_12
REMARK                            x       y       z     vdW  Elec       q    Type
REMARK                         _______ _______ _______ _____ _____    ______ ____
ROOT
ATOM      1  C   UNL     1      -0.082  10.757  19.132  0.00  0.00    +0.000 C 
ATOM      2  C   UNL     1       0.682  12.055  18.780  0.00  0.00    +0.000 C 
ATOM      3  C   UNL     1       1.141  12.601  20.127  0.00  0.00    +0.000 C 
ATOM      4  N   UNL     1       0.028  12.276  21.003  0.00  0.00    +0.000 N 
ATOM      5  C   UNL     1      -0.441  13.121  22.006  0.00  0.00    +0.000 A 
ATOM      6  N   UNL     1       0.250  14.212  22.285  0.00  0.00    +0.000 NA
ATOM      7  C   UNL     1      -0.198  15.085  23.260  0.00  0.00    +0.000 A 
ATOM      8  C   UNL     1      -1.324  14.906  23.968  0.00  0.00    +0.000 A 
ATOM      9  N   UNL     1      -2.074  13.782  23.708  0.00  0.00    +0.000 N 
ATOM     10  N   UNL     1      -3.234  13.331  24.233  0.00  0.00    +0.000 NA
ATOM     11  N   UNL     1      -3.501  12.196  23.598  0.00  0.00    +0.000 NA
ATOM     12  N   UNL     1      -2.527  11.898  22.676  0.00  0.00    +0.000 NA
ATOM     13  C   UNL     1      -1.662  12.882  22.755  0.00  0.00    +0.000 A 
ATOM     14  C   UNL     1      -0.698  11.103  20.503  0.00  0.00    +0.000 C 
ENDROOT
BRANCH   1  18
ATOM     15  C   UNL     1       2.097   7.918  18.926  0.00  0.00    +0.000 A 
ATOM     16  N   UNL     1       1.785   7.866  20.232  0.00  0.00    +0.000 NA
ATOM     17  O   UNL     1       0.970   8.975  20.431  0.00  0.00    +0.000 OA
ATOM     18  C   UNL     1       0.860   9.600  19.223  0.00  0.00    +0.000 A 
ATOM     19  N   UNL     1       1.551   9.007  18.275  0.00  0.00    +0.000 NA
BRANCH  15  25
ATOM     20  F   UNL     1       3.068   3.327  17.694  0.00  0.00    +0.000 F 
ATOM     21  C   UNL     1       3.380   4.628  17.626  0.00  0.00    +0.000 A 
ATOM     22  C   UNL     1       4.491   5.023  16.888  0.00  0.00    +0.000 A 
ATOM     23  C   UNL     1       4.815   6.374  16.813  0.00  0.00    +0.000 A 
ATOM     24  C   UNL     1       4.027   7.318  17.480  0.00  0.00    +0.000 A 
ATOM     25  C   UNL     1       2.908   6.922  18.236  0.00  0.00    +0.000 A 
ATOM     26  C   UNL     1       2.591   5.557  18.296  0.00  0.00    +0.000 A 
ENDBRANCH  15  25
ENDBRANCH   1  18
BRANCH   1  27
ATOM     27  C   UNL     1      -1.168  10.430  18.100  0.00  0.00    +0.000 C 
ATOM     28  F   UNL     1      -0.732   9.628  17.102  0.00  0.00    +0.000 F 
ATOM     29  F   UNL     1      -2.232   9.799  18.650  0.00  0.00    +0.000 F 
ATOM     30  F   UNL     1      -1.649  11.545  17.501  0.00  0.00    +0.000 F 
ENDBRANCH   1  27
TORSDOF 3
ENDMDL
MODEL 4
REMARK VINA RESULT:      -8.2      7.599      9.830
REMARK  Name = 
REMARK  3 active torsions:
REMARK  status: ('A' for Active; 'I' for Inactive)
REMARK    1  A    between atoms: C_6  and  C_7
REMARK    2  A    between atoms: C_10  and  C_11
REMARK    3  A    between atoms: C_11  and  C_12
REMARK                            x       y       z     vdW  Elec       q    Type
REMARK                         _______ _______ _______ _____ _____    ______ ____
ROOT
ATOM      1  C   UNL     1      -0.480  11.040  19.752  0.00  0.00    +0.000 C 
ATOM      2  C   UNL     1       0.298  12.351  19.495  0.00  0.00    +0.000 C 
ATOM      3  C   UNL     1       0.669  12.851  20.886  0.00  0.00    +0.000 C 
ATOM      4  N   UNL     1      -0.495  12.492  21.678  0.00  0.00    +0.000 N 
ATOM      5  C   UNL     1      -1.030  13.299  22.679  0.00  0.00    +0.000 A 
ATOM      6  N   UNL     1      -0.363  14.382  23.040  0.00  0.00    +0.000 NA
ATOM      7  C   UNL     1      -0.876  15.219  24.015  0.00  0.00    +0.000 A 
ATOM      8  C   UNL     1      -2.043  15.012  24.643  0.00  0.00    +0.000 A 
ATOM      9  N   UNL     1      -2.770  13.896  24.297  0.00  0.00    +0.000 N 
ATOM     10  N   UNL     1      -3.959  13.424  24.732  0.00  0.00    +0.000 NA
ATOM     11  N   UNL     1      -4.181  12.312  24.042  0.00  0.00    +0.000 NA
ATOM     12  N   UNL     1      -3.149  12.049  23.173  0.00  0.00    +0.000 NA
ATOM     13  C   UNL     1      -2.295  13.031  23.341  0.00  0.00    +0.000 A 
ATOM     14  C   UNL     1      -1.183  11.336  21.092  0.00  0.00    +0.000 C 
ENDROOT
BRANCH   1  18
ATOM     15  C   UNL     1       1.721   8.216  19.584  0.00  0.00    +0.000 A 
ATOM     16  N   UNL     1       1.327   8.116  20.864  0.00  0.00    +0.000 NA
ATOM     17  O   UNL     1       0.496   9.216  21.051  0.00  0.00    +0.000 OA
ATOM     18  C   UNL     1       0.459   9.883  19.861  0.00  0.00    +0.000 A 
ATOM     19  N   UNL     1       1.211   9.326  18.939  0.00  0.00    +0.000 NA
BRANCH  15  25
ATOM     20  F   UNL     1       4.855   7.012  16.082  0.00  0.00    +0.000 F 
ATOM     21  C   UNL     1       4.143   6.659  17.161  0.00  0.00    +0.000 A 
ATOM     22  C   UNL     1       4.228   5.355  17.635  0.00  0.00    +0.000 A 
ATOM     23  C   UNL     1       3.491   4.988  18.758  0.00  0.00    +0.000 A 
ATOM     24  C   UNL     1       2.674   5.928  19.393  0.00  0.00    +0.000 A 
ATOM     25  C   UNL     1       2.578   7.247  18.911  0.00  0.00    +0.000 A 
ATOM     26  C   UNL     1       3.332   7.603  17.783  0.00  0.00    +0.000 A 
ENDBRANCH  15  25
ENDBRANCH   1  18
BRANCH   1  27
ATOM     27  C   UNL     1      -1.498  10.748  18.643  0.00  0.00    +0.000 C 
ATOM     28  F   UNL     1      -1.907   9.458  18.620  0.00  0.00    +0.000 F 
ATOM     29  F   UNL     1      -2.620  11.496  18.760  0.00  0.00    +0.000 F 
ATOM     30  F   UNL     1      -0.993  11.001  17.412  0.00  0.00    +0.000 F 
ENDBRANCH   1  27
TORSDOF 3
ENDMDL
MODEL 5
REMARK VINA RESULT:      -8.1      7.719      9.994
REMARK  Name = 
REMARK  3 active torsions:
REMARK  status: ('A' for Active; 'I' for Inactive)
REMARK    1  A    between atoms: C_6  and  C_7
REMARK    2  A    between atoms: C_10  and  C_11
REMARK    3  A    between atoms: C_11  and  C_12
REMARK                            x       y       z     vdW  Elec       q    Type
REMARK                         _______ _______ _______ _____ _____    ______ ____
ROOT
ATOM      1  C   UNL     1      -0.561  11.114  19.839  0.00  0.00    +0.000 C 
ATOM      2  C   UNL     1       0.223  12.430  19.621  0.00  0.00    +0.000 C 
ATOM      3  C   UNL     1       0.563  12.906  21.029  0.00  0.00    +0.000 C 
ATOM      4  N   UNL     1      -0.619  12.534  21.789  0.00  0.00    +0.000 N 
ATOM      5  C   UNL     1      -1.175  13.325  22.791  0.00  0.00    +0.000 A 
ATOM      6  N   UNL     1      -0.517  14.401  23.184  0.00  0.00    +0.000 NA
ATOM      7  C   UNL     1      -1.050  15.222  24.162  0.00  0.00    +0.000 A 
ATOM      8  C   UNL     1      -2.232  15.006  24.761  0.00  0.00    +0.000 A 
ATOM      9  N   UNL     1      -2.951  13.895  24.380  0.00  0.00    +0.000 N 
ATOM     10  N   UNL     1      -4.149  13.417  24.780  0.00  0.00    +0.000 NA
ATOM     11  N   UNL     1      -4.355  12.317  24.067  0.00  0.00    +0.000 NA
ATOM     12  N   UNL     1      -3.305  12.068  23.217  0.00  0.00    +0.000 NA
ATOM     13  C   UNL     1      -2.455  13.047  23.420  0.00  0.00    +0.000 A 
ATOM     14  C   UNL     1      -1.294  11.389  21.169  0.00  0.00    +0.000 C 
ENDROOT
BRANCH   1  18
ATOM     15  C   UNL     1       1.665   8.311  19.670  0.00  0.00    +0.000 A 
ATOM     16  N   UNL     1       1.179   8.134  20.909  0.00  0.00    +0.000 NA
ATOM     17  O   UNL     1       0.328   9.219  21.098  0.00  0.00    +0.000 OA
ATOM     18  C   UNL     1       0.375   9.956  19.950  0.00  0.00    +0.000 A 
ATOM     19  N   UNL     1       1.198   9.456  19.055  0.00  0.00    +0.000 NA
BRANCH  15  25
ATOM     20  F   UNL     1       4.009   4.069  19.444  0.00  0.00    +0.000 F 
ATOM     21  C   UNL     1       3.739   5.265  18.905  0.00  0.00    +0.000 A 
ATOM     22  C   UNL     1       4.340   5.620  17.702  0.00  0.00    +0.000 A 
ATOM     23  C   UNL     1       4.058   6.861  17.138  0.00  0.00    +0.000 A 
ATOM     24  C   UNL     1       3.180   7.737  17.785  0.00  0.00    +0.000 A 
ATOM     25  C   UNL     1       2.578   7.386  19.007  0.00  0.00    +0.000 A 
ATOM     26  C   UNL     1       2.867   6.129  19.558  0.00  0.00    +0.000 A 
ENDBRANCH  15  25
ENDBRANCH   1  18
BRANCH   1  27
ATOM     27  C   UNL     1      -1.554  10.841  18.703  0.00  0.00    +0.000 C 
ATOM     28  F   UNL     1      -1.966   9.554  18.653  0.00  0.00    +0.000 F 
ATOM     29  F   UNL     1      -2.677  11.591  18.806  0.00  0.00    +0.000 F 
ATOM     30  F   UNL     1      -1.021  11.111  17.489  0.00  0.00    +0.000 F 
ENDBRANCH   1  27
TORSDOF 3
ENDMDL
MODEL 6
REMARK VINA RESULT:      -8.1      3.320      6.620
REMARK  Name = 
REMARK  3 active torsions:
REMARK  status: ('A' for Active; 'I' for Inactive)
REMARK    1  A    between atoms: C_6  and  C_7
REMARK    2  A    between atoms: C_10  and  C_11
REMARK    3  A    between atoms: C_11  and  C_12
REMARK                            x       y       z     vdW  Elec       q    Type
REMARK                         _______ _______ _______ _____ _____    ______ ____
ROOT
ATOM      1  C   UNL     1       6.607   5.967  17.297  0.00  0.00    +0.000 C 
ATOM      2  C   UNL     1       6.998   4.805  18.240  0.00  0.00    +0.000 C 
ATOM      3  C   UNL     1       5.695   4.049  18.472  0.00  0.00    +0.000 C 
ATOM      4  N   UNL     1       4.708   5.115  18.518  0.00  0.00    +0.000 N 
ATOM      5  C   UNL     1       3.628   5.132  19.396  0.00  0.00    +0.000 A 
ATOM      6  N   UNL     1       3.392   4.057  20.127  0.00  0.00    +0.000 NA
ATOM      7  C   UNL     1       2.340   4.047  21.026  0.00  0.00    +0.000 A 
ATOM      8  C   UNL     1       1.514   5.086  21.226  0.00  0.00    +0.000 A 
ATOM      9  N   UNL     1       1.725   6.226  20.485  0.00  0.00    +0.000 N 
ATOM     10  N   UNL     1       1.085   7.416  20.459  0.00  0.00    +0.000 NA
ATOM     11  N   UNL     1       1.725   8.151  19.558  0.00  0.00    +0.000 NA
ATOM     12  N   UNL     1       2.764   7.454  18.990  0.00  0.00    +0.000 NA
ATOM     13  C   UNL     1       2.751   6.277  19.572  0.00  0.00    +0.000 A 
ATOM     14  C   UNL     1       5.162   6.274  17.742  0.00  0.00    +0.000 C 
ENDROOT
BRANCH   1  18
ATOM     15  C   UNL     1       6.478   4.594  13.989  0.00  0.00    +0.000 A 
ATOM     16  N   UNL     1       7.679   5.192  13.935  0.00  0.00    +0.000 NA
ATOM     17  O   UNL     1       7.806   5.811  15.174  0.00  0.00    +0.000 OA
ATOM     18  C   UNL     1       6.667   5.528  15.870  0.00  0.00    +0.000 A 
ATOM     19  N   UNL     1       5.812   4.807  15.180  0.00  0.00    +0.000 NA
BRANCH  15  25
ATOM     20  F   UNL     1       6.821   0.962  10.790  0.00  0.00    +0.000 F 
ATOM     21  C   UNL     1       6.105   1.957  11.330  0.00  0.00    +0.000 A 
ATOM     22  C   UNL     1       4.819   2.202  10.859  0.00  0.00    +0.000 A 
ATOM     23  C   UNL     1       4.072   3.233  11.421  0.00  0.00    +0.000 A 
ATOM     24  C   UNL     1       4.618   4.011  12.446  0.00  0.00    +0.000 A 
ATOM     25  C   UNL     1       5.922   3.772  12.919  0.00  0.00    +0.000 A 
ATOM     26  C   UNL     1       6.660   2.726  12.347  0.00  0.00    +0.000 A 
ENDBRANCH  15  25
ENDBRANCH   1  18
BRANCH   1  27
ATOM     27  C   UNL     1       7.516   7.187  17.479  0.00  0.00    +0.000 C 
ATOM     28  F   UNL     1       8.294   7.439  16.400  0.00  0.00    +0.000 F 
ATOM     29  F   UNL     1       6.818   8.324  17.710  0.00  0.00    +0.000 F 
ATOM     30  F   UNL     1       8.364   7.037  18.524  0.00  0.00    +0.000 F 
ENDBRANCH   1  27
TORSDOF 3
ENDMDL
MODEL 7
REMARK VINA RESULT:      -8.0      3.272      6.439
REMARK  Name = 
REMARK  3 active torsions:
REMARK  status: ('A' for Active; 'I' for Inactive)
REMARK    1  A    between atoms: C_6  and  C_7
REMARK    2  A    between atoms: C_10  and  C_11
REMARK    3  A    between atoms: C_11  and  C_12
REMARK                            x       y       z     vdW  Elec       q    Type
REMARK                         _______ _______ _______ _____ _____    ______ ____
ROOT
ATOM      1  C   UNL     1       6.647   5.870  17.302  0.00  0.00    +0.000 C 
ATOM      2  C   UNL     1       7.126   4.705  18.199  0.00  0.00    +0.000 C 
ATOM      3  C   UNL     1       5.877   3.861  18.424  0.00  0.00    +0.000 C 
ATOM      4  N   UNL     1       4.826   4.860  18.521  0.00  0.00    +0.000 N 
ATOM      5  C   UNL     1       3.762   4.781  19.416  0.00  0.00    +0.000 A 
ATOM      6  N   UNL     1       3.606   3.669  20.113  0.00  0.00    +0.000 NA
ATOM      7  C   UNL     1       2.573   3.563  21.027  0.00  0.00    +0.000 A 
ATOM      8  C   UNL     1       1.687   4.540  21.274  0.00  0.00    +0.000 A 
ATOM      9  N   UNL     1       1.814   5.716  20.569  0.00  0.00    +0.000 N 
ATOM     10  N   UNL     1       1.101   6.863  20.594  0.00  0.00    +0.000 NA
ATOM     11  N   UNL     1       1.678   7.666  19.709  0.00  0.00    +0.000 NA
ATOM     12  N   UNL     1       2.748   7.055  19.103  0.00  0.00    +0.000 NA
ATOM     13  C   UNL     1       2.819   5.861  19.644  0.00  0.00    +0.000 A 
ATOM     14  C   UNL     1       5.194   6.071  17.778  0.00  0.00    +0.000 C 
ENDROOT
BRANCH   1  18
ATOM     15  C   UNL     1       6.573   4.587  13.956  0.00  0.00    +0.000 A 
ATOM     16  N   UNL     1       7.684   5.338  13.882  0.00  0.00    +0.000 NA
ATOM     17  O   UNL     1       7.776   5.933  15.136  0.00  0.00    +0.000 OA
ATOM     18  C   UNL     1       6.710   5.484  15.860  0.00  0.00    +0.000 A 
ATOM     19  N   UNL     1       5.930   4.678  15.175  0.00  0.00    +0.000 NA
BRANCH  15  25
ATOM     20  F   UNL     1       3.042   3.027  11.018  0.00  0.00    +0.000 F 
ATOM     21  C   UNL     1       4.319   2.963  11.418  0.00  0.00    +0.000 A 
ATOM     22  C   UNL     1       5.182   2.068  10.796  0.00  0.00    +0.000 A 
ATOM     23  C   UNL     1       6.510   2.002  11.208  0.00  0.00    +0.000 A 
ATOM     24  C   UNL     1       6.961   2.830  12.241  0.00  0.00    +0.000 A 
ATOM     25  C   UNL     1       6.088   3.731  12.879  0.00  0.00    +0.000 A 
ATOM     26  C   UNL     1       4.755   3.790  12.448  0.00  0.00    +0.000 A 
ENDBRANCH  15  25
ENDBRANCH   1  18
BRANCH   1  27
ATOM     27  C   UNL     1       7.482   7.139  17.511  0.00  0.00    +0.000 C 
ATOM     28  F   UNL     1       8.279   7.433  16.459  0.00  0.00    +0.000 F 
ATOM     29  F   UNL     1       6.714   8.235  17.718  0.00  0.00    +0.000 F 
ATOM     30  F   UNL     1       8.301   7.035  18.584  0.00  0.00    +0.000 F 
ENDBRANCH   1  27
TORSDOF 3
ENDMDL
MODEL 8
REMARK VINA RESULT:      -7.9      6.703      9.512
REMARK  Name = 
REMARK  3 active torsions:
REMARK  status: ('A' for Active; 'I' for Inactive)
REMARK    1  A    between atoms: C_6  and  C_7
REMARK    2  A    between atoms: C_10  and  C_11
REMARK    3  A    between atoms: C_11  and  C_12
REMARK                            x       y       z     vdW  Elec       q    Type
REMARK                         _______ _______ _______ _____ _____    ______ ____
ROOT
ATOM      1  C   UNL     1       0.560   9.960  20.246  0.00  0.00    +0.000 C 
ATOM      2  C   UNL     1      -0.832  10.345  19.694  0.00  0.00    +0.000 C 
ATOM      3  C   UNL     1      -0.584  11.621  18.898  0.00  0.00    +0.000 C 
ATOM      4  N   UNL     1       0.426  12.303  19.690  0.00  0.00    +0.000 N 
ATOM      5  C   UNL     1       0.447  13.680  19.897  0.00  0.00    +0.000 A 
ATOM      6  N   UNL     1      -0.401  14.434  19.220  0.00  0.00    +0.000 NA
ATOM      7  C   UNL     1      -0.423  15.803  19.418  0.00  0.00    +0.000 A 
ATOM      8  C   UNL     1       0.378  16.449  20.279  0.00  0.00    +0.000 A 
ATOM      9  N   UNL     1       1.277  15.702  21.005  0.00  0.00    +0.000 N 
ATOM     10  N   UNL     1       2.193  16.048  21.936  0.00  0.00    +0.000 NA
ATOM     11  N   UNL     1       2.776  14.915  22.308  0.00  0.00    +0.000 NA
ATOM     12  N   UNL     1       2.259  13.839  21.626  0.00  0.00    +0.000 NA
ATOM     13  C   UNL     1       1.340  14.340  20.834  0.00  0.00    +0.000 A 
ATOM     14  C   UNL     1       1.218  11.338  20.460  0.00  0.00    +0.000 C 
ENDROOT
BRANCH   1  18
ATOM     15  C   UNL     1       2.474   7.725  18.199  0.00  0.00    +0.000 A 
ATOM     16  N   UNL     1       2.555   8.837  17.450  0.00  0.00    +0.000 NA
ATOM     17  O   UNL     1       1.787   9.769  18.142  0.00  0.00    +0.000 OA
ATOM     18  C   UNL     1       1.311   9.134  19.252  0.00  0.00    +0.000 A 
ATOM     19  N   UNL     1       1.682   7.875  19.321  0.00  0.00    +0.000 NA
BRANCH  15  25
ATOM     20  F   UNL     1       2.594   2.884  17.901  0.00  0.00    +0.000 F 
ATOM     21  C   UNL     1       3.212   4.063  17.747  0.00  0.00    +0.000 A 
ATOM     22  C   UNL     1       4.526   4.087  17.291  0.00  0.00    +0.000 A 
ATOM     23  C   UNL     1       5.168   5.311  17.127  0.00  0.00    +0.000 A 
ATOM     24  C   UNL     1       4.492   6.499  17.423  0.00  0.00    +0.000 A 
ATOM     25  C   UNL     1       3.166   6.478  17.893  0.00  0.00    +0.000 A 
ATOM     26  C   UNL     1       2.530   5.237  18.047  0.00  0.00    +0.000 A 
ENDBRANCH  15  25
ENDBRANCH   1  18
BRANCH   1  27
ATOM     27  C   UNL     1       0.462   9.181  21.563  0.00  0.00    +0.000 C 
ATOM     28  F   UNL     1       1.646   8.669  21.970  0.00  0.00    +0.000 F 
ATOM     29  F   UNL     1       0.013   9.946  22.585  0.00  0.00    +0.000 F 
ATOM     30  F   UNL     1      -0.387   8.130  21.468  0.00  0.00    +0.000 F 
ENDBRANCH   1  27
TORSDOF 3
ENDMDL
MODEL 9
REMARK VINA RESULT:      -7.9      6.738      9.436
REMARK  Name = 
REMARK  3 active torsions:
REMARK  status: ('A' for Active; 'I' for Inactive)
REMARK    1  A    between atoms: C_6  and  C_7
REMARK    2  A    between atoms: C_10  and  C_11
REMARK    3  A    between atoms: C_11  and  C_12
REMARK                            x       y       z     vdW  Elec       q    Type
REMARK                         _______ _______ _______ _____ _____    ______ ____
ROOT
ATOM      1  C   UNL     1       0.415   9.967  20.224  0.00  0.00    +0.000 C 
ATOM      2  C   UNL     1      -0.927  10.363  19.566  0.00  0.00    +0.000 C 
ATOM      3  C   UNL     1      -0.601  11.618  18.765  0.00  0.00    +0.000 C 
ATOM      4  N   UNL     1       0.361  12.301  19.614  0.00  0.00    +0.000 N 
ATOM      5  C   UNL     1       0.392  13.681  19.795  0.00  0.00    +0.000 A 
ATOM      6  N   UNL     1      -0.393  14.433  19.044  0.00  0.00    +0.000 NA
ATOM      7  C   UNL     1      -0.405  15.807  19.212  0.00  0.00    +0.000 A 
ATOM      8  C   UNL     1       0.342  16.458  20.117  0.00  0.00    +0.000 A 
ATOM      9  N   UNL     1       1.174  15.712  20.920  0.00  0.00    +0.000 N 
ATOM     10  N   UNL     1       2.027  16.063  21.907  0.00  0.00    +0.000 NA
ATOM     11  N   UNL     1       2.562  14.929  22.342  0.00  0.00    +0.000 NA
ATOM     12  N   UNL     1       2.078  13.848  21.646  0.00  0.00    +0.000 NA
ATOM     13  C   UNL     1       1.226  14.346  20.780  0.00  0.00    +0.000 A 
ATOM     14  C   UNL     1       1.080  11.339  20.457  0.00  0.00    +0.000 C 
ENDROOT
BRANCH   1  18
ATOM     15  C   UNL     1       2.557   7.770  18.372  0.00  0.00    +0.000 A 
ATOM     16  N   UNL     1       2.278   8.669  17.414  0.00  0.00    +0.000 NA
ATOM     17  O   UNL     1       1.395   9.554  18.025  0.00  0.00    +0.000 OA
ATOM     18  C   UNL     1       1.220   9.110  19.303  0.00  0.00    +0.000 A 
ATOM     19  N   UNL     1       1.890   8.007  19.558  0.00  0.00    +0.000 NA
BRANCH  15  25
ATOM     20  F   UNL     1       4.381   3.500  19.779  0.00  0.00    +0.000 F 
ATOM     21  C   UNL     1       4.388   4.528  18.920  0.00  0.00    +0.000 A 
ATOM     22  C   UNL     1       5.295   4.527  17.867  0.00  0.00    +0.000 A 
ATOM     23  C   UNL     1       5.302   5.593  16.971  0.00  0.00    +0.000 A 
ATOM     24  C   UNL     1       4.402   6.650  17.139  0.00  0.00    +0.000 A 
ATOM     25  C   UNL     1       3.488   6.659  18.209  0.00  0.00    +0.000 A 
ATOM     26  C   UNL     1       3.490   5.575  19.099  0.00  0.00    +0.000 A 
ENDBRANCH  15  25
ENDBRANCH   1  18
BRANCH   1  27
ATOM     27  C   UNL     1       0.209   9.217  21.546  0.00  0.00    +0.000 C 
ATOM     28  F   UNL     1      -0.593   9.877  22.413  0.00  0.00    +0.000 F 
ATOM     29  F   UNL     1      -0.352   7.999  21.367  0.00  0.00    +0.000 F 
ATOM     30  F   UNL     1       1.377   9.012  22.198  0.00  0.00    +0.000 F 
ENDBRANCH   1  27
TORSDOF 3
ENDMDL
