MODEL 1
REMARK VINA RESULT:      -8.7      0.000      0.000
REMARK  Name = 
REMARK  5 active torsions:
REMARK  status: ('A' for Active; 'I' for Inactive)
REMARK    1  A    between atoms: C_1  and  C_2
REMARK    2  A    between atoms: C_2  and  C_3
REMARK    3  A    between atoms: C_6  and  N_7
REMARK    4  A    between atoms: N_7  and  S_8
REMARK    5  A    between atoms: S_8  and  C_11
REMARK                            x       y       z     vdW  Elec       q    Type
REMARK                         _______ _______ _______ _____ _____    ______ ____
ROOT
ATOM      1  C   UNL     1       1.260   9.397  19.184  0.00  0.00    +0.000 A 
ATOM      2  C   UNL     1       2.010   8.617  18.285  0.00  0.00    +0.000 A 
ATOM      3  C   UNL     1       2.528   7.370  18.661  0.00  0.00    +0.000 A 
ATOM      4  C   UNL     1       2.268   6.871  19.933  0.00  0.00    +0.000 A 
ATOM      5  C   UNL     1       1.492   7.607  20.823  0.00  0.00    +0.000 A 
ATOM      6  C   UNL     1       0.992   8.856  20.455  0.00  0.00    +0.000 A 
ENDROOT
BRANCH   1   8
ATOM      7  C   UNL     1       1.864  11.706  18.349  0.00  0.00    +0.000 C 
ATOM      8  C   UNL     1       0.738  10.783  18.795  0.00  0.00    +0.000 C 
ATOM      9  N   UNL     1      -0.312  10.687  17.796  0.00  0.00    +0.000 N 
ATOM     10  C   UNL     1      -1.565  10.862  18.330  0.00  0.00    +0.000 C 
ATOM     11  O   UNL     1      -2.606  10.717  17.720  0.00  0.00    +0.000 OA
ATOM     12  N   UNL     1      -1.434  11.257  19.614  0.00  0.00    +0.000 N 
ATOM     13  C   UNL     1      -0.118  11.421  19.922  0.00  0.00    +0.000 C 
ATOM     14  O   UNL     1       0.292  11.949  20.946  0.00  0.00    +0.000 OA
ATOM     15  H   UNL     1      -0.205  10.352  16.850  0.00  0.00    +0.000 HD
ATOM     16  H   UNL     1      -2.201  11.555  20.190  0.00  0.00    +0.000 HD
ENDBRANCH   1   8
BRANCH   4  17
ATOM     17  N   UNL     1       2.818   5.637  20.369  0.00  0.00    +0.000 N 
ATOM     18  H   UNL     1       2.687   5.380  21.347  0.00  0.00    +0.000 HD
BRANCH  17  19
ATOM     19  S   UNL     1       2.678   4.289  19.359  0.00  0.00    +0.000 S 
ATOM     20  O   UNL     1       2.791   3.130  20.216  0.00  0.00    +0.000 OA
ATOM     21  O   UNL     1       1.535   4.460  18.485  0.00  0.00    +0.000 OA
BRANCH  19  22
ATOM     22  C   UNL     1       4.154   4.368  18.370  0.00  0.00    +0.000 A 
ATOM     23  C   UNL     1       4.125   3.896  17.050  0.00  0.00    +0.000 A 
ATOM     24  C   UNL     1       5.280   3.963  16.269  0.00  0.00    +0.000 A 
ATOM     25  C   UNL     1       6.453   4.475  16.816  0.00  0.00    +0.000 A 
ATOM     26  F   UNL     1       7.548   4.532  16.046  0.00  0.00    +0.000 F 
ATOM     27  C   UNL     1       6.488   4.920  18.139  0.00  0.00    +0.000 A 
ATOM     28 CL   UNL     1       7.944   5.543  18.813  0.00  0.00    +0.000 Cl
ATOM     29  C   UNL     1       5.337   4.868  18.926  0.00  0.00    +0.000 A 
ENDBRANCH  19  22
ENDBRANCH  17  19
ENDBRANCH   4  17
TORSDOF 4
ENDMDL
MODEL 2
REMARK VINA RESULT:      -8.5      1.081      1.427
REMARK  Name = 
REMARK  5 active torsions:
REMARK  status: ('A' for Active; 'I' for Inactive)
REMARK    1  A    between atoms: C_1  and  C_2
REMARK    2  A    between atoms: C_2  and  C_3
REMARK    3  A    between atoms: C_6  and  N_7
REMARK    4  A    between atoms: N_7  and  S_8
REMARK    5  A    between atoms: S_8  and  C_11
REMARK                            x       y       z     vdW  Elec       q    Type
REMARK                         _______ _______ _______ _____ _____    ______ ____
ROOT
ATOM      1  C   UNL     1       1.170   9.631  19.149  0.00  0.00    +0.000 A 
ATOM      2  C   UNL     1       1.910   8.912  18.193  0.00  0.00    +0.000 A 
ATOM      3  C   UNL     1       2.483   7.670  18.499  0.00  0.00    +0.000 A 
ATOM      4  C   UNL     1       2.289   7.114  19.758  0.00  0.00    +0.000 A 
ATOM      5  C   UNL     1       1.524   7.788  20.705  0.00  0.00    +0.000 A 
ATOM      6  C   UNL     1       0.969   9.032  20.406  0.00  0.00    +0.000 A 
ENDROOT
BRANCH   1   8
ATOM      7  C   UNL     1       1.679  12.024  18.508  0.00  0.00    +0.000 C 
ATOM      8  C   UNL     1       0.588  11.012  18.836  0.00  0.00    +0.000 C 
ATOM      9  N   UNL     1      -0.412  10.934  17.785  0.00  0.00    +0.000 N 
ATOM     10  C   UNL     1      -1.694  11.004  18.272  0.00  0.00    +0.000 C 
ATOM     11  O   UNL     1      -2.699  10.849  17.607  0.00  0.00    +0.000 OA
ATOM     12  N   UNL     1      -1.639  11.310  19.585  0.00  0.00    +0.000 N 
ATOM     13  C   UNL     1      -0.349  11.521  19.964  0.00  0.00    +0.000 C 
ATOM     14  O   UNL     1      -0.012  11.993  21.040  0.00  0.00    +0.000 OA
ATOM     15  H   UNL     1      -0.247  10.675  16.824  0.00  0.00    +0.000 HD
ATOM     16  H   UNL     1      -2.445  11.525  20.146  0.00  0.00    +0.000 HD
ENDBRANCH   1   8
BRANCH   4  17
ATOM     17  N   UNL     1       2.895   5.884  20.125  0.00  0.00    +0.000 N 
ATOM     18  H   UNL     1       2.836   5.599  21.101  0.00  0.00    +0.000 HD
BRANCH  17  19
ATOM     19  S   UNL     1       2.720   4.559  19.090  0.00  0.00    +0.000 S 
ATOM     20  O   UNL     1       2.708   3.386  19.936  0.00  0.00    +0.000 OA
ATOM     21  O   UNL     1       1.640   4.815  18.159  0.00  0.00    +0.000 OA
BRANCH  19  22
ATOM     22  C   UNL     1       4.250   4.547  18.183  0.00  0.00    +0.000 A 
ATOM     23  C   UNL     1       5.461   4.697  18.873  0.00  0.00    +0.000 A 
ATOM     24  C   UNL     1       6.664   4.681  18.165  0.00  0.00    +0.000 A 
ATOM     25  C   UNL     1       6.646   4.542  16.780  0.00  0.00    +0.000 A 
ATOM     26  F   UNL     1       7.814   4.527  16.122  0.00  0.00    +0.000 F 
ATOM     27  C   UNL     1       5.438   4.420  16.091  0.00  0.00    +0.000 A 
ATOM     28 CL   UNL     1       5.422   4.260  14.377  0.00  0.00    +0.000 Cl
ATOM     29  C   UNL     1       4.230   4.424  16.789  0.00  0.00    +0.000 A 
ENDBRANCH  19  22
ENDBRANCH  17  19
ENDBRANCH   4  17
TORSDOF 4
ENDMDL
MODEL 3
REMARK VINA RESULT:      -8.4      1.239      1.795
REMARK  Name = 
REMARK  5 active torsions:
REMARK  status: ('A' for Active; 'I' for Inactive)
REMARK    1  A    between atoms: C_1  and  C_2
REMARK    2  A    between atoms: C_2  and  C_3
REMARK    3  A    between atoms: C_6  and  N_7
REMARK    4  A    between atoms: N_7  and  S_8
REMARK    5  A    between atoms: S_8  and  C_11
REMARK                            x       y       z     vdW  Elec       q    Type
REMARK                         _______ _______ _______ _____ _____    ______ ____
ROOT
ATOM      1  C   UNL     1       0.963   9.355  19.560  0.00  0.00    +0.000 A 
ATOM      2  C   UNL     1       1.788   8.755  18.591  0.00  0.00    +0.000 A 
ATOM      3  C   UNL     1       2.436   7.538  18.841  0.00  0.00    +0.000 A 
ATOM      4  C   UNL     1       2.236   6.887  20.053  0.00  0.00    +0.000 A 
ATOM      5  C   UNL     1       1.390   7.441  21.008  0.00  0.00    +0.000 A 
ATOM      6  C   UNL     1       0.758   8.661  20.767  0.00  0.00    +0.000 A 
ENDROOT
BRANCH   1   8
ATOM      7  C   UNL     1      -0.635  10.669  18.105  0.00  0.00    +0.000 C 
ATOM      8  C   UNL     1       0.294  10.710  19.312  0.00  0.00    +0.000 C 
ATOM      9  N   UNL     1      -0.386  11.186  20.504  0.00  0.00    +0.000 N 
ATOM     10  C   UNL     1       0.320  12.165  21.158  0.00  0.00    +0.000 C 
ATOM     11  O   UNL     1       0.015  12.639  22.234  0.00  0.00    +0.000 OA
ATOM     12  N   UNL     1       1.369  12.525  20.389  0.00  0.00    +0.000 N 
ATOM     13  C   UNL     1       1.330  11.861  19.202  0.00  0.00    +0.000 C 
ATOM     14  O   UNL     1       2.038  12.121  18.240  0.00  0.00    +0.000 OA
ATOM     15  H   UNL     1      -1.189  10.759  20.942  0.00  0.00    +0.000 HD
ATOM     16  H   UNL     1       1.977  13.298  20.595  0.00  0.00    +0.000 HD
ENDBRANCH   1   8
BRANCH   4  17
ATOM     17  N   UNL     1       2.916   5.680  20.365  0.00  0.00    +0.000 N 
ATOM     18  H   UNL     1       2.935   5.386  21.340  0.00  0.00    +0.000 HD
BRANCH  17  19
ATOM     19  S   UNL     1       2.724   4.356  19.331  0.00  0.00    +0.000 S 
ATOM     20  O   UNL     1       2.817   3.178  20.165  0.00  0.00    +0.000 OA
ATOM     21  O   UNL     1       1.573   4.575  18.479  0.00  0.00    +0.000 OA
BRANCH  19  22
ATOM     22  C   UNL     1       4.187   4.414  18.321  0.00  0.00    +0.000 A 
ATOM     23  C   UNL     1       4.154   3.868  17.031  0.00  0.00    +0.000 A 
ATOM     24  C   UNL     1       5.299   3.918  16.233  0.00  0.00    +0.000 A 
ATOM     25  C   UNL     1       6.466   4.486  16.737  0.00  0.00    +0.000 A 
ATOM     26  F   UNL     1       7.551   4.525  15.951  0.00  0.00    +0.000 F 
ATOM     27  C   UNL     1       6.504   5.005  18.033  0.00  0.00    +0.000 A 
ATOM     28 CL   UNL     1       7.953   5.696  18.654  0.00  0.00    +0.000 Cl
ATOM     29  C   UNL     1       5.363   4.970  18.835  0.00  0.00    +0.000 A 
ENDBRANCH  19  22
ENDBRANCH  17  19
ENDBRANCH   4  17
TORSDOF 4
ENDMDL
MODEL 4
REMARK VINA RESULT:      -8.4      1.199      1.790
REMARK  Name = 
REMARK  5 active torsions:
REMARK  status: ('A' for Active; 'I' for Inactive)
REMARK    1  A    between atoms: C_1  and  C_2
REMARK    2  A    between atoms: C_2  and  C_3
REMARK    3  A    between atoms: C_6  and  N_7
REMARK    4  A    between atoms: N_7  and  S_8
REMARK    5  A    between atoms: S_8  and  C_11
REMARK                            x       y       z     vdW  Elec       q    Type
REMARK                         _______ _______ _______ _____ _____    ______ ____
ROOT
ATOM      1  C   UNL     1       1.476   9.033  19.071  0.00  0.00    +0.000 A 
ATOM      2  C   UNL     1       1.253   8.494  20.352  0.00  0.00    +0.000 A 
ATOM      3  C   UNL     1       1.774   7.245  20.716  0.00  0.00    +0.000 A 
ATOM      4  C   UNL     1       2.558   6.536  19.813  0.00  0.00    +0.000 A 
ATOM      5  C   UNL     1       2.827   7.070  18.557  0.00  0.00    +0.000 A 
ATOM      6  C   UNL     1       2.294   8.306  18.188  0.00  0.00    +0.000 A 
ENDROOT
BRANCH   1   8
ATOM      7  C   UNL     1       1.936  11.397  18.299  0.00  0.00    +0.000 C 
ATOM      8  C   UNL     1       0.864  10.373  18.651  0.00  0.00    +0.000 C 
ATOM      9  N   UNL     1      -0.094  10.198  17.574  0.00  0.00    +0.000 N 
ATOM     10  C   UNL     1      -1.394  10.257  18.011  0.00  0.00    +0.000 C 
ATOM     11  O   UNL     1      -2.369  10.028  17.322  0.00  0.00    +0.000 OA
ATOM     12  N   UNL     1      -1.397  10.645  19.303  0.00  0.00    +0.000 N 
ATOM     13  C   UNL     1      -0.128  10.920  19.712  0.00  0.00    +0.000 C 
ATOM     14  O   UNL     1       0.155  11.468  20.768  0.00  0.00    +0.000 OA
ATOM     15  H   UNL     1       0.114   9.886  16.637  0.00  0.00    +0.000 HD
ATOM     16  H   UNL     1      -2.228  10.868  19.820  0.00  0.00    +0.000 HD
ENDBRANCH   1   8
BRANCH   4  17
ATOM     17  N   UNL     1       3.060   5.245  20.124  0.00  0.00    +0.000 N 
ATOM     18  H   UNL     1       2.894   4.886  21.063  0.00  0.00    +0.000 HD
BRANCH  17  19
ATOM     19  S   UNL     1       2.912   4.021  18.967  0.00  0.00    +0.000 S 
ATOM     20  O   UNL     1       3.018   2.772  19.688  0.00  0.00    +0.000 OA
ATOM     21  O   UNL     1       1.770   4.297  18.120  0.00  0.00    +0.000 OA
BRANCH  19  22
ATOM     22  C   UNL     1       4.389   4.203  17.993  0.00  0.00    +0.000 A 
ATOM     23  C   UNL     1       5.608   4.467  18.633  0.00  0.00    +0.000 A 
ATOM     24  C   UNL     1       6.770   4.603  17.872  0.00  0.00    +0.000 A 
ATOM     25  C   UNL     1       6.702   4.499  16.485  0.00  0.00    +0.000 A 
ATOM     26  F   UNL     1       7.831   4.631  15.776  0.00  0.00    +0.000 F 
ATOM     27  C   UNL     1       5.482   4.263  15.848  0.00  0.00    +0.000 A 
ATOM     28 CL   UNL     1       5.402   4.147  14.132  0.00  0.00    +0.000 Cl
ATOM     29  C   UNL     1       4.316   4.115  16.599  0.00  0.00    +0.000 A 
ENDBRANCH  19  22
ENDBRANCH  17  19
ENDBRANCH   4  17
TORSDOF 4
ENDMDL
MODEL 5
REMARK VINA RESULT:      -8.3      4.662      8.632
REMARK  Name = 
REMARK  5 active torsions:
REMARK  status: ('A' for Active; 'I' for Inactive)
REMARK    1  A    between atoms: C_1  and  C_2
REMARK    2  A    between atoms: C_2  and  C_3
REMARK    3  A    between atoms: C_6  and  N_7
REMARK    4  A    between atoms: N_7  and  S_8
REMARK    5  A    between atoms: S_8  and  C_11
REMARK                            x       y       z     vdW  Elec       q    Type
REMARK                         _______ _______ _______ _____ _____    ______ ____
ROOT
ATOM      1  C   UNL     1       4.400   5.731  18.266  0.00  0.00    +0.000 A 
ATOM      2  C   UNL     1       4.583   6.800  17.369  0.00  0.00    +0.000 A 
ATOM      3  C   UNL     1       3.593   7.776  17.190  0.00  0.00    +0.000 A 
ATOM      4  C   UNL     1       2.422   7.714  17.937  0.00  0.00    +0.000 A 
ATOM      5  C   UNL     1       2.240   6.690  18.861  0.00  0.00    +0.000 A 
ATOM      6  C   UNL     1       3.217   5.709  19.026  0.00  0.00    +0.000 A 
ENDROOT
BRANCH   1   8
ATOM      7  C   UNL     1       4.957   3.492  19.302  0.00  0.00    +0.000 C 
ATOM      8  C   UNL     1       5.457   4.633  18.425  0.00  0.00    +0.000 C 
ATOM      9  N   UNL     1       5.922   4.160  17.133  0.00  0.00    +0.000 N 
ATOM     10  C   UNL     1       7.153   4.667  16.799  0.00  0.00    +0.000 C 
ATOM     11  O   UNL     1       7.700   4.510  15.725  0.00  0.00    +0.000 OA
ATOM     12  N   UNL     1       7.653   5.323  17.867  0.00  0.00    +0.000 N 
ATOM     13  C   UNL     1       6.812   5.196  18.930  0.00  0.00    +0.000 C 
ATOM     14  O   UNL     1       7.090   5.523  20.075  0.00  0.00    +0.000 OA
ATOM     15  H   UNL     1       5.370   3.668  16.445  0.00  0.00    +0.000 HD
ATOM     16  H   UNL     1       8.587   5.691  17.913  0.00  0.00    +0.000 HD
ENDBRANCH   1   8
BRANCH   4  17
ATOM     17  N   UNL     1       1.374   8.653  17.747  0.00  0.00    +0.000 N 
ATOM     18  H   UNL     1       0.457   8.293  17.485  0.00  0.00    +0.000 HD
BRANCH  17  19
ATOM     19  S   UNL     1       1.237   9.940  18.835  0.00  0.00    +0.000 S 
ATOM     20  O   UNL     1       1.240   9.351  20.155  0.00  0.00    +0.000 OA
ATOM     21  O   UNL     1       2.188  10.973  18.479  0.00  0.00    +0.000 OA
BRANCH  19  22
ATOM     22  C   UNL     1      -0.402  10.559  18.528  0.00  0.00    +0.000 A 
ATOM     23  C   UNL     1      -0.937  11.540  19.374  0.00  0.00    +0.000 A 
ATOM     24  C   UNL     1      -2.220  12.033  19.132  0.00  0.00    +0.000 A 
ATOM     25  C   UNL     1      -2.963  11.527  18.069  0.00  0.00    +0.000 A 
ATOM     26  F   UNL     1      -4.192  12.018  17.854  0.00  0.00    +0.000 F 
ATOM     27  C   UNL     1      -2.439  10.530  17.243  0.00  0.00    +0.000 A 
ATOM     28 CL   UNL     1      -3.367   9.901  15.937  0.00  0.00    +0.000 Cl
ATOM     29  C   UNL     1      -1.154  10.038  17.470  0.00  0.00    +0.000 A 
ENDBRANCH  19  22
ENDBRANCH  17  19
ENDBRANCH   4  17
TORSDOF 4
ENDMDL
MODEL 6
REMARK VINA RESULT:      -8.3      2.050      2.621
REMARK  Name = 
REMARK  5 active torsions:
REMARK  status: ('A' for Active; 'I' for Inactive)
REMARK    1  A    between atoms: C_1  and  C_2
REMARK    2  A    between atoms: C_2  and  C_3
REMARK    3  A    between atoms: C_6  and  N_7
REMARK    4  A    between atoms: N_7  and  S_8
REMARK    5  A    between atoms: S_8  and  C_11
REMARK                            x       y       z     vdW  Elec       q    Type
REMARK                         _______ _______ _______ _____ _____    ______ ____
ROOT
ATOM      1  C   UNL     1       1.283   8.891  19.312  0.00  0.00    +0.000 A 
ATOM      2  C   UNL     1       2.083   8.607  18.190  0.00  0.00    +0.000 A 
ATOM      3  C   UNL     1       2.948   7.504  18.174  0.00  0.00    +0.000 A 
ATOM      4  C   UNL     1       2.994   6.649  19.269  0.00  0.00    +0.000 A 
ATOM      5  C   UNL     1       2.179   6.887  20.371  0.00  0.00    +0.000 A 
ATOM      6  C   UNL     1       1.332   7.995  20.395  0.00  0.00    +0.000 A 
ENDROOT
BRANCH   1   8
ATOM      7  C   UNL     1      -0.575  10.168  18.165  0.00  0.00    +0.000 C 
ATOM      8  C   UNL     1       0.377  10.125  19.354  0.00  0.00    +0.000 C 
ATOM      9  N   UNL     1      -0.332  10.212  20.619  0.00  0.00    +0.000 N 
ATOM     10  C   UNL     1       0.215  11.145  21.466  0.00  0.00    +0.000 C 
ATOM     11  O   UNL     1      -0.128  11.322  22.618  0.00  0.00    +0.000 OA
ATOM     12  N   UNL     1       1.154  11.841  20.791  0.00  0.00    +0.000 N 
ATOM     13  C   UNL     1       1.188  11.441  19.490  0.00  0.00    +0.000 C 
ATOM     14  O   UNL     1       1.802  12.019  18.605  0.00  0.00    +0.000 OA
ATOM     15  H   UNL     1      -1.029   9.565  20.957  0.00  0.00    +0.000 HD
ATOM     16  H   UNL     1       1.622  12.651  21.156  0.00  0.00    +0.000 HD
ENDBRANCH   1   8
BRANCH   4  17
ATOM     17  N   UNL     1       3.894   5.552  19.313  0.00  0.00    +0.000 N 
ATOM     18  H   UNL     1       4.174   5.205  20.229  0.00  0.00    +0.000 HD
BRANCH  17  19
ATOM     19  S   UNL     1       3.669   4.280  18.221  0.00  0.00    +0.000 S 
ATOM     20  O   UNL     1       4.031   3.073  18.930  0.00  0.00    +0.000 OA
ATOM     21  O   UNL     1       2.372   4.412  17.590  0.00  0.00    +0.000 OA
BRANCH  19  22
ATOM     22  C   UNL     1       4.921   4.574  16.993  0.00  0.00    +0.000 A 
ATOM     23  C   UNL     1       6.029   5.370  17.315  0.00  0.00    +0.000 A 
ATOM     24  C   UNL     1       7.017   5.597  16.356  0.00  0.00    +0.000 A 
ATOM     25  C   UNL     1       6.879   5.051  15.082  0.00  0.00    +0.000 A 
ATOM     26  F   UNL     1       7.841   5.281  14.178  0.00  0.00    +0.000 F 
ATOM     27  C   UNL     1       5.761   4.282  14.754  0.00  0.00    +0.000 A 
ATOM     28 CL   UNL     1       5.590   3.619  13.175  0.00  0.00    +0.000 Cl
ATOM     29  C   UNL     1       4.773   4.040  15.708  0.00  0.00    +0.000 A 
ENDBRANCH  19  22
ENDBRANCH  17  19
ENDBRANCH   4  17
TORSDOF 4
ENDMDL
MODEL 7
REMARK VINA RESULT:      -8.3      4.760      8.636
REMARK  Name = 
REMARK  5 active torsions:
REMARK  status: ('A' for Active; 'I' for Inactive)
REMARK    1  A    between atoms: C_1  and  C_2
REMARK    2  A    between atoms: C_2  and  C_3
REMARK    3  A    between atoms: C_6  and  N_7
REMARK    4  A    between atoms: N_7  and  S_8
REMARK    5  A    between atoms: S_8  and  C_11
REMARK                            x       y       z     vdW  Elec       q    Type
REMARK                         _______ _______ _______ _____ _____    ______ ____
ROOT
ATOM      1  C   UNL     1       4.330   5.710  18.185  0.00  0.00    +0.000 A 
ATOM      2  C   UNL     1       4.557   6.880  17.438  0.00  0.00    +0.000 A 
ATOM      3  C   UNL     1       3.558   7.850  17.283  0.00  0.00    +0.000 A 
ATOM      4  C   UNL     1       2.327   7.677  17.907  0.00  0.00    +0.000 A 
ATOM      5  C   UNL     1       2.096   6.548  18.686  0.00  0.00    +0.000 A 
ATOM      6  C   UNL     1       3.085   5.574  18.826  0.00  0.00    +0.000 A 
ENDROOT
BRANCH   1   8
ATOM      7  C   UNL     1       4.932   3.469  19.190  0.00  0.00    +0.000 C 
ATOM      8  C   UNL     1       5.401   4.623  18.313  0.00  0.00    +0.000 C 
ATOM      9  N   UNL     1       5.845   4.167  17.008  0.00  0.00    +0.000 N 
ATOM     10  C   UNL     1       7.064   4.691  16.653  0.00  0.00    +0.000 C 
ATOM     11  O   UNL     1       7.591   4.549  15.568  0.00  0.00    +0.000 OA
ATOM     12  N   UNL     1       7.578   5.343  17.717  0.00  0.00    +0.000 N 
ATOM     13  C   UNL     1       6.760   5.197  18.796  0.00  0.00    +0.000 C 
ATOM     14  O   UNL     1       7.058   5.516  19.938  0.00  0.00    +0.000 OA
ATOM     15  H   UNL     1       5.286   3.675  16.327  0.00  0.00    +0.000 HD
ATOM     16  H   UNL     1       8.508   5.721  17.748  0.00  0.00    +0.000 HD
ENDBRANCH   1   8
BRANCH   4  17
ATOM     17  N   UNL     1       1.272   8.610  17.731  0.00  0.00    +0.000 N 
ATOM     18  H   UNL     1       0.346   8.243  17.514  0.00  0.00    +0.000 HD
BRANCH  17  19
ATOM     19  S   UNL     1       1.174   9.926  18.788  0.00  0.00    +0.000 S 
ATOM     20  O   UNL     1       1.280   9.378  20.123  0.00  0.00    +0.000 OA
ATOM     21  O   UNL     1       2.071  10.971  18.340  0.00  0.00    +0.000 OA
BRANCH  19  22
ATOM     22  C   UNL     1      -0.497  10.494  18.576  0.00  0.00    +0.000 A 
ATOM     23  C   UNL     1      -1.264   9.996  17.513  0.00  0.00    +0.000 A 
ATOM     24  C   UNL     1      -2.579  10.434  17.347  0.00  0.00    +0.000 A 
ATOM     25  C   UNL     1      -3.106  11.380  18.223  0.00  0.00    +0.000 A 
ATOM     26  F   UNL     1      -4.371  11.784  18.046  0.00  0.00    +0.000 F 
ATOM     27  C   UNL     1      -2.331  11.896  19.265  0.00  0.00    +0.000 A 
ATOM     28 CL   UNL     1      -2.985  13.072  20.338  0.00  0.00    +0.000 Cl
ATOM     29  C   UNL     1      -1.020  11.457  19.446  0.00  0.00    +0.000 A 
ENDBRANCH  19  22
ENDBRANCH  17  19
ENDBRANCH   4  17
TORSDOF 4
ENDMDL
MODEL 8
REMARK VINA RESULT:      -8.2      4.996      8.908
REMARK  Name = 
REMARK  5 active torsions:
REMARK  status: ('A' for Active; 'I' for Inactive)
REMARK    1  A    between atoms: C_1  and  C_2
REMARK    2  A    between atoms: C_2  and  C_3
REMARK    3  A    between atoms: C_6  and  N_7
REMARK    4  A    between atoms: N_7  and  S_8
REMARK    5  A    between atoms: S_8  and  C_11
REMARK                            x       y       z     vdW  Elec       q    Type
REMARK                         _______ _______ _______ _____ _____    ______ ____
ROOT
ATOM      1  C   UNL     1       2.277   6.976  19.178  0.00  0.00    +0.000 A 
ATOM      2  C   UNL     1       1.708   7.459  20.371  0.00  0.00    +0.000 A 
ATOM      3  C   UNL     1       1.224   8.771  20.467  0.00  0.00    +0.000 A 
ATOM      4  C   UNL     1       1.270   9.605  19.356  0.00  0.00    +0.000 A 
ATOM      5  C   UNL     1       1.789   9.134  18.154  0.00  0.00    +0.000 A 
ATOM      6  C   UNL     1       2.287   7.834  18.063  0.00  0.00    +0.000 A 
ENDROOT
BRANCH   1   8
ATOM      7  C   UNL     1       4.068   5.506  18.164  0.00  0.00    +0.000 C 
ATOM      8  C   UNL     1       2.855   5.561  19.084  0.00  0.00    +0.000 C 
ATOM      9  N   UNL     1       3.150   5.026  20.402  0.00  0.00    +0.000 N 
ATOM     10  C   UNL     1       2.205   4.124  20.827  0.00  0.00    +0.000 C 
ATOM     11  O   UNL     1       2.170   3.627  21.935  0.00  0.00    +0.000 OA
ATOM     12  N   UNL     1       1.367   3.864  19.803  0.00  0.00    +0.000 N 
ATOM     13  C   UNL     1       1.780   4.517  18.682  0.00  0.00    +0.000 C 
ATOM     14  O   UNL     1       1.328   4.323  17.562  0.00  0.00    +0.000 OA
ATOM     15  H   UNL     1       3.845   5.374  21.045  0.00  0.00    +0.000 HD
ATOM     16  H   UNL     1       0.655   3.155  19.826  0.00  0.00    +0.000 HD
ENDBRANCH   1   8
BRANCH   4  17
ATOM     17  N   UNL     1       0.839  10.956  19.428  0.00  0.00    +0.000 N 
ATOM     18  H   UNL     1       1.481  11.676  19.098  0.00  0.00    +0.000 HD
BRANCH  17  19
ATOM     19  S   UNL     1      -0.756  11.317  19.000  0.00  0.00    +0.000 S 
ATOM     20  O   UNL     1      -0.696  12.522  18.203  0.00  0.00    +0.000 OA
ATOM     21  O   UNL     1      -1.400  10.122  18.494  0.00  0.00    +0.000 OA
BRANCH  19  22
ATOM     22  C   UNL     1      -1.507  11.742  20.555  0.00  0.00    +0.000 A 
ATOM     23  C   UNL     1      -0.909  11.312  21.748  0.00  0.00    +0.000 A 
ATOM     24  C   UNL     1      -1.491  11.650  22.971  0.00  0.00    +0.000 A 
ATOM     25  C   UNL     1      -2.673  12.388  22.991  0.00  0.00    +0.000 A 
ATOM     26  F   UNL     1      -3.212  12.702  24.177  0.00  0.00    +0.000 F 
ATOM     27  C   UNL     1      -3.282  12.791  21.801  0.00  0.00    +0.000 A 
ATOM     28 CL   UNL     1      -4.747  13.693  21.833  0.00  0.00    +0.000 Cl
ATOM     29  C   UNL     1      -2.702  12.468  20.574  0.00  0.00    +0.000 A 
ENDBRANCH  19  22
ENDBRANCH  17  19
ENDBRANCH   4  17
TORSDOF 4
ENDMDL
MODEL 9
REMARK VINA RESULT:      -8.1      1.665      2.471
REMARK  Name = 
REMARK  5 active torsions:
REMARK  status: ('A' for Active; 'I' for Inactive)
REMARK    1  A    between atoms: C_1  and  C_2
REMARK    2  A    between atoms: C_2  and  C_3
REMARK    3  A    between atoms: C_6  and  N_7
REMARK    4  A    between atoms: N_7  and  S_8
REMARK    5  A    between atoms: S_8  and  C_11
REMARK                            x       y       z     vdW  Elec       q    Type
REMARK                         _______ _______ _______ _____ _____    ______ ____
ROOT
ATOM      1  C   UNL     1       1.001   9.221  19.597  0.00  0.00    +0.000 A 
ATOM      2  C   UNL     1       0.901   8.498  20.800  0.00  0.00    +0.000 A 
ATOM      3  C   UNL     1       1.576   7.283  20.977  0.00  0.00    +0.000 A 
ATOM      4  C   UNL     1       2.391   6.794  19.962  0.00  0.00    +0.000 A 
ATOM      5  C   UNL     1       2.539   7.514  18.781  0.00  0.00    +0.000 A 
ATOM      6  C   UNL     1       1.853   8.716  18.598  0.00  0.00    +0.000 A 
ENDROOT
BRANCH   1   8
ATOM      7  C   UNL     1      -0.708  10.430  18.178  0.00  0.00    +0.000 C 
ATOM      8  C   UNL     1       0.223  10.523  19.380  0.00  0.00    +0.000 C 
ATOM      9  N   UNL     1      -0.485  10.918  20.585  0.00  0.00    +0.000 N 
ATOM     10  C   UNL     1       0.145  11.937  21.256  0.00  0.00    +0.000 C 
ATOM     11  O   UNL     1      -0.190  12.363  22.343  0.00  0.00    +0.000 OA
ATOM     12  N   UNL     1       1.155  12.397  20.489  0.00  0.00    +0.000 N 
ATOM     13  C   UNL     1       1.162  11.755  19.288  0.00  0.00    +0.000 C 
ATOM     14  O   UNL     1       1.840  12.091  18.328  0.00  0.00    +0.000 OA
ATOM     15  H   UNL     1      -1.247  10.418  21.019  0.00  0.00    +0.000 HD
ATOM     16  H   UNL     1       1.700  13.212  20.708  0.00  0.00    +0.000 HD
ENDBRANCH   1   8
BRANCH   4  17
ATOM     17  N   UNL     1       3.050   5.542  20.082  0.00  0.00    +0.000 N 
ATOM     18  H   UNL     1       3.085   5.112  21.005  0.00  0.00    +0.000 HD
BRANCH  17  19
ATOM     19  S   UNL     1       2.802   4.382  18.877  0.00  0.00    +0.000 S 
ATOM     20  O   UNL     1       2.744   3.106  19.553  0.00  0.00    +0.000 OA
ATOM     21  O   UNL     1       1.726   4.814  18.008  0.00  0.00    +0.000 OA
BRANCH  19  22
ATOM     22  C   UNL     1       4.321   4.428  17.952  0.00  0.00    +0.000 A 
ATOM     23  C   UNL     1       5.531   4.641  18.626  0.00  0.00    +0.000 A 
ATOM     24  C   UNL     1       6.726   4.670  17.904  0.00  0.00    +0.000 A 
ATOM     25  C   UNL     1       6.699   4.512  16.521  0.00  0.00    +0.000 A 
ATOM     26  F   UNL     1       7.858   4.541  15.850  0.00  0.00    +0.000 F 
ATOM     27  C   UNL     1       5.489   4.327  15.848  0.00  0.00    +0.000 A 
ATOM     28 CL   UNL     1       5.462   4.142  14.137  0.00  0.00    +0.000 Cl
ATOM     29  C   UNL     1       4.291   4.285  16.561  0.00  0.00    +0.000 A 
ENDBRANCH  19  22
ENDBRANCH  17  19
ENDBRANCH   4  17
TORSDOF 4
ENDMDL
