MODEL 1
REMARK VINA RESULT:      -9.2      0.000      0.000
REMARK  Name = 
REMARK  8 active torsions:
REMARK  status: ('A' for Active; 'I' for Inactive)
REMARK    1  A    between atoms: C_1  and  C_2
REMARK    2  A    between atoms: C_6  and  N_7
REMARK    3  A    between atoms: C_9  and  C_10
REMARK    4  A    between atoms: C_10  and  N_11
REMARK    5  A    between atoms: N_11  and  C_12
REMARK    6  A    between atoms: C_18  and  C_19
REMARK    7  A    between atoms: C_19  and  O_21
REMARK    8  A    between atoms: C_24  and  C_25
REMARK                            x       y       z     vdW  Elec       q    Type
REMARK                         _______ _______ _______ _____ _____    ______ ____
ROOT
ATOM      1  N   UNL     1       2.661   6.560  20.316  0.00  0.00    +0.000 N 
ATOM      2  H   UNL     1       3.120   6.681  21.220  0.00  0.00    +0.000 HD
ENDROOT
BRANCH   1   3
ATOM      3  C   UNL     1       1.992   7.757  19.982  0.00  0.00    +0.000 A 
ATOM      4  C   UNL     1       2.008   8.282  18.684  0.00  0.00    +0.000 A 
ATOM      5  C   UNL     1       1.335   9.459  18.342  0.00  0.00    +0.000 A 
ATOM      6  C   UNL     1       0.612  10.094  19.351  0.00  0.00    +0.000 A 
ATOM      7  N   UNL     1      -0.184  11.211  19.335  0.00  0.00    +0.000 N 
ATOM      8  N   UNL     1      -0.787  11.477  20.521  0.00  0.00    +0.000 NA
ATOM      9  C   UNL     1      -0.293  10.518  21.333  0.00  0.00    +0.000 A 
ATOM     10  C   UNL     1       0.605   9.640  20.659  0.00  0.00    +0.000 A 
ATOM     11  C   UNL     1       1.362   8.499  20.996  0.00  0.00    +0.000 A 
ATOM     12  H   UNL     1      -0.393  11.808  18.542  0.00  0.00    +0.000 HD
BRANCH   9  13
ATOM     13  C   UNL     1      -0.753  10.450  22.714  0.00  0.00    +0.000 C 
ATOM     14  O   UNL     1      -1.043  11.415  23.413  0.00  0.00    +0.000 OA
BRANCH  13  15
ATOM     15  O   UNL     1      -0.809   9.168  23.175  0.00  0.00    +0.000 OA
ATOM     16  H   UNL     1      -0.237   9.142  23.979  0.00  0.00    +0.000 HD
ENDBRANCH  13  15
ENDBRANCH   9  13
ENDBRANCH   1   3
BRANCH   1  17
ATOM     17  C   UNL     1       1.839   5.344  20.358  0.00  0.00    +0.000 C 
BRANCH  17  20
ATOM     18  N   UNL     1       3.424   3.934  17.914  0.00  0.00    +0.000 N 
ATOM     19  C   UNL     1       2.333   4.782  17.912  0.00  0.00    +0.000 A 
ATOM     20  C   UNL     1       1.705   4.484  19.113  0.00  0.00    +0.000 A 
ATOM     21  C   UNL     1       1.862   3.067  19.039  0.00  0.00    +0.000 A 
ATOM     22  C   UNL     1       0.774   2.058  18.886  0.00  0.00    +0.000 C 
ATOM     23  N   UNL     1       3.062   2.768  18.506  0.00  0.00    +0.000 NA
BRANCH  18  29
ATOM     24  C   UNL     1       6.483   4.186  14.019  0.00  0.00    +0.000 C 
ATOM     25  C   UNL     1       6.238   4.265  15.497  0.00  0.00    +0.000 A 
ATOM     26  C   UNL     1       7.276   4.610  16.371  0.00  0.00    +0.000 A 
ATOM     27  C   UNL     1       7.041   4.726  17.741  0.00  0.00    +0.000 A 
ATOM     28  C   UNL     1       5.761   4.519  18.249  0.00  0.00    +0.000 A 
ATOM     29  C   UNL     1       4.712   4.177  17.384  0.00  0.00    +0.000 A 
ATOM     30  C   UNL     1       4.953   4.030  16.012  0.00  0.00    +0.000 A 
ENDBRANCH  18  29
ENDBRANCH  17  20
ENDBRANCH   1  17
TORSDOF 6
ENDMDL
MODEL 2
REMARK VINA RESULT:      -9.1      0.698      1.333
REMARK  Name = 
REMARK  8 active torsions:
REMARK  status: ('A' for Active; 'I' for Inactive)
REMARK    1  A    between atoms: C_1  and  C_2
REMARK    2  A    between atoms: C_6  and  N_7
REMARK    3  A    between atoms: C_9  and  C_10
REMARK    4  A    between atoms: C_10  and  N_11
REMARK    5  A    between atoms: N_11  and  C_12
REMARK    6  A    between atoms: C_18  and  C_19
REMARK    7  A    between atoms: C_19  and  O_21
REMARK    8  A    between atoms: C_24  and  C_25
REMARK                            x       y       z     vdW  Elec       q    Type
REMARK                         _______ _______ _______ _____ _____    ______ ____
ROOT
ATOM      1  N   UNL     1       2.750   6.504  20.184  0.00  0.00    +0.000 N 
ATOM      2  H   UNL     1       3.214   6.630  21.085  0.00  0.00    +0.000 HD
ENDROOT
BRANCH   1   3
ATOM      3  C   UNL     1       2.065   7.693  19.855  0.00  0.00    +0.000 A 
ATOM      4  C   UNL     1       2.062   8.216  18.557  0.00  0.00    +0.000 A 
ATOM      5  C   UNL     1       1.374   9.386  18.220  0.00  0.00    +0.000 A 
ATOM      6  C   UNL     1       0.654  10.014  19.235  0.00  0.00    +0.000 A 
ATOM      7  N   UNL     1      -0.154  11.123  19.225  0.00  0.00    +0.000 N 
ATOM      8  N   UNL     1      -0.748  11.384  20.417  0.00  0.00    +0.000 NA
ATOM      9  C   UNL     1      -0.236  10.431  21.225  0.00  0.00    +0.000 A 
ATOM     10  C   UNL     1       0.665   9.562  20.543  0.00  0.00    +0.000 A 
ATOM     11  C   UNL     1       1.437   8.430  20.874  0.00  0.00    +0.000 A 
ATOM     12  H   UNL     1      -0.377  11.717  18.434  0.00  0.00    +0.000 HD
BRANCH   9  13
ATOM     13  C   UNL     1      -0.682  10.361  22.610  0.00  0.00    +0.000 C 
ATOM     14  O   UNL     1      -0.880  11.324  23.342  0.00  0.00    +0.000 OA
BRANCH  13  15
ATOM     15  O   UNL     1      -0.840   9.074  23.035  0.00  0.00    +0.000 OA
ATOM     16  H   UNL     1      -1.422   9.119  23.830  0.00  0.00    +0.000 HD
ENDBRANCH  13  15
ENDBRANCH   9  13
ENDBRANCH   1   3
BRANCH   1  17
ATOM     17  C   UNL     1       1.942   5.278  20.231  0.00  0.00    +0.000 C 
BRANCH  17  20
ATOM     18  N   UNL     1       3.608   4.069  17.734  0.00  0.00    +0.000 N 
ATOM     19  C   UNL     1       2.392   4.725  17.775  0.00  0.00    +0.000 A 
ATOM     20  C   UNL     1       1.888   4.368  19.017  0.00  0.00    +0.000 A 
ATOM     21  C   UNL     1       2.274   2.994  18.967  0.00  0.00    +0.000 A 
ATOM     22  C   UNL     1       1.363   1.815  18.902  0.00  0.00    +0.000 C 
ATOM     23  N   UNL     1       3.477   2.880  18.373  0.00  0.00    +0.000 NA
BRANCH  18  29
ATOM     24  C   UNL     1       7.436   7.217  17.557  0.00  0.00    +0.000 C 
ATOM     25  C   UNL     1       6.667   6.059  16.992  0.00  0.00    +0.000 A 
ATOM     26  C   UNL     1       7.142   5.373  15.867  0.00  0.00    +0.000 A 
ATOM     27  C   UNL     1       6.452   4.269  15.366  0.00  0.00    +0.000 A 
ATOM     28  C   UNL     1       5.291   3.828  15.995  0.00  0.00    +0.000 A 
ATOM     29  C   UNL     1       4.806   4.504  17.124  0.00  0.00    +0.000 A 
ATOM     30  C   UNL     1       5.482   5.631  17.610  0.00  0.00    +0.000 A 
ENDBRANCH  18  29
ENDBRANCH  17  20
ENDBRANCH   1  17
TORSDOF 6
ENDMDL
MODEL 3
REMARK VINA RESULT:      -9.0      4.546      8.301
REMARK  Name = 
REMARK  8 active torsions:
REMARK  status: ('A' for Active; 'I' for Inactive)
REMARK    1  A    between atoms: C_1  and  C_2
REMARK    2  A    between atoms: C_6  and  N_7
REMARK    3  A    between atoms: C_9  and  C_10
REMARK    4  A    between atoms: C_10  and  N_11
REMARK    5  A    between atoms: N_11  and  C_12
REMARK    6  A    between atoms: C_18  and  C_19
REMARK    7  A    between atoms: C_19  and  O_21
REMARK    8  A    between atoms: C_24  and  C_25
REMARK                            x       y       z     vdW  Elec       q    Type
REMARK                         _______ _______ _______ _____ _____    ______ ____
ROOT
ATOM      1  N   UNL     1       3.651   3.355  17.508  0.00  0.00    +0.000 N 
ATOM      2  H   UNL     1       3.254   2.598  16.950  0.00  0.00    +0.000 HD
ENDROOT
BRANCH   1   3
ATOM      3  C   UNL     1       4.703   3.951  16.782  0.00  0.00    +0.000 A 
ATOM      4  C   UNL     1       5.627   4.815  17.383  0.00  0.00    +0.000 A 
ATOM      5  C   UNL     1       6.682   5.398  16.673  0.00  0.00    +0.000 A 
ATOM      6  C   UNL     1       6.800   5.066  15.325  0.00  0.00    +0.000 A 
ATOM      7  N   UNL     1       7.733   5.415  14.380  0.00  0.00    +0.000 N 
ATOM      8  N   UNL     1       7.545   4.822  13.173  0.00  0.00    +0.000 NA
ATOM      9  C   UNL     1       6.406   4.120  13.355  0.00  0.00    +0.000 A 
ATOM     10  C   UNL     1       5.884   4.256  14.675  0.00  0.00    +0.000 A 
ATOM     11  C   UNL     1       4.782   3.750  15.393  0.00  0.00    +0.000 A 
ATOM     12  H   UNL     1       8.541   6.015  14.503  0.00  0.00    +0.000 HD
BRANCH   9  13
ATOM     13  C   UNL     1       5.898   3.298  12.266  0.00  0.00    +0.000 C 
ATOM     14  O   UNL     1       4.760   3.347  11.810  0.00  0.00    +0.000 OA
BRANCH  13  15
ATOM     15  O   UNL     1       6.834   2.421  11.802  0.00  0.00    +0.000 OA
ATOM     16  H   UNL     1       6.858   1.679  12.452  0.00  0.00    +0.000 HD
ENDBRANCH  13  15
ENDBRANCH   9  13
ENDBRANCH   1   3
BRANCH   1  17
ATOM     17  C   UNL     1       3.990   2.838  18.841  0.00  0.00    +0.000 C 
BRANCH  17  20
ATOM     18  N   UNL     1       2.395   5.408  19.990  0.00  0.00    +0.000 N 
ATOM     19  C   UNL     1       3.566   4.810  20.413  0.00  0.00    +0.000 A 
ATOM     20  C   UNL     1       3.376   3.479  20.073  0.00  0.00    +0.000 A 
ATOM     21  C   UNL     1       2.012   3.392  20.486  0.00  0.00    +0.000 A 
ATOM     22  C   UNL     1       1.473   2.580  21.615  0.00  0.00    +0.000 C 
ATOM     23  N   UNL     1       1.372   4.539  20.188  0.00  0.00    +0.000 NA
BRANCH  18  29
ATOM     24  C   UNL     1       0.751  10.063  20.471  0.00  0.00    +0.000 C 
ATOM     25  C   UNL     1       1.393   8.980  19.655  0.00  0.00    +0.000 A 
ATOM     26  C   UNL     1       1.864   9.248  18.363  0.00  0.00    +0.000 A 
ATOM     27  C   UNL     1       2.499   8.255  17.619  0.00  0.00    +0.000 A 
ATOM     28  C   UNL     1       2.690   6.989  18.166  0.00  0.00    +0.000 A 
ATOM     29  C   UNL     1       2.227   6.707  19.459  0.00  0.00    +0.000 A 
ATOM     30  C   UNL     1       1.561   7.695  20.196  0.00  0.00    +0.000 A 
ENDBRANCH  18  29
ENDBRANCH  17  20
ENDBRANCH   1  17
TORSDOF 6
ENDMDL
MODEL 4
REMARK VINA RESULT:      -8.9      0.860      1.009
REMARK  Name = 
REMARK  8 active torsions:
REMARK  status: ('A' for Active; 'I' for Inactive)
REMARK    1  A    between atoms: C_1  and  C_2
REMARK    2  A    between atoms: C_6  and  N_7
REMARK    3  A    between atoms: C_9  and  C_10
REMARK    4  A    between atoms: C_10  and  N_11
REMARK    5  A    between atoms: N_11  and  C_12
REMARK    6  A    between atoms: C_18  and  C_19
REMARK    7  A    between atoms: C_19  and  O_21
REMARK    8  A    between atoms: C_24  and  C_25
REMARK                            x       y       z     vdW  Elec       q    Type
REMARK                         _______ _______ _______ _____ _____    ______ ____
ROOT
ATOM      1  N   UNL     1       2.560   7.088  19.796  0.00  0.00    +0.000 N 
ATOM      2  H   UNL     1       3.414   7.300  20.314  0.00  0.00    +0.000 HD
ENDROOT
BRANCH   1   3
ATOM      3  C   UNL     1       1.813   8.276  19.644  0.00  0.00    +0.000 A 
ATOM      4  C   UNL     1       1.660   8.906  18.403  0.00  0.00    +0.000 A 
ATOM      5  C   UNL     1       0.909  10.075  18.243  0.00  0.00    +0.000 A 
ATOM      6  C   UNL     1       0.286  10.591  19.377  0.00  0.00    +0.000 A 
ATOM      7  N   UNL     1      -0.548  11.668  19.547  0.00  0.00    +0.000 N 
ATOM      8  N   UNL     1      -1.018  11.808  20.813  0.00  0.00    +0.000 NA
ATOM      9  C   UNL     1      -0.399  10.809  21.478  0.00  0.00    +0.000 A 
ATOM     10  C   UNL     1       0.447  10.032  20.633  0.00  0.00    +0.000 A 
ATOM     11  C   UNL     1       1.278   8.903  20.783  0.00  0.00    +0.000 A 
ATOM     12  H   UNL     1      -0.868  12.318  18.838  0.00  0.00    +0.000 HD
BRANCH   9  13
ATOM     13  C   UNL     1      -0.693  10.607  22.890  0.00  0.00    +0.000 C 
ATOM     14  O   UNL     1       0.008   9.982  23.679  0.00  0.00    +0.000 OA
BRANCH  13  15
ATOM     15  O   UNL     1      -1.876  11.180  23.256  0.00  0.00    +0.000 OA
ATOM     16  H   UNL     1      -1.690  11.685  24.083  0.00  0.00    +0.000 HD
ENDBRANCH  13  15
ENDBRANCH   9  13
ENDBRANCH   1   3
BRANCH   1  17
ATOM     17  C   UNL     1       1.872   5.966  20.448  0.00  0.00    +0.000 C 
BRANCH  17  20
ATOM     18  N   UNL     1       3.719   3.927  18.745  0.00  0.00    +0.000 N 
ATOM     19  C   UNL     1       2.412   4.332  18.557  0.00  0.00    +0.000 A 
ATOM     20  C   UNL     1       1.972   4.574  19.850  0.00  0.00    +0.000 A 
ATOM     21  C   UNL     1       2.581   3.432  20.452  0.00  0.00    +0.000 A 
ATOM     22  C   UNL     1       1.879   2.261  21.052  0.00  0.00    +0.000 C 
ATOM     23  N   UNL     1       3.787   3.211  19.896  0.00  0.00    +0.000 NA
BRANCH  18  29
ATOM     24  C   UNL     1       5.697   4.137  14.201  0.00  0.00    +0.000 C 
ATOM     25  C   UNL     1       5.831   4.235  15.693  0.00  0.00    +0.000 A 
ATOM     26  C   UNL     1       7.054   4.595  16.273  0.00  0.00    +0.000 A 
ATOM     27  C   UNL     1       7.171   4.728  17.656  0.00  0.00    +0.000 A 
ATOM     28  C   UNL     1       6.061   4.524  18.473  0.00  0.00    +0.000 A 
ATOM     29  C   UNL     1       4.830   4.167  17.904  0.00  0.00    +0.000 A 
ATOM     30  C   UNL     1       4.719   4.003  16.518  0.00  0.00    +0.000 A 
ENDBRANCH  18  29
ENDBRANCH  17  20
ENDBRANCH   1  17
TORSDOF 6
ENDMDL
MODEL 5
REMARK VINA RESULT:      -8.8      3.216      8.211
REMARK  Name = 
REMARK  8 active torsions:
REMARK  status: ('A' for Active; 'I' for Inactive)
REMARK    1  A    between atoms: C_1  and  C_2
REMARK    2  A    between atoms: C_6  and  N_7
REMARK    3  A    between atoms: C_9  and  C_10
REMARK    4  A    between atoms: C_10  and  N_11
REMARK    5  A    between atoms: N_11  and  C_12
REMARK    6  A    between atoms: C_18  and  C_19
REMARK    7  A    between atoms: C_19  and  O_21
REMARK    8  A    between atoms: C_24  and  C_25
REMARK                            x       y       z     vdW  Elec       q    Type
REMARK                         _______ _______ _______ _____ _____    ______ ____
ROOT
ATOM      1  N   UNL     1       3.215   7.917  17.942  0.00  0.00    +0.000 N 
ATOM      2  H   UNL     1       3.654   8.328  17.117  0.00  0.00    +0.000 HD
ENDROOT
BRANCH   1   3
ATOM      3  C   UNL     1       3.486   6.532  17.959  0.00  0.00    +0.000 A 
ATOM      4  C   UNL     1       4.401   5.941  17.080  0.00  0.00    +0.000 A 
ATOM      5  C   UNL     1       4.685   4.571  17.101  0.00  0.00    +0.000 A 
ATOM      6  C   UNL     1       4.033   3.802  18.061  0.00  0.00    +0.000 A 
ATOM      7  N   UNL     1       4.126   2.469  18.377  0.00  0.00    +0.000 N 
ATOM      8  N   UNL     1       3.370   2.100  19.443  0.00  0.00    +0.000 NA
ATOM      9  C   UNL     1       2.726   3.241  19.767  0.00  0.00    +0.000 A 
ATOM     10  C   UNL     1       3.085   4.331  18.920  0.00  0.00    +0.000 A 
ATOM     11  C   UNL     1       2.753   5.698  18.821  0.00  0.00    +0.000 A 
ATOM     12  H   UNL     1       4.715   1.771  17.937  0.00  0.00    +0.000 HD
BRANCH   9  13
ATOM     13  C   UNL     1       1.834   3.250  20.918  0.00  0.00    +0.000 C 
ATOM     14  O   UNL     1       2.186   3.358  22.088  0.00  0.00    +0.000 OA
BRANCH  13  15
ATOM     15  O   UNL     1       0.527   3.099  20.557  0.00  0.00    +0.000 OA
ATOM     16  H   UNL     1       0.027   3.791  21.050  0.00  0.00    +0.000 HD
ENDBRANCH  13  15
ENDBRANCH   9  13
ENDBRANCH   1   3
BRANCH   1  17
ATOM     17  C   UNL     1       1.799   8.303  17.972  0.00  0.00    +0.000 C 
BRANCH  17  20
ATOM     18  N   UNL     1      -0.656  10.253  18.776  0.00  0.00    +0.000 N 
ATOM     19  C   UNL     1       0.649  10.543  18.425  0.00  0.00    +0.000 A 
ATOM     20  C   UNL     1       1.347   9.434  18.880  0.00  0.00    +0.000 A 
ATOM     21  C   UNL     1       0.660   9.300  20.124  0.00  0.00    +0.000 A 
ATOM     22  C   UNL     1       1.235   9.500  21.486  0.00  0.00    +0.000 C 
ATOM     23  N   UNL     1      -0.646   9.586  19.957  0.00  0.00    +0.000 NA
BRANCH  18  29
ATOM     24  C   UNL     1      -3.388  10.093  14.640  0.00  0.00    +0.000 C 
ATOM     25  C   UNL     1      -3.173  10.562  16.049  0.00  0.00    +0.000 A 
ATOM     26  C   UNL     1      -4.154  11.318  16.702  0.00  0.00    +0.000 A 
ATOM     27  C   UNL     1      -3.976  11.720  18.026  0.00  0.00    +0.000 A 
ATOM     28  C   UNL     1      -2.825  11.351  18.717  0.00  0.00    +0.000 A 
ATOM     29  C   UNL     1      -1.836  10.591  18.076  0.00  0.00    +0.000 A 
ATOM     30  C   UNL     1      -2.000  10.214  16.737  0.00  0.00    +0.000 A 
ENDBRANCH  18  29
ENDBRANCH  17  20
ENDBRANCH   1  17
TORSDOF 6
ENDMDL
MODEL 6
REMARK VINA RESULT:      -8.8      4.206      8.752
REMARK  Name = 
REMARK  8 active torsions:
REMARK  status: ('A' for Active; 'I' for Inactive)
REMARK    1  A    between atoms: C_1  and  C_2
REMARK    2  A    between atoms: C_6  and  N_7
REMARK    3  A    between atoms: C_9  and  C_10
REMARK    4  A    between atoms: C_10  and  N_11
REMARK    5  A    between atoms: N_11  and  C_12
REMARK    6  A    between atoms: C_18  and  C_19
REMARK    7  A    between atoms: C_19  and  O_21
REMARK    8  A    between atoms: C_24  and  C_25
REMARK                            x       y       z     vdW  Elec       q    Type
REMARK                         _______ _______ _______ _____ _____    ______ ____
ROOT
ATOM      1  N   UNL     1       1.763   8.069  17.727  0.00  0.00    +0.000 N 
ATOM      2  H   UNL     1       0.838   7.869  18.108  0.00  0.00    +0.000 HD
ENDROOT
BRANCH   1   3
ATOM      3  C   UNL     1       2.678   7.120  18.232  0.00  0.00    +0.000 A 
ATOM      4  C   UNL     1       2.411   6.368  19.382  0.00  0.00    +0.000 A 
ATOM      5  C   UNL     1       3.306   5.415  19.881  0.00  0.00    +0.000 A 
ATOM      6  C   UNL     1       4.486   5.217  19.166  0.00  0.00    +0.000 A 
ATOM      7  N   UNL     1       5.526   4.341  19.351  0.00  0.00    +0.000 N 
ATOM      8  N   UNL     1       6.478   4.402  18.386  0.00  0.00    +0.000 NA
ATOM      9  C   UNL     1       6.045   5.408  17.596  0.00  0.00    +0.000 A 
ATOM     10  C   UNL     1       4.816   5.970  18.052  0.00  0.00    +0.000 A 
ATOM     11  C   UNL     1       3.936   6.983  17.620  0.00  0.00    +0.000 A 
ATOM     12  H   UNL     1       5.626   3.649  20.085  0.00  0.00    +0.000 HD
BRANCH   9  13
ATOM     13  C   UNL     1       6.803   5.749  16.400  0.00  0.00    +0.000 C 
ATOM     14  O   UNL     1       7.649   6.633  16.324  0.00  0.00    +0.000 OA
BRANCH  13  15
ATOM     15  O   UNL     1       6.450   4.978  15.331  0.00  0.00    +0.000 OA
ATOM     16  H   UNL     1       5.677   4.442  15.625  0.00  0.00    +0.000 HD
ENDBRANCH  13  15
ENDBRANCH   9  13
ENDBRANCH   1   3
BRANCH   1  17
ATOM     17  C   UNL     1       2.087   9.480  17.973  0.00  0.00    +0.000 C 
BRANCH  17  20
ATOM     18  N   UNL     1      -0.835  10.601  18.797  0.00  0.00    +0.000 N 
ATOM     19  C   UNL     1       0.379  11.250  18.672  0.00  0.00    +0.000 A 
ATOM     20  C   UNL     1       1.295  10.264  19.005  0.00  0.00    +0.000 A 
ATOM     21  C   UNL     1       0.567   9.723  20.108  0.00  0.00    +0.000 A 
ATOM     22  C   UNL     1       0.965   9.766  21.545  0.00  0.00    +0.000 C 
ATOM     23  N   UNL     1      -0.750   9.726  19.830  0.00  0.00    +0.000 NA
BRANCH  18  29
ATOM     24  C   UNL     1      -3.290  10.065  14.521  0.00  0.00    +0.000 C 
ATOM     25  C   UNL     1      -3.210  10.579  15.928  0.00  0.00    +0.000 A 
ATOM     26  C   UNL     1      -4.305  11.232  16.509  0.00  0.00    +0.000 A 
ATOM     27  C   UNL     1      -4.249  11.674  17.830  0.00  0.00    +0.000 A 
ATOM     28  C   UNL     1      -3.105  11.448  18.593  0.00  0.00    +0.000 A 
ATOM     29  C   UNL     1      -2.003  10.793  18.025  0.00  0.00    +0.000 A 
ATOM     30  C   UNL     1      -2.047  10.376  16.688  0.00  0.00    +0.000 A 
ENDBRANCH  18  29
ENDBRANCH  17  20
ENDBRANCH   1  17
TORSDOF 6
ENDMDL
MODEL 7
REMARK VINA RESULT:      -8.7      4.054      6.198
REMARK  Name = 
REMARK  8 active torsions:
REMARK  status: ('A' for Active; 'I' for Inactive)
REMARK    1  A    between atoms: C_1  and  C_2
REMARK    2  A    between atoms: C_6  and  N_7
REMARK    3  A    between atoms: C_9  and  C_10
REMARK    4  A    between atoms: C_10  and  N_11
REMARK    5  A    between atoms: N_11  and  C_12
REMARK    6  A    between atoms: C_18  and  C_19
REMARK    7  A    between atoms: C_19  and  O_21
REMARK    8  A    between atoms: C_24  and  C_25
REMARK                            x       y       z     vdW  Elec       q    Type
REMARK                         _______ _______ _______ _____ _____    ______ ____
ROOT
ATOM      1  N   UNL     1       3.561   7.479  18.164  0.00  0.00    +0.000 N 
ATOM      2  H   UNL     1       4.202   8.019  18.747  0.00  0.00    +0.000 HD
ENDROOT
BRANCH   1   3
ATOM      3  C   UNL     1       2.913   6.518  18.970  0.00  0.00    +0.000 A 
ATOM      4  C   UNL     1       2.109   6.879  20.058  0.00  0.00    +0.000 A 
ATOM      5  C   UNL     1       1.452   5.933  20.852  0.00  0.00    +0.000 A 
ATOM      6  C   UNL     1       1.606   4.593  20.503  0.00  0.00    +0.000 A 
ATOM      7  N   UNL     1       1.065   3.447  21.030  0.00  0.00    +0.000 N 
ATOM      8  N   UNL     1       1.403   2.317  20.358  0.00  0.00    +0.000 NA
ATOM      9  C   UNL     1       2.246   2.772  19.406  0.00  0.00    +0.000 A 
ATOM     10  C   UNL     1       2.428   4.184  19.466  0.00  0.00    +0.000 A 
ATOM     11  C   UNL     1       3.147   5.152  18.735  0.00  0.00    +0.000 A 
ATOM     12  H   UNL     1       0.427   3.371  21.814  0.00  0.00    +0.000 HD
BRANCH   9  13
ATOM     13  C   UNL     1       2.797   1.833  18.439  0.00  0.00    +0.000 C 
ATOM     14  O   UNL     1       3.783   1.125  18.619  0.00  0.00    +0.000 OA
BRANCH  13  15
ATOM     15  O   UNL     1       2.101   1.834  17.266  0.00  0.00    +0.000 OA
ATOM     16  H   UNL     1       1.316   2.412  17.416  0.00  0.00    +0.000 HD
ENDBRANCH  13  15
ENDBRANCH   9  13
ENDBRANCH   1   3
BRANCH   1  17
ATOM     17  C   UNL     1       4.293   6.964  17.000  0.00  0.00    +0.000 C 
BRANCH  17  20
ATOM     18  N   UNL     1       6.647   5.286  15.545  0.00  0.00    +0.000 N 
ATOM     19  C   UNL     1       5.681   4.887  16.449  0.00  0.00    +0.000 A 
ATOM     20  C   UNL     1       5.473   6.030  17.207  0.00  0.00    +0.000 A 
ATOM     21  C   UNL     1       6.845   6.408  17.323  0.00  0.00    +0.000 A 
ATOM     22  C   UNL     1       7.661   6.428  18.571  0.00  0.00    +0.000 C 
ATOM     23  N   UNL     1       7.488   6.150  16.168  0.00  0.00    +0.000 NA
BRANCH  18  29
ATOM     24  C   UNL     1       5.249   2.415  11.751  0.00  0.00    +0.000 C 
ATOM     25  C   UNL     1       6.158   3.452  12.341  0.00  0.00    +0.000 A 
ATOM     26  C   UNL     1       7.152   4.054  11.558  0.00  0.00    +0.000 A 
ATOM     27  C   UNL     1       7.970   5.049  12.091  0.00  0.00    +0.000 A 
ATOM     28  C   UNL     1       7.790   5.469  13.406  0.00  0.00    +0.000 A 
ATOM     29  C   UNL     1       6.797   4.878  14.201  0.00  0.00    +0.000 A 
ATOM     30  C   UNL     1       5.995   3.856  13.675  0.00  0.00    +0.000 A 
ENDBRANCH  18  29
ENDBRANCH  17  20
ENDBRANCH   1  17
TORSDOF 6
ENDMDL
MODEL 8
REMARK VINA RESULT:      -8.7      2.018      3.191
REMARK  Name = 
REMARK  8 active torsions:
REMARK  status: ('A' for Active; 'I' for Inactive)
REMARK    1  A    between atoms: C_1  and  C_2
REMARK    2  A    between atoms: C_6  and  N_7
REMARK    3  A    between atoms: C_9  and  C_10
REMARK    4  A    between atoms: C_10  and  N_11
REMARK    5  A    between atoms: N_11  and  C_12
REMARK    6  A    between atoms: C_18  and  C_19
REMARK    7  A    between atoms: C_19  and  O_21
REMARK    8  A    between atoms: C_24  and  C_25
REMARK                            x       y       z     vdW  Elec       q    Type
REMARK                         _______ _______ _______ _____ _____    ______ ____
ROOT
ATOM      1  N   UNL     1       2.739   6.315  18.578  0.00  0.00    +0.000 N 
ATOM      2  H   UNL     1       1.968   5.668  18.405  0.00  0.00    +0.000 HD
ENDROOT
BRANCH   1   3
ATOM      3  C   UNL     1       2.210   7.603  18.804  0.00  0.00    +0.000 A 
ATOM      4  C   UNL     1       2.217   8.596  17.816  0.00  0.00    +0.000 A 
ATOM      5  C   UNL     1       1.682   9.870  18.029  0.00  0.00    +0.000 A 
ATOM      6  C   UNL     1       1.106  10.118  19.273  0.00  0.00    +0.000 A 
ATOM      7  N   UNL     1       0.459  11.220  19.773  0.00  0.00    +0.000 N 
ATOM      8  N   UNL     1      -0.034  11.050  21.027  0.00  0.00    +0.000 NA
ATOM      9  C   UNL     1       0.380   9.805  21.348  0.00  0.00    +0.000 A 
ATOM     10  C   UNL     1       1.118   9.186  20.297  0.00  0.00    +0.000 A 
ATOM     11  C   UNL     1       1.741   7.939  20.086  0.00  0.00    +0.000 A 
ATOM     12  H   UNL     1       0.283  12.100  19.300  0.00  0.00    +0.000 HD
BRANCH   9  13
ATOM     13  C   UNL     1      -0.004   9.240  22.634  0.00  0.00    +0.000 C 
ATOM     14  O   UNL     1       0.342   9.669  23.730  0.00  0.00    +0.000 OA
BRANCH  13  15
ATOM     15  O   UNL     1      -0.792   8.135  22.496  0.00  0.00    +0.000 OA
ATOM     16  H   UNL     1      -0.397   7.445  23.080  0.00  0.00    +0.000 HD
ENDBRANCH  13  15
ENDBRANCH   9  13
ENDBRANCH   1   3
BRANCH   1  17
ATOM     17  C   UNL     1       3.717   6.195  17.488  0.00  0.00    +0.000 C 
BRANCH  17  20
ATOM     18  N   UNL     1       6.233   4.813  15.994  0.00  0.00    +0.000 N 
ATOM     19  C   UNL     1       5.215   4.259  16.746  0.00  0.00    +0.000 A 
ATOM     20  C   UNL     1       4.910   5.268  17.648  0.00  0.00    +0.000 A 
ATOM     21  C   UNL     1       6.255   5.656  17.929  0.00  0.00    +0.000 A 
ATOM     22  C   UNL     1       6.972   5.505  19.228  0.00  0.00    +0.000 C 
ATOM     23  N   UNL     1       6.993   5.592  16.805  0.00  0.00    +0.000 NA
BRANCH  18  29
ATOM     24  C   UNL     1       5.223   2.531  11.708  0.00  0.00    +0.000 C 
ATOM     25  C   UNL     1       6.051   3.483  12.520  0.00  0.00    +0.000 A 
ATOM     26  C   UNL     1       7.084   4.215  11.920  0.00  0.00    +0.000 A 
ATOM     27  C   UNL     1       7.827   5.132  12.663  0.00  0.00    +0.000 A 
ATOM     28  C   UNL     1       7.533   5.342  14.007  0.00  0.00    +0.000 A 
ATOM     29  C   UNL     1       6.500   4.618  14.619  0.00  0.00    +0.000 A 
ATOM     30  C   UNL     1       5.773   3.675  13.882  0.00  0.00    +0.000 A 
ENDBRANCH  18  29
ENDBRANCH  17  20
ENDBRANCH   1  17
TORSDOF 6
ENDMDL
MODEL 9
REMARK VINA RESULT:      -8.6      4.175      8.914
REMARK  Name = 
REMARK  8 active torsions:
REMARK  status: ('A' for Active; 'I' for Inactive)
REMARK    1  A    between atoms: C_1  and  C_2
REMARK    2  A    between atoms: C_6  and  N_7
REMARK    3  A    between atoms: C_9  and  C_10
REMARK    4  A    between atoms: C_10  and  N_11
REMARK    5  A    between atoms: N_11  and  C_12
REMARK    6  A    between atoms: C_18  and  C_19
REMARK    7  A    between atoms: C_19  and  O_21
REMARK    8  A    between atoms: C_24  and  C_25
REMARK                            x       y       z     vdW  Elec       q    Type
REMARK                         _______ _______ _______ _____ _____    ______ ____
ROOT
ATOM      1  N   UNL     1       1.825   7.806  17.829  0.00  0.00    +0.000 N 
ATOM      2  H   UNL     1       0.940   7.623  18.304  0.00  0.00    +0.000 HD
ENDROOT
BRANCH   1   3
ATOM      3  C   UNL     1       2.776   6.855  18.256  0.00  0.00    +0.000 A 
ATOM      4  C   UNL     1       2.490   5.907  19.246  0.00  0.00    +0.000 A 
ATOM      5  C   UNL     1       3.422   4.952  19.664  0.00  0.00    +0.000 A 
ATOM      6  C   UNL     1       4.663   4.957  19.031  0.00  0.00    +0.000 A 
ATOM      7  N   UNL     1       5.756   4.137  19.164  0.00  0.00    +0.000 N 
ATOM      8  N   UNL     1       6.768   4.423  18.305  0.00  0.00    +0.000 NA
ATOM      9  C   UNL     1       6.311   5.511  17.649  0.00  0.00    +0.000 A 
ATOM     10  C   UNL     1       5.010   5.903  18.081  0.00  0.00    +0.000 A 
ATOM     11  C   UNL     1       4.082   6.908  17.740  0.00  0.00    +0.000 A 
ATOM     12  H   UNL     1       5.860   3.344  19.786  0.00  0.00    +0.000 HD
BRANCH   9  13
ATOM     13  C   UNL     1       7.124   6.095  16.591  0.00  0.00    +0.000 C 
ATOM     14  O   UNL     1       7.471   5.522  15.564  0.00  0.00    +0.000 OA
BRANCH  13  15
ATOM     15  O   UNL     1       7.493   7.378  16.874  0.00  0.00    +0.000 OA
ATOM     16  H   UNL     1       7.527   7.848  16.008  0.00  0.00    +0.000 HD
ENDBRANCH  13  15
ENDBRANCH   9  13
ENDBRANCH   1   3
BRANCH   1  17
ATOM     17  C   UNL     1       2.185   9.217  18.021  0.00  0.00    +0.000 C 
BRANCH  17  20
ATOM     18  N   UNL     1      -0.726  10.426  18.752  0.00  0.00    +0.000 N 
ATOM     19  C   UNL     1       0.499  11.049  18.604  0.00  0.00    +0.000 A 
ATOM     20  C   UNL     1       1.396  10.068  19.000  0.00  0.00    +0.000 A 
ATOM     21  C   UNL     1       0.650   9.599  20.123  0.00  0.00    +0.000 A 
ATOM     22  C   UNL     1       1.034   9.715  21.559  0.00  0.00    +0.000 C 
ATOM     23  N   UNL     1      -0.665   9.608  19.833  0.00  0.00    +0.000 NA
BRANCH  18  29
ATOM     24  C   UNL     1      -5.298  12.256  18.165  0.00  0.00    +0.000 C 
ATOM     25  C   UNL     1      -4.140  11.443  17.666  0.00  0.00    +0.000 A 
ATOM     26  C   UNL     1      -4.179  10.861  16.393  0.00  0.00    +0.000 A 
ATOM     27  C   UNL     1      -3.087  10.141  15.909  0.00  0.00    +0.000 A 
ATOM     28  C   UNL     1      -1.938  10.012  16.684  0.00  0.00    +0.000 A 
ATOM     29  C   UNL     1      -1.884  10.593  17.959  0.00  0.00    +0.000 A 
ATOM     30  C   UNL     1      -2.992  11.291  18.458  0.00  0.00    +0.000 A 
ENDBRANCH  18  29
ENDBRANCH  17  20
ENDBRANCH   1  17
TORSDOF 6
ENDMDL
