MODEL 1
REMARK VINA RESULT:      -8.6      0.000      0.000
REMARK  Name = 
REMARK  6 active torsions:
REMARK  status: ('A' for Active; 'I' for Inactive)
REMARK    1  A    between atoms: C_1  and  C_2
REMARK    2  A    between atoms: C_2  and  C_4
REMARK    3  A    between atoms: C_8  and  N_9
REMARK    4  A    between atoms: C_14  and  C_15
REMARK    5  A    between atoms: C_15  and  C_16
REMARK    6  A    between atoms: C_19  and  C_20
REMARK                            x       y       z     vdW  Elec       q    Type
REMARK                         _______ _______ _______ _____ _____    ______ ____
ROOT
ATOM      1  N   UNL     1       3.949   4.703  19.243  0.00  0.00    +0.000 N 
ATOM      2  C   UNL     1       5.314   5.267  19.328  0.00  0.00    +0.000 C 
ATOM      3  C   UNL     1       5.824   5.066  17.934  0.00  0.00    +0.000 A 
ATOM      4  C   UNL     1       5.143   3.972  17.394  0.00  0.00    +0.000 A 
ATOM      5  C   UNL     1       5.277   3.569  16.077  0.00  0.00    +0.000 A 
ATOM      6  C   UNL     1       6.128   4.316  15.255  0.00  0.00    +0.000 A 
ATOM      7  C   UNL     1       6.791   5.449  15.787  0.00  0.00    +0.000 A 
ATOM      8  C   UNL     1       6.650   5.847  17.135  0.00  0.00    +0.000 A 
ATOM      9  C   UNL     1       4.021   3.645  18.306  0.00  0.00    +0.000 C 
ATOM     10  O   UNL     1       3.223   2.746  18.109  0.00  0.00    +0.000 OA
ENDROOT
BRANCH   1  15
ATOM     11  C   UNL     1       1.902   7.655  19.959  0.00  0.00    +0.000 A 
ATOM     12  C   UNL     1       2.274   8.445  18.863  0.00  0.00    +0.000 A 
ATOM     13  C   UNL     1       2.844   7.860  17.739  0.00  0.00    +0.000 A 
ATOM     14  C   UNL     1       3.147   6.501  17.745  0.00  0.00    +0.000 A 
ATOM     15  C   UNL     1       2.997   5.756  18.925  0.00  0.00    +0.000 A 
ATOM     16  C   UNL     1       2.235   6.297  19.969  0.00  0.00    +0.000 A 
BRANCH  11  18
ATOM     17  C   UNL     1       0.859   9.731  20.825  0.00  0.00    +0.000 C 
ATOM     18  C   UNL     1       1.173   8.273  21.125  0.00  0.00    +0.000 C 
ATOM     19  F   UNL     1      -0.003   7.641  21.405  0.00  0.00    +0.000 F 
ENDBRANCH  11  18
ENDBRANCH   1  15
BRANCH   8  20
ATOM     20  C   UNL     1       7.295   7.128  17.597  0.00  0.00    +0.000 C 
ATOM     21  F   UNL     1       6.418   8.134  17.863  0.00  0.00    +0.000 F 
ATOM     22  F   UNL     1       8.016   6.960  18.739  0.00  0.00    +0.000 F 
ATOM     23  F   UNL     1       8.165   7.633  16.677  0.00  0.00    +0.000 F 
ENDBRANCH   8  20
BRANCH   6  24
ATOM     24  C   UNL     1       6.275   3.974  13.791  0.00  0.00    +0.000 C 
BRANCH  24  25
ATOM     25  C   UNL     1       7.323   4.818  13.076  0.00  0.00    +0.000 C 
ATOM     26  F   UNL     1       7.392   4.453  11.766  0.00  0.00    +0.000 F 
ENDBRANCH  24  25
ENDBRANCH   6  24
TORSDOF 5
ENDMDL
MODEL 2
REMARK VINA RESULT:      -8.1      0.705      1.099
REMARK  Name = 
REMARK  6 active torsions:
REMARK  status: ('A' for Active; 'I' for Inactive)
REMARK    1  A    between atoms: C_1  and  C_2
REMARK    2  A    between atoms: C_2  and  C_4
REMARK    3  A    between atoms: C_8  and  N_9
REMARK    4  A    between atoms: C_14  and  C_15
REMARK    5  A    between atoms: C_15  and  C_16
REMARK    6  A    between atoms: C_19  and  C_20
REMARK                            x       y       z     vdW  Elec       q    Type
REMARK                         _______ _______ _______ _____ _____    ______ ____
ROOT
ATOM      1  N   UNL     1       4.040   4.668  19.187  0.00  0.00    +0.000 N 
ATOM      2  C   UNL     1       5.392   5.259  19.305  0.00  0.00    +0.000 C 
ATOM      3  C   UNL     1       5.923   5.109  17.913  0.00  0.00    +0.000 A 
ATOM      4  C   UNL     1       5.273   4.016  17.334  0.00  0.00    +0.000 A 
ATOM      5  C   UNL     1       5.432   3.655  16.008  0.00  0.00    +0.000 A 
ATOM      6  C   UNL     1       6.277   4.444  15.218  0.00  0.00    +0.000 A 
ATOM      7  C   UNL     1       6.908   5.575  15.791  0.00  0.00    +0.000 A 
ATOM      8  C   UNL     1       6.741   5.930  17.148  0.00  0.00    +0.000 A 
ATOM      9  C   UNL     1       4.148   3.639  18.221  0.00  0.00    +0.000 C 
ATOM     10  O   UNL     1       3.372   2.729  17.988  0.00  0.00    +0.000 OA
ENDROOT
BRANCH   1  15
ATOM     11  C   UNL     1       1.820   7.469  19.990  0.00  0.00    +0.000 A 
ATOM     12  C   UNL     1       2.237   8.364  18.996  0.00  0.00    +0.000 A 
ATOM     13  C   UNL     1       2.913   7.901  17.874  0.00  0.00    +0.000 A 
ATOM     14  C   UNL     1       3.273   6.559  17.788  0.00  0.00    +0.000 A 
ATOM     15  C   UNL     1       3.070   5.709  18.887  0.00  0.00    +0.000 A 
ATOM     16  C   UNL     1       2.210   6.128  19.912  0.00  0.00    +0.000 A 
BRANCH  11  18
ATOM     17  C   UNL     1       1.764   8.975  21.958  0.00  0.00    +0.000 C 
ATOM     18  C   UNL     1       0.982   7.955  21.145  0.00  0.00    +0.000 C 
ATOM     19  F   UNL     1      -0.180   8.545  20.740  0.00  0.00    +0.000 F 
ENDBRANCH  11  18
ENDBRANCH   1  15
BRANCH   8  20
ATOM     20  C   UNL     1       7.352   7.211  17.655  0.00  0.00    +0.000 C 
ATOM     21  F   UNL     1       8.063   7.077  18.807  0.00  0.00    +0.000 F 
ATOM     22  F   UNL     1       8.213   7.763  16.757  0.00  0.00    +0.000 F 
ATOM     23  F   UNL     1       6.416   8.169  17.911  0.00  0.00    +0.000 F 
ENDBRANCH   8  20
BRANCH   6  24
ATOM     24  C   UNL     1       6.450   4.147  13.746  0.00  0.00    +0.000 C 
BRANCH  24  25
ATOM     25  C   UNL     1       5.174   3.650  13.077  0.00  0.00    +0.000 C 
ATOM     26  F   UNL     1       5.486   2.749  12.106  0.00  0.00    +0.000 F 
ENDBRANCH  24  25
ENDBRANCH   6  24
TORSDOF 5
ENDMDL
MODEL 3
REMARK VINA RESULT:      -7.9      2.733      5.825
REMARK  Name = 
REMARK  6 active torsions:
REMARK  status: ('A' for Active; 'I' for Inactive)
REMARK    1  A    between atoms: C_1  and  C_2
REMARK    2  A    between atoms: C_2  and  C_4
REMARK    3  A    between atoms: C_8  and  N_9
REMARK    4  A    between atoms: C_14  and  C_15
REMARK    5  A    between atoms: C_15  and  C_16
REMARK    6  A    between atoms: C_19  and  C_20
REMARK                            x       y       z     vdW  Elec       q    Type
REMARK                         _______ _______ _______ _____ _____    ______ ____
ROOT
ATOM      1  N   UNL     1       6.097   5.462  15.677  0.00  0.00    +0.000 N 
ATOM      2  C   UNL     1       4.915   6.329  15.883  0.00  0.00    +0.000 C 
ATOM      3  C   UNL     1       4.101   5.526  16.849  0.00  0.00    +0.000 A 
ATOM      4  C   UNL     1       4.428   4.182  16.656  0.00  0.00    +0.000 A 
ATOM      5  C   UNL     1       3.950   3.161  17.458  0.00  0.00    +0.000 A 
ATOM      6  C   UNL     1       3.112   3.513  18.522  0.00  0.00    +0.000 A 
ATOM      7  C   UNL     1       2.808   4.878  18.747  0.00  0.00    +0.000 A 
ATOM      8  C   UNL     1       3.298   5.910  17.916  0.00  0.00    +0.000 A 
ATOM      9  C   UNL     1       5.627   4.131  15.785  0.00  0.00    +0.000 C 
ATOM     10  O   UNL     1       6.175   3.099  15.441  0.00  0.00    +0.000 OA
ENDROOT
BRANCH   1  15
ATOM     11  C   UNL     1       7.876   7.713  17.953  0.00  0.00    +0.000 A 
ATOM     12  C   UNL     1       7.979   6.861  19.060  0.00  0.00    +0.000 A 
ATOM     13  C   UNL     1       7.839   5.488  18.903  0.00  0.00    +0.000 A 
ATOM     14  C   UNL     1       7.488   4.965  17.661  0.00  0.00    +0.000 A 
ATOM     15  C   UNL     1       7.150   5.831  16.609  0.00  0.00    +0.000 A 
ATOM     16  C   UNL     1       7.495   7.186  16.715  0.00  0.00    +0.000 A 
BRANCH  11  18
ATOM     17  C   UNL     1       8.996   9.434  19.342  0.00  0.00    +0.000 C 
ATOM     18  C   UNL     1       8.148   9.188  18.104  0.00  0.00    +0.000 C 
ATOM     19  F   UNL     1       8.810   9.714  17.033  0.00  0.00    +0.000 F 
ENDBRANCH  11  18
ENDBRANCH   1  15
BRANCH   8  20
ATOM     20  C   UNL     1       3.026   7.345  18.286  0.00  0.00    +0.000 C 
ATOM     21  F   UNL     1       2.687   7.534  19.590  0.00  0.00    +0.000 F 
ATOM     22  F   UNL     1       4.103   8.148  18.068  0.00  0.00    +0.000 F 
ATOM     23  F   UNL     1       2.005   7.885  17.560  0.00  0.00    +0.000 F 
ENDBRANCH   8  20
BRANCH   6  24
ATOM     24  C   UNL     1       2.602   2.459  19.478  0.00  0.00    +0.000 C 
BRANCH  24  25
ATOM     25  C   UNL     1       1.273   2.824  20.127  0.00  0.00    +0.000 C 
ATOM     26  F   UNL     1       0.250   2.510  19.286  0.00  0.00    +0.000 F 
ENDBRANCH  24  25
ENDBRANCH   6  24
TORSDOF 5
ENDMDL
MODEL 4
REMARK VINA RESULT:      -7.6      1.010      1.264
REMARK  Name = 
REMARK  6 active torsions:
REMARK  status: ('A' for Active; 'I' for Inactive)
REMARK    1  A    between atoms: C_1  and  C_2
REMARK    2  A    between atoms: C_2  and  C_4
REMARK    3  A    between atoms: C_8  and  N_9
REMARK    4  A    between atoms: C_14  and  C_15
REMARK    5  A    between atoms: C_15  and  C_16
REMARK    6  A    between atoms: C_19  and  C_20
REMARK                            x       y       z     vdW  Elec       q    Type
REMARK                         _______ _______ _______ _____ _____    ______ ____
ROOT
ATOM      1  N   UNL     1       3.163   4.105  18.653  0.00  0.00    +0.000 N 
ATOM      2  C   UNL     1       4.527   4.198  19.218  0.00  0.00    +0.000 C 
ATOM      3  C   UNL     1       5.373   4.273  17.984  0.00  0.00    +0.000 A 
ATOM      4  C   UNL     1       4.674   3.631  16.959  0.00  0.00    +0.000 A 
ATOM      5  C   UNL     1       5.107   3.609  15.645  0.00  0.00    +0.000 A 
ATOM      6  C   UNL     1       6.295   4.283  15.342  0.00  0.00    +0.000 A 
ATOM      7  C   UNL     1       6.988   4.967  16.371  0.00  0.00    +0.000 A 
ATOM      8  C   UNL     1       6.539   4.977  17.710  0.00  0.00    +0.000 A 
ATOM      9  C   UNL     1       3.292   3.392  17.436  0.00  0.00    +0.000 C 
ATOM     10  O   UNL     1       2.422   2.863  16.768  0.00  0.00    +0.000 OA
ENDROOT
BRANCH   1  15
ATOM     11  C   UNL     1       1.971   7.325  19.927  0.00  0.00    +0.000 A 
ATOM     12  C   UNL     1       2.656   8.172  19.045  0.00  0.00    +0.000 A 
ATOM     13  C   UNL     1       3.144   7.681  17.841  0.00  0.00    +0.000 A 
ATOM     14  C   UNL     1       3.050   6.321  17.558  0.00  0.00    +0.000 A 
ATOM     15  C   UNL     1       2.582   5.434  18.540  0.00  0.00    +0.000 A 
ATOM     16  C   UNL     1       1.905   5.956  19.651  0.00  0.00    +0.000 A 
BRANCH  11  18
ATOM     17  C   UNL     1       1.131   9.385  21.023  0.00  0.00    +0.000 C 
ATOM     18  C   UNL     1       1.336   7.885  21.175  0.00  0.00    +0.000 C 
ATOM     19  F   UNL     1       0.122   7.323  21.445  0.00  0.00    +0.000 F 
ENDBRANCH  11  18
ENDBRANCH   1  15
BRANCH   8  20
ATOM     20  C   UNL     1       7.265   5.823  18.725  0.00  0.00    +0.000 C 
ATOM     21  F   UNL     1       7.648   7.045  18.265  0.00  0.00    +0.000 F 
ATOM     22  F   UNL     1       6.509   6.068  19.829  0.00  0.00    +0.000 F 
ATOM     23  F   UNL     1       8.405   5.227  19.177  0.00  0.00    +0.000 F 
ENDBRANCH   8  20
BRANCH   6  24
ATOM     24  C   UNL     1       6.795   4.355  13.918  0.00  0.00    +0.000 C 
BRANCH  24  25
ATOM     25  C   UNL     1       5.894   3.632  12.925  0.00  0.00    +0.000 C 
ATOM     26  F   UNL     1       6.644   2.813  12.137  0.00  0.00    +0.000 F 
ENDBRANCH  24  25
ENDBRANCH   6  24
TORSDOF 5
ENDMDL
MODEL 5
REMARK VINA RESULT:      -7.2      4.130      7.728
REMARK  Name = 
REMARK  6 active torsions:
REMARK  status: ('A' for Active; 'I' for Inactive)
REMARK    1  A    between atoms: C_1  and  C_2
REMARK    2  A    between atoms: C_2  and  C_4
REMARK    3  A    between atoms: C_8  and  N_9
REMARK    4  A    between atoms: C_14  and  C_15
REMARK    5  A    between atoms: C_15  and  C_16
REMARK    6  A    between atoms: C_19  and  C_20
REMARK                            x       y       z     vdW  Elec       q    Type
REMARK                         _______ _______ _______ _____ _____    ______ ____
ROOT
ATOM      1  N   UNL     1       2.632   7.580  19.347  0.00  0.00    +0.000 N 
ATOM      2  C   UNL     1       2.264   8.356  20.552  0.00  0.00    +0.000 C 
ATOM      3  C   UNL     1       1.099   9.160  20.063  0.00  0.00    +0.000 A 
ATOM      4  C   UNL     1       1.252   9.322  18.685  0.00  0.00    +0.000 A 
ATOM      5  C   UNL     1       0.297   9.918  17.880  0.00  0.00    +0.000 A 
ATOM      6  C   UNL     1      -0.881  10.360  18.492  0.00  0.00    +0.000 A 
ATOM      7  C   UNL     1      -1.058  10.163  19.884  0.00  0.00    +0.000 A 
ATOM      8  C   UNL     1      -0.073   9.558  20.695  0.00  0.00    +0.000 A 
ATOM      9  C   UNL     1       2.335   8.412  18.241  0.00  0.00    +0.000 C 
ATOM     10  O   UNL     1       2.702   8.302  17.085  0.00  0.00    +0.000 OA
ENDROOT
BRANCH   1  15
ATOM     11  C   UNL     1       2.217   4.037  18.513  0.00  0.00    +0.000 A 
ATOM     12  C   UNL     1       1.964   3.542  19.800  0.00  0.00    +0.000 A 
ATOM     13  C   UNL     1       1.543   4.398  20.809  0.00  0.00    +0.000 A 
ATOM     14  C   UNL     1       1.475   5.768  20.572  0.00  0.00    +0.000 A 
ATOM     15  C   UNL     1       1.955   6.293  19.362  0.00  0.00    +0.000 A 
ATOM     16  C   UNL     1       2.175   5.417  18.289  0.00  0.00    +0.000 A 
BRANCH  11  18
ATOM     17  C   UNL     1       4.039   3.185  17.065  0.00  0.00    +0.000 C 
ATOM     18  C   UNL     1       2.556   3.091  17.390  0.00  0.00    +0.000 C 
ATOM     19  F   UNL     1       2.277   1.790  17.695  0.00  0.00    +0.000 F 
ENDBRANCH  11  18
ENDBRANCH   1  15
BRANCH   8  20
ATOM     20  C   UNL     1      -0.381   9.279  22.144  0.00  0.00    +0.000 C 
ATOM     21  F   UNL     1      -0.973   8.075  22.370  0.00  0.00    +0.000 F 
ATOM     22  F   UNL     1       0.737   9.290  22.920  0.00  0.00    +0.000 F 
ATOM     23  F   UNL     1      -1.220  10.208  22.685  0.00  0.00    +0.000 F 
ENDBRANCH   8  20
BRANCH   6  24
ATOM     24  C   UNL     1      -1.994  10.963  17.667  0.00  0.00    +0.000 C 
BRANCH  24  25
ATOM     25  C   UNL     1      -3.060   9.953  17.260  0.00  0.00    +0.000 C 
ATOM     26  F   UNL     1      -2.757   9.433  16.039  0.00  0.00    +0.000 F 
ENDBRANCH  24  25
ENDBRANCH   6  24
TORSDOF 5
ENDMDL
MODEL 6
REMARK VINA RESULT:      -7.2      6.433      9.349
REMARK  Name = 
REMARK  6 active torsions:
REMARK  status: ('A' for Active; 'I' for Inactive)
REMARK    1  A    between atoms: C_1  and  C_2
REMARK    2  A    between atoms: C_2  and  C_4
REMARK    3  A    between atoms: C_8  and  N_9
REMARK    4  A    between atoms: C_14  and  C_15
REMARK    5  A    between atoms: C_15  and  C_16
REMARK    6  A    between atoms: C_19  and  C_20
REMARK                            x       y       z     vdW  Elec       q    Type
REMARK                         _______ _______ _______ _____ _____    ______ ____
ROOT
ATOM      1  N   UNL     1      -0.026  13.184  20.268  0.00  0.00    +0.000 N 
ATOM      2  C   UNL     1       0.566  11.829  20.318  0.00  0.00    +0.000 C 
ATOM      3  C   UNL     1      -0.280  11.080  19.335  0.00  0.00    +0.000 A 
ATOM      4  C   UNL     1      -1.527  11.709  19.293  0.00  0.00    +0.000 A 
ATOM      5  C   UNL     1      -2.525  11.355  18.403  0.00  0.00    +0.000 A 
ATOM      6  C   UNL     1      -2.250  10.324  17.497  0.00  0.00    +0.000 A 
ATOM      7  C   UNL     1      -0.974   9.709  17.510  0.00  0.00    +0.000 A 
ATOM      8  C   UNL     1       0.035  10.077  18.427  0.00  0.00    +0.000 A 
ATOM      9  C   UNL     1      -1.406  12.998  20.014  0.00  0.00    +0.000 C 
ATOM     10  O   UNL     1      -2.318  13.795  20.143  0.00  0.00    +0.000 OA
ENDROOT
BRANCH   1  15
ATOM     11  C   UNL     1       0.846  16.299  18.549  0.00  0.00    +0.000 A 
ATOM     12  C   UNL     1       2.241  16.216  18.648  0.00  0.00    +0.000 A 
ATOM     13  C   UNL     1       2.853  14.994  18.896  0.00  0.00    +0.000 A 
ATOM     14  C   UNL     1       2.075  13.869  19.155  0.00  0.00    +0.000 A 
ATOM     15  C   UNL     1       0.685  13.998  19.294  0.00  0.00    +0.000 A 
ATOM     16  C   UNL     1       0.069  15.172  18.839  0.00  0.00    +0.000 A 
BRANCH  11  18
ATOM     17  C   UNL     1       0.976  18.258  17.036  0.00  0.00    +0.000 C 
ATOM     18  C   UNL     1       0.190  17.600  18.160  0.00  0.00    +0.000 C 
ATOM     19  F   UNL     1      -1.094  17.434  17.729  0.00  0.00    +0.000 F 
ENDBRANCH  11  18
ENDBRANCH   1  15
BRANCH   8  20
ATOM     20  C   UNL     1       1.404   9.458  18.304  0.00  0.00    +0.000 C 
ATOM     21  F   UNL     1       2.383  10.329  17.942  0.00  0.00    +0.000 F 
ATOM     22  F   UNL     1       1.824   8.899  19.471  0.00  0.00    +0.000 F 
ATOM     23  F   UNL     1       1.440   8.458  17.377  0.00  0.00    +0.000 F 
ENDBRANCH   8  20
BRANCH   6  24
ATOM     24  C   UNL     1      -3.270   9.926  16.456  0.00  0.00    +0.000 C 
BRANCH  24  25
ATOM     25  C   UNL     1      -3.212  10.780  15.196  0.00  0.00    +0.000 C 
ATOM     26  F   UNL     1      -2.642  10.069  14.185  0.00  0.00    +0.000 F 
ENDBRANCH  24  25
ENDBRANCH   6  24
TORSDOF 5
ENDMDL
MODEL 7
REMARK VINA RESULT:      -7.2      2.802      5.643
REMARK  Name = 
REMARK  6 active torsions:
REMARK  status: ('A' for Active; 'I' for Inactive)
REMARK    1  A    between atoms: C_1  and  C_2
REMARK    2  A    between atoms: C_2  and  C_4
REMARK    3  A    between atoms: C_8  and  N_9
REMARK    4  A    between atoms: C_14  and  C_15
REMARK    5  A    between atoms: C_15  and  C_16
REMARK    6  A    between atoms: C_19  and  C_20
REMARK                            x       y       z     vdW  Elec       q    Type
REMARK                         _______ _______ _______ _____ _____    ______ ____
ROOT
ATOM      1  N   UNL     1       6.152   5.645  15.558  0.00  0.00    +0.000 N 
ATOM      2  C   UNL     1       4.940   6.461  15.794  0.00  0.00    +0.000 C 
ATOM      3  C   UNL     1       4.143   5.582  16.709  0.00  0.00    +0.000 A 
ATOM      4  C   UNL     1       4.518   4.262  16.450  0.00  0.00    +0.000 A 
ATOM      5  C   UNL     1       4.066   3.186  17.194  0.00  0.00    +0.000 A 
ATOM      6  C   UNL     1       3.206   3.454  18.265  0.00  0.00    +0.000 A 
ATOM      7  C   UNL     1       2.854   4.795  18.555  0.00  0.00    +0.000 A 
ATOM      8  C   UNL     1       3.317   5.884  17.784  0.00  0.00    +0.000 A 
ATOM      9  C   UNL     1       5.726   4.296  15.593  0.00  0.00    +0.000 C 
ATOM     10  O   UNL     1       6.312   3.302  15.202  0.00  0.00    +0.000 OA
ENDROOT
BRANCH   1  15
ATOM     11  C   UNL     1       7.812   7.822  17.992  0.00  0.00    +0.000 A 
ATOM     12  C   UNL     1       7.951   6.903  19.041  0.00  0.00    +0.000 A 
ATOM     13  C   UNL     1       7.878   5.539  18.791  0.00  0.00    +0.000 A 
ATOM     14  C   UNL     1       7.557   5.084  17.515  0.00  0.00    +0.000 A 
ATOM     15  C   UNL     1       7.182   6.001  16.521  0.00  0.00    +0.000 A 
ATOM     16  C   UNL     1       7.462   7.360  16.719  0.00  0.00    +0.000 A 
BRANCH  11  18
ATOM     17  C   UNL     1       9.274   9.512  19.066  0.00  0.00    +0.000 C 
ATOM     18  C   UNL     1       8.013   9.295  18.242  0.00  0.00    +0.000 C 
ATOM     19  F   UNL     1       8.140  10.012  17.089  0.00  0.00    +0.000 F 
ENDBRANCH  11  18
ENDBRANCH   1  15
BRANCH   8  20
ATOM     20  C   UNL     1       2.993   7.289  18.224  0.00  0.00    +0.000 C 
ATOM     21  F   UNL     1       3.980   8.194  17.986  0.00  0.00    +0.000 F 
ATOM     22  F   UNL     1       1.887   7.781  17.603  0.00  0.00    +0.000 F 
ATOM     23  F   UNL     1       2.736   7.369  19.561  0.00  0.00    +0.000 F 
ENDBRANCH   8  20
BRANCH   6  24
ATOM     24  C   UNL     1       2.723   2.336  19.159  0.00  0.00    +0.000 C 
BRANCH  24  25
ATOM     25  C   UNL     1       3.667   1.140  19.194  0.00  0.00    +0.000 C 
ATOM     26  F   UNL     1       4.762   1.441  19.945  0.00  0.00    +0.000 F 
ENDBRANCH  24  25
ENDBRANCH   6  24
TORSDOF 5
ENDMDL
MODEL 8
REMARK VINA RESULT:      -7.1      1.032      1.220
REMARK  Name = 
REMARK  6 active torsions:
REMARK  status: ('A' for Active; 'I' for Inactive)
REMARK    1  A    between atoms: C_1  and  C_2
REMARK    2  A    between atoms: C_2  and  C_4
REMARK    3  A    between atoms: C_8  and  N_9
REMARK    4  A    between atoms: C_14  and  C_15
REMARK    5  A    between atoms: C_15  and  C_16
REMARK    6  A    between atoms: C_19  and  C_20
REMARK                            x       y       z     vdW  Elec       q    Type
REMARK                         _______ _______ _______ _____ _____    ______ ____
ROOT
ATOM      1  N   UNL     1       2.962   4.134  19.035  0.00  0.00    +0.000 N 
ATOM      2  C   UNL     1       4.357   4.271  19.512  0.00  0.00    +0.000 C 
ATOM      3  C   UNL     1       5.134   4.187  18.235  0.00  0.00    +0.000 A 
ATOM      4  C   UNL     1       4.374   3.440  17.331  0.00  0.00    +0.000 A 
ATOM      5  C   UNL     1       4.734   3.258  16.007  0.00  0.00    +0.000 A 
ATOM      6  C   UNL     1       5.910   3.872  15.565  0.00  0.00    +0.000 A 
ATOM      7  C   UNL     1       6.664   4.662  16.467  0.00  0.00    +0.000 A 
ATOM      8  C   UNL     1       6.289   4.836  17.818  0.00  0.00    +0.000 A 
ATOM      9  C   UNL     1       3.018   3.281  17.906  0.00  0.00    +0.000 C 
ATOM     10  O   UNL     1       2.108   2.691  17.352  0.00  0.00    +0.000 OA
ENDROOT
BRANCH   1  15
ATOM     11  C   UNL     1       1.822   7.480  19.994  0.00  0.00    +0.000 A 
ATOM     12  C   UNL     1       2.493   8.224  19.014  0.00  0.00    +0.000 A 
ATOM     13  C   UNL     1       2.951   7.606  17.857  0.00  0.00    +0.000 A 
ATOM     14  C   UNL     1       2.841   6.225  17.719  0.00  0.00    +0.000 A 
ATOM     15  C   UNL     1       2.389   5.449  18.798  0.00  0.00    +0.000 A 
ATOM     16  C   UNL     1       1.740   6.090  19.863  0.00  0.00    +0.000 A 
BRANCH  11  18
ATOM     17  C   UNL     1       1.010   9.647  20.883  0.00  0.00    +0.000 C 
ATOM     18  C   UNL     1       1.219   8.172  21.190  0.00  0.00    +0.000 C 
ATOM     19  F   UNL     1       0.013   7.646  21.549  0.00  0.00    +0.000 F 
ENDBRANCH  11  18
ENDBRANCH   1  15
BRANCH   8  20
ATOM     20  C   UNL     1       7.078   5.784  18.685  0.00  0.00    +0.000 C 
ATOM     21  F   UNL     1       6.747   5.744  20.004  0.00  0.00    +0.000 F 
ATOM     22  F   UNL     1       8.415   5.536  18.636  0.00  0.00    +0.000 F 
ATOM     23  F   UNL     1       6.925   7.085  18.307  0.00  0.00    +0.000 F 
ENDBRANCH   8  20
BRANCH   6  24
ATOM     24  C   UNL     1       6.332   3.769  14.117  0.00  0.00    +0.000 C 
BRANCH  24  25
ATOM     25  C   UNL     1       6.751   5.104  13.514  0.00  0.00    +0.000 C 
ATOM     26  F   UNL     1       8.103   5.240  13.593  0.00  0.00    +0.000 F 
ENDBRANCH  24  25
ENDBRANCH   6  24
TORSDOF 5
ENDMDL
MODEL 9
REMARK VINA RESULT:      -7.1      1.642      2.359
REMARK  Name = 
REMARK  6 active torsions:
REMARK  status: ('A' for Active; 'I' for Inactive)
REMARK    1  A    between atoms: C_1  and  C_2
REMARK    2  A    between atoms: C_2  and  C_4
REMARK    3  A    between atoms: C_8  and  N_9
REMARK    4  A    between atoms: C_14  and  C_15
REMARK    5  A    between atoms: C_15  and  C_16
REMARK    6  A    between atoms: C_19  and  C_20
REMARK                            x       y       z     vdW  Elec       q    Type
REMARK                         _______ _______ _______ _____ _____    ______ ____
ROOT
ATOM      1  N   UNL     1       3.746   3.596  19.707  0.00  0.00    +0.000 N 
ATOM      2  C   UNL     1       5.224   3.605  19.785  0.00  0.00    +0.000 C 
ATOM      3  C   UNL     1       5.610   3.968  18.384  0.00  0.00    +0.000 A 
ATOM      4  C   UNL     1       4.579   3.541  17.543  0.00  0.00    +0.000 A 
ATOM      5  C   UNL     1       4.545   3.815  16.187  0.00  0.00    +0.000 A 
ATOM      6  C   UNL     1       5.593   4.572  15.652  0.00  0.00    +0.000 A 
ATOM      7  C   UNL     1       6.620   5.040  16.508  0.00  0.00    +0.000 A 
ATOM      8  C   UNL     1       6.647   4.749  17.890  0.00  0.00    +0.000 A 
ATOM      9  C   UNL     1       3.427   3.165  18.396  0.00  0.00    +0.000 C 
ATOM     10  O   UNL     1       2.361   2.766  17.964  0.00  0.00    +0.000 OA
ENDROOT
BRANCH   1  15
ATOM     11  C   UNL     1       2.533   6.993  19.071  0.00  0.00    +0.000 A 
ATOM     12  C   UNL     1       1.344   6.937  19.811  0.00  0.00    +0.000 A 
ATOM     13  C   UNL     1       1.176   5.973  20.796  0.00  0.00    +0.000 A 
ATOM     14  C   UNL     1       2.146   4.991  20.977  0.00  0.00    +0.000 A 
ATOM     15  C   UNL     1       3.223   4.900  20.081  0.00  0.00    +0.000 A 
ATOM     16  C   UNL     1       3.491   5.987  19.237  0.00  0.00    +0.000 A 
BRANCH  11  18
ATOM     17  C   UNL     1       3.819   7.701  17.074  0.00  0.00    +0.000 C 
ATOM     18  C   UNL     1       2.763   8.112  18.088  0.00  0.00    +0.000 C 
ATOM     19  F   UNL     1       1.633   8.449  17.401  0.00  0.00    +0.000 F 
ENDBRANCH  11  18
ENDBRANCH   1  15
BRANCH   8  20
ATOM     20  C   UNL     1       7.709   5.377  18.754  0.00  0.00    +0.000 C 
ATOM     21  F   UNL     1       7.314   5.634  20.031  0.00  0.00    +0.000 F 
ATOM     22  F   UNL     1       8.815   4.593  18.865  0.00  0.00    +0.000 F 
ATOM     23  F   UNL     1       8.145   6.570  18.258  0.00  0.00    +0.000 F 
ENDBRANCH   8  20
BRANCH   6  24
ATOM     24  C   UNL     1       5.589   4.964  14.192  0.00  0.00    +0.000 C 
BRANCH  24  25
ATOM     25  C   UNL     1       6.253   3.932  13.289  0.00  0.00    +0.000 C 
ATOM     26  F   UNL     1       5.317   3.351  12.490  0.00  0.00    +0.000 F 
ENDBRANCH  24  25
ENDBRANCH   6  24
TORSDOF 5
ENDMDL
