MODEL 1
REMARK VINA RESULT:      -8.6      0.000      0.000
REMARK  Name = 
REMARK  2 active torsions:
REMARK  status: ('A' for Active; 'I' for Inactive)
REMARK    1  A    between atoms: C_7  and  C_8
REMARK    2  A    between atoms: C_14  and  C_15
REMARK                            x       y       z     vdW  Elec       q    Type
REMARK                         _______ _______ _______ _____ _____    ______ ____
ROOT
ATOM      1  C   UNL     1       1.183   8.911  19.408  0.00  0.00    +0.000 C 
ATOM      2  O   UNL     1       0.400   8.645  20.319  0.00  0.00    +0.000 OA
ATOM      3  N   UNL     1       1.200  10.152  18.784  0.00  0.00    +0.000 N 
ATOM      4  C   UNL     1       2.218  10.704  17.905  0.00  0.00    +0.000 C 
ATOM      5  C   UNL     1       2.293  12.166  18.285  0.00  0.00    +0.000 C 
ATOM      6  C   UNL     1       0.858  12.512  18.651  0.00  0.00    +0.000 C 
ATOM      7  C   UNL     1       0.253  11.200  19.196  0.00  0.00    +0.000 C 
ENDROOT
BRANCH   1  14
ATOM      8  O   UNL     1       6.730   4.191  16.835  0.00  0.00    +0.000 OA
ATOM      9  C   UNL     1       5.823   4.991  17.048  0.00  0.00    +0.000 C 
ATOM     10  C   UNL     1       5.355   6.017  16.017  0.00  0.00    +0.000 C 
ATOM     11  O   UNL     1       4.606   7.145  16.438  0.00  0.00    +0.000 OA
ATOM     12  C   UNL     1       3.867   6.938  17.569  0.00  0.00    +0.000 A 
ATOM     13  C   UNL     1       2.883   7.890  17.832  0.00  0.00    +0.000 A 
ATOM     14  C   UNL     1       2.171   7.856  19.033  0.00  0.00    +0.000 A 
ATOM     15  C   UNL     1       2.376   6.779  19.913  0.00  0.00    +0.000 A 
ATOM     16  C   UNL     1       3.338   5.800  19.632  0.00  0.00    +0.000 A 
ATOM     17  C   UNL     1       4.096   5.896  18.468  0.00  0.00    +0.000 A 
ATOM     18  N   UNL     1       5.103   4.965  18.211  0.00  0.00    +0.000 N 
ATOM     19  H   UNL     1       5.342   4.247  18.884  0.00  0.00    +0.000 HD
ENDBRANCH   1  14
BRANCH   7  20
ATOM     20  C   UNL     1      -1.163  11.016  18.651  0.00  0.00    +0.000 A 
ATOM     21  C   UNL     1      -1.363  10.192  17.524  0.00  0.00    +0.000 A 
ATOM     22  C   UNL     1      -2.620  10.032  16.956  0.00  0.00    +0.000 A 
ATOM     23  C   UNL     1      -3.711  10.696  17.502  0.00  0.00    +0.000 A 
ATOM     24  C   UNL     1      -3.561  11.528  18.617  0.00  0.00    +0.000 A 
ATOM     25  C   UNL     1      -4.687  12.181  19.144  0.00  0.00    +0.000 A 
ATOM     26  C   UNL     1      -4.581  13.021  20.248  0.00  0.00    +0.000 A 
ATOM     27  C   UNL     1      -3.340  13.231  20.832  0.00  0.00    +0.000 A 
ATOM     28  C   UNL     1      -2.208  12.591  20.318  0.00  0.00    +0.000 A 
ATOM     29  C   UNL     1      -2.281  11.714  19.206  0.00  0.00    +0.000 A 
ENDBRANCH   7  20
TORSDOF 2
ENDMDL
MODEL 2
REMARK VINA RESULT:      -8.4      1.996      3.001
REMARK  Name = 
REMARK  2 active torsions:
REMARK  status: ('A' for Active; 'I' for Inactive)
REMARK    1  A    between atoms: C_7  and  C_8
REMARK    2  A    between atoms: C_14  and  C_15
REMARK                            x       y       z     vdW  Elec       q    Type
REMARK                         _______ _______ _______ _____ _____    ______ ____
ROOT
ATOM      1  C   UNL     1       0.241   9.923  20.829  0.00  0.00    +0.000 C 
ATOM      2  O   UNL     1      -0.500   9.368  21.638  0.00  0.00    +0.000 OA
ATOM      3  N   UNL     1       0.323  11.306  20.724  0.00  0.00    +0.000 N 
ATOM      4  C   UNL     1       1.324  12.099  20.030  0.00  0.00    +0.000 C 
ATOM      5  C   UNL     1       1.549  13.295  20.928  0.00  0.00    +0.000 C 
ATOM      6  C   UNL     1       0.175  13.549  21.531  0.00  0.00    +0.000 C 
ATOM      7  C   UNL     1      -0.502  12.163  21.591  0.00  0.00    +0.000 C 
ENDROOT
BRANCH   1  14
ATOM      8  O   UNL     1       4.485   4.603  17.173  0.00  0.00    +0.000 OA
ATOM      9  C   UNL     1       3.900   5.379  17.924  0.00  0.00    +0.000 C 
ATOM     10  C   UNL     1       3.844   5.192  19.440  0.00  0.00    +0.000 C 
ATOM     11  O   UNL     1       2.851   5.868  20.195  0.00  0.00    +0.000 OA
ATOM     12  C   UNL     1       2.430   7.045  19.643  0.00  0.00    +0.000 A 
ATOM     13  C   UNL     1       1.710   7.887  20.488  0.00  0.00    +0.000 A 
ATOM     14  C   UNL     1       1.109   9.044  19.989  0.00  0.00    +0.000 A 
ATOM     15  C   UNL     1       1.342   9.406  18.651  0.00  0.00    +0.000 A 
ATOM     16  C   UNL     1       2.098   8.580  17.808  0.00  0.00    +0.000 A 
ATOM     17  C   UNL     1       2.621   7.388  18.304  0.00  0.00    +0.000 A 
ATOM     18  N   UNL     1       3.317   6.525  17.457  0.00  0.00    +0.000 N 
ATOM     19  H   UNL     1       3.401   6.713  16.466  0.00  0.00    +0.000 HD
ENDBRANCH   1  14
BRANCH   7  20
ATOM     20  C   UNL     1      -1.962  12.279  21.153  0.00  0.00    +0.000 A 
ATOM     21  C   UNL     1      -2.272  12.219  19.778  0.00  0.00    +0.000 A 
ATOM     22  C   UNL     1      -3.574  12.373  19.320  0.00  0.00    +0.000 A 
ATOM     23  C   UNL     1      -4.601  12.592  20.230  0.00  0.00    +0.000 A 
ATOM     24  C   UNL     1      -4.341  12.664  21.604  0.00  0.00    +0.000 A 
ATOM     25  C   UNL     1      -5.404  12.884  22.493  0.00  0.00    +0.000 A 
ATOM     26  C   UNL     1      -5.189  12.968  23.865  0.00  0.00    +0.000 A 
ATOM     27  C   UNL     1      -3.900  12.847  24.365  0.00  0.00    +0.000 A 
ATOM     28  C   UNL     1      -2.829  12.630  23.492  0.00  0.00    +0.000 A 
ATOM     29  C   UNL     1      -3.013  12.521  22.090  0.00  0.00    +0.000 A 
ENDBRANCH   7  20
TORSDOF 2
ENDMDL
MODEL 3
REMARK VINA RESULT:      -8.4      2.048      3.531
REMARK  Name = 
REMARK  2 active torsions:
REMARK  status: ('A' for Active; 'I' for Inactive)
REMARK    1  A    between atoms: C_7  and  C_8
REMARK    2  A    between atoms: C_14  and  C_15
REMARK                            x       y       z     vdW  Elec       q    Type
REMARK                         _______ _______ _______ _____ _____    ______ ____
ROOT
ATOM      1  C   UNL     1       0.785  10.577  18.828  0.00  0.00    +0.000 C 
ATOM      2  O   UNL     1       1.532  11.550  18.914  0.00  0.00    +0.000 OA
ATOM      3  N   UNL     1      -0.549  10.697  18.460  0.00  0.00    +0.000 N 
ATOM      4  C   UNL     1      -1.470   9.646  18.054  0.00  0.00    +0.000 C 
ATOM      5  C   UNL     1      -2.292  10.271  16.950  0.00  0.00    +0.000 C 
ATOM      6  C   UNL     1      -2.411  11.727  17.375  0.00  0.00    +0.000 C 
ATOM      7  C   UNL     1      -1.121  12.021  18.170  0.00  0.00    +0.000 C 
ENDROOT
BRANCH   1  14
ATOM      8  O   UNL     1       4.604   3.883  19.358  0.00  0.00    +0.000 OA
ATOM      9  C   UNL     1       4.002   4.915  19.072  0.00  0.00    +0.000 C 
ATOM     10  C   UNL     1       3.973   5.501  17.661  0.00  0.00    +0.000 C 
ATOM     11  O   UNL     1       3.615   6.860  17.472  0.00  0.00    +0.000 OA
ATOM     12  C   UNL     1       2.776   7.358  18.429  0.00  0.00    +0.000 A 
ATOM     13  C   UNL     1       2.150   8.564  18.117  0.00  0.00    +0.000 A 
ATOM     14  C   UNL     1       1.388   9.234  19.077  0.00  0.00    +0.000 A 
ATOM     15  C   UNL     1       1.165   8.613  20.319  0.00  0.00    +0.000 A 
ATOM     16  C   UNL     1       1.761   7.382  20.621  0.00  0.00    +0.000 A 
ATOM     17  C   UNL     1       2.584   6.769  19.680  0.00  0.00    +0.000 A 
ATOM     18  N   UNL     1       3.239   5.578  19.994  0.00  0.00    +0.000 N 
ATOM     19  H   UNL     1       3.180   5.172  20.919  0.00  0.00    +0.000 HD
ENDBRANCH   1  14
BRANCH   7  20
ATOM     20  C   UNL     1      -1.454  12.847  19.412  0.00  0.00    +0.000 A 
ATOM     21  C   UNL     1      -2.408  12.355  20.328  0.00  0.00    +0.000 A 
ATOM     22  C   UNL     1      -2.787  13.088  21.445  0.00  0.00    +0.000 A 
ATOM     23  C   UNL     1      -2.222  14.336  21.672  0.00  0.00    +0.000 A 
ATOM     24  C   UNL     1      -1.275  14.868  20.790  0.00  0.00    +0.000 A 
ATOM     25  C   UNL     1      -0.722  16.131  21.054  0.00  0.00    +0.000 A 
ATOM     26  C   UNL     1       0.218  16.699  20.200  0.00  0.00    +0.000 A 
ATOM     27  C   UNL     1       0.607  16.014  19.058  0.00  0.00    +0.000 A 
ATOM     28  C   UNL     1       0.065  14.755  18.778  0.00  0.00    +0.000 A 
ATOM     29  C   UNL     1      -0.882  14.138  19.635  0.00  0.00    +0.000 A 
ENDBRANCH   7  20
TORSDOF 2
ENDMDL
MODEL 4
REMARK VINA RESULT:      -8.3      2.804      8.515
REMARK  Name = 
REMARK  2 active torsions:
REMARK  status: ('A' for Active; 'I' for Inactive)
REMARK    1  A    between atoms: C_7  and  C_8
REMARK    2  A    between atoms: C_14  and  C_15
REMARK                            x       y       z     vdW  Elec       q    Type
REMARK                         _______ _______ _______ _____ _____    ______ ____
ROOT
ATOM      1  C   UNL     1      -0.044   9.568  18.519  0.00  0.00    +0.000 C 
ATOM      2  O   UNL     1       0.827   9.456  17.659  0.00  0.00    +0.000 OA
ATOM      3  N   UNL     1       0.197   9.291  19.859  0.00  0.00    +0.000 N 
ATOM      4  C   UNL     1      -0.624   9.629  21.011  0.00  0.00    +0.000 C 
ATOM      5  C   UNL     1       0.370  10.002  22.087  0.00  0.00    +0.000 C 
ATOM      6  C   UNL     1       1.550   9.082  21.816  0.00  0.00    +0.000 C 
ATOM      7  C   UNL     1       1.527   8.834  20.292  0.00  0.00    +0.000 C 
ENDROOT
BRANCH   1  14
ATOM      8  O   UNL     1      -6.794  12.978  16.944  0.00  0.00    +0.000 OA
ATOM      9  C   UNL     1      -5.776  12.455  17.390  0.00  0.00    +0.000 C 
ATOM     10  C   UNL     1      -5.352  12.568  18.854  0.00  0.00    +0.000 C 
ATOM     11  O   UNL     1      -4.009  12.297  19.220  0.00  0.00    +0.000 OA
ATOM     12  C   UNL     1      -3.370  11.413  18.396  0.00  0.00    +0.000 A 
ATOM     13  C   UNL     1      -2.182  10.877  18.889  0.00  0.00    +0.000 A 
ATOM     14  C   UNL     1      -1.375  10.079  18.075  0.00  0.00    +0.000 A 
ATOM     15  C   UNL     1      -1.841   9.727  16.796  0.00  0.00    +0.000 A 
ATOM     16  C   UNL     1      -3.054  10.233  16.312  0.00  0.00    +0.000 A 
ATOM     17  C   UNL     1      -3.805  11.094  17.109  0.00  0.00    +0.000 A 
ATOM     18  N   UNL     1      -4.981  11.658  16.613  0.00  0.00    +0.000 N 
ATOM     19  H   UNL     1      -5.276  11.506  15.657  0.00  0.00    +0.000 HD
ENDBRANCH   1  14
BRANCH   7  20
ATOM     20  C   UNL     1       1.810   7.360  20.002  0.00  0.00    +0.000 A 
ATOM     21  C   UNL     1       1.234   6.374  20.831  0.00  0.00    +0.000 A 
ATOM     22  C   UNL     1       1.501   5.024  20.645  0.00  0.00    +0.000 A 
ATOM     23  C   UNL     1       2.353   4.626  19.623  0.00  0.00    +0.000 A 
ATOM     24  C   UNL     1       2.951   5.568  18.778  0.00  0.00    +0.000 A 
ATOM     25  C   UNL     1       3.804   5.128  17.754  0.00  0.00    +0.000 A 
ATOM     26  C   UNL     1       4.423   6.031  16.895  0.00  0.00    +0.000 A 
ATOM     27  C   UNL     1       4.207   7.391  17.060  0.00  0.00    +0.000 A 
ATOM     28  C   UNL     1       3.361   7.847  18.077  0.00  0.00    +0.000 A 
ATOM     29  C   UNL     1       2.700   6.955  18.959  0.00  0.00    +0.000 A 
ENDBRANCH   7  20
TORSDOF 2
ENDMDL
MODEL 5
REMARK VINA RESULT:      -8.1      2.755      8.357
REMARK  Name = 
REMARK  2 active torsions:
REMARK  status: ('A' for Active; 'I' for Inactive)
REMARK    1  A    between atoms: C_7  and  C_8
REMARK    2  A    between atoms: C_14  and  C_15
REMARK                            x       y       z     vdW  Elec       q    Type
REMARK                         _______ _______ _______ _____ _____    ______ ____
ROOT
ATOM      1  C   UNL     1       0.446   9.488  18.899  0.00  0.00    +0.000 C 
ATOM      2  O   UNL     1       1.255   9.391  17.978  0.00  0.00    +0.000 OA
ATOM      3  N   UNL     1       0.690   8.958  20.160  0.00  0.00    +0.000 N 
ATOM      4  C   UNL     1      -0.023   9.220  21.400  0.00  0.00    +0.000 C 
ATOM      5  C   UNL     1       1.058   9.254  22.457  0.00  0.00    +0.000 C 
ATOM      6  C   UNL     1       2.065   8.224  21.969  0.00  0.00    +0.000 C 
ATOM      7  C   UNL     1       1.945   8.240  20.430  0.00  0.00    +0.000 C 
ENDROOT
BRANCH   1  14
ATOM      8  O   UNL     1      -6.330  12.638  16.936  0.00  0.00    +0.000 OA
ATOM      9  C   UNL     1      -5.238  12.086  17.051  0.00  0.00    +0.000 C 
ATOM     10  C   UNL     1      -4.661  11.149  15.991  0.00  0.00    +0.000 C 
ATOM     11  O   UNL     1      -3.620  10.251  16.339  0.00  0.00    +0.000 OA
ATOM     12  C   UNL     1      -2.827  10.681  17.366  0.00  0.00    +0.000 A 
ATOM     13  C   UNL     1      -1.620  10.002  17.525  0.00  0.00    +0.000 A 
ATOM     14  C   UNL     1      -0.803  10.261  18.627  0.00  0.00    +0.000 A 
ATOM     15  C   UNL     1      -1.158  11.301  19.504  0.00  0.00    +0.000 A 
ATOM     16  C   UNL     1      -2.351  12.012  19.325  0.00  0.00    +0.000 A 
ATOM     17  C   UNL     1      -3.194  11.683  18.265  0.00  0.00    +0.000 A 
ATOM     18  N   UNL     1      -4.417  12.337  18.116  0.00  0.00    +0.000 N 
ATOM     19  H   UNL     1      -4.741  13.011  18.798  0.00  0.00    +0.000 HD
ENDBRANCH   1  14
BRANCH   7  20
ATOM     20  C   UNL     1       1.978   6.810  19.892  0.00  0.00    +0.000 A 
ATOM     21  C   UNL     1       1.178   5.825  20.509  0.00  0.00    +0.000 A 
ATOM     22  C   UNL     1       1.209   4.500  20.096  0.00  0.00    +0.000 A 
ATOM     23  C   UNL     1       2.046   4.125  19.052  0.00  0.00    +0.000 A 
ATOM     24  C   UNL     1       2.862   5.066  18.412  0.00  0.00    +0.000 A 
ATOM     25  C   UNL     1       3.692   4.651  17.359  0.00  0.00    +0.000 A 
ATOM     26  C   UNL     1       4.522   5.552  16.699  0.00  0.00    +0.000 A 
ATOM     27  C   UNL     1       4.543   6.881  17.096  0.00  0.00    +0.000 A 
ATOM     28  C   UNL     1       3.724   7.310  18.145  0.00  0.00    +0.000 A 
ATOM     29  C   UNL     1       2.852   6.424  18.828  0.00  0.00    +0.000 A 
ENDBRANCH   7  20
TORSDOF 2
ENDMDL
MODEL 6
REMARK VINA RESULT:      -8.1      1.417      2.072
REMARK  Name = 
REMARK  2 active torsions:
REMARK  status: ('A' for Active; 'I' for Inactive)
REMARK    1  A    between atoms: C_7  and  C_8
REMARK    2  A    between atoms: C_14  and  C_15
REMARK                            x       y       z     vdW  Elec       q    Type
REMARK                         _______ _______ _______ _____ _____    ______ ____
ROOT
ATOM      1  C   UNL     1       0.591   9.758  19.923  0.00  0.00    +0.000 C 
ATOM      2  O   UNL     1      -0.146   9.375  20.830  0.00  0.00    +0.000 OA
ATOM      3  N   UNL     1       0.614  11.078  19.493  0.00  0.00    +0.000 N 
ATOM      4  C   UNL     1       1.598  11.733  18.645  0.00  0.00    +0.000 C 
ATOM      5  C   UNL     1       1.743  13.118  19.235  0.00  0.00    +0.000 C 
ATOM      6  C   UNL     1       0.344  13.439  19.738  0.00  0.00    +0.000 C 
ATOM      7  C   UNL     1      -0.272  12.075  20.116  0.00  0.00    +0.000 C 
ENDROOT
BRANCH   1  14
ATOM      8  O   UNL     1       4.980   3.854  17.566  0.00  0.00    +0.000 OA
ATOM      9  C   UNL     1       4.336   4.735  18.129  0.00  0.00    +0.000 C 
ATOM     10  C   UNL     1       4.008   4.706  19.622  0.00  0.00    +0.000 C 
ATOM     11  O   UNL     1       2.956   5.512  20.126  0.00  0.00    +0.000 OA
ATOM     12  C   UNL     1       2.725   6.650  19.405  0.00  0.00    +0.000 A 
ATOM     13  C   UNL     1       1.938   7.615  20.031  0.00  0.00    +0.000 A 
ATOM     14  C   UNL     1       1.520   8.748  19.332  0.00  0.00    +0.000 A 
ATOM     15  C   UNL     1       2.005   8.959  18.029  0.00  0.00    +0.000 A 
ATOM     16  C   UNL     1       2.828   8.009  17.410  0.00  0.00    +0.000 A 
ATOM     17  C   UNL     1       3.168   6.845  18.096  0.00  0.00    +0.000 A 
ATOM     18  N   UNL     1       3.929   5.860  17.466  0.00  0.00    +0.000 N 
ATOM     19  H   UNL     1       4.196   5.942  16.493  0.00  0.00    +0.000 HD
ENDBRANCH   1  14
BRANCH   7  20
ATOM     20  C   UNL     1      -1.723  12.010  19.639  0.00  0.00    +0.000 A 
ATOM     21  C   UNL     1      -1.991  11.630  18.307  0.00  0.00    +0.000 A 
ATOM     22  C   UNL     1      -3.286  11.606  17.806  0.00  0.00    +0.000 A 
ATOM     23  C   UNL     1      -4.348  11.966  18.627  0.00  0.00    +0.000 A 
ATOM     24  C   UNL     1      -4.130  12.354  19.954  0.00  0.00    +0.000 A 
ATOM     25  C   UNL     1      -5.227  12.707  20.755  0.00  0.00    +0.000 A 
ATOM     26  C   UNL     1      -5.055  13.104  22.077  0.00  0.00    +0.000 A 
ATOM     27  C   UNL     1      -3.777  13.168  22.612  0.00  0.00    +0.000 A 
ATOM     28  C   UNL     1      -2.672  12.822  21.827  0.00  0.00    +0.000 A 
ATOM     29  C   UNL     1      -2.811  12.395  20.482  0.00  0.00    +0.000 A 
ENDBRANCH   7  20
TORSDOF 2
ENDMDL
MODEL 7
REMARK VINA RESULT:      -8.1      1.800      2.336
REMARK  Name = 
REMARK  2 active torsions:
REMARK  status: ('A' for Active; 'I' for Inactive)
REMARK    1  A    between atoms: C_7  and  C_8
REMARK    2  A    between atoms: C_14  and  C_15
REMARK                            x       y       z     vdW  Elec       q    Type
REMARK                         _______ _______ _______ _____ _____    ______ ____
ROOT
ATOM      1  C   UNL     1       0.916   8.944  19.995  0.00  0.00    +0.000 C 
ATOM      2  O   UNL     1       0.206   9.002  20.997  0.00  0.00    +0.000 OA
ATOM      3  N   UNL     1       1.058  10.016  19.123  0.00  0.00    +0.000 N 
ATOM      4  C   UNL     1       2.047  10.199  18.073  0.00  0.00    +0.000 C 
ATOM      5  C   UNL     1       2.389  11.671  18.128  0.00  0.00    +0.000 C 
ATOM      6  C   UNL     1       1.074  12.327  18.520  0.00  0.00    +0.000 C 
ATOM      7  C   UNL     1       0.336  11.274  19.374  0.00  0.00    +0.000 C 
ENDROOT
BRANCH   1  14
ATOM      8  O   UNL     1       4.099   1.929  19.419  0.00  0.00    +0.000 OA
ATOM      9  C   UNL     1       3.570   2.999  19.708  0.00  0.00    +0.000 C 
ATOM     10  C   UNL     1       2.805   3.227  21.011  0.00  0.00    +0.000 C 
ATOM     11  O   UNL     1       1.900   4.314  21.114  0.00  0.00    +0.000 OA
ATOM     12  C   UNL     1       2.209   5.379  20.316  0.00  0.00    +0.000 A 
ATOM     13  C   UNL     1       1.552   6.571  20.615  0.00  0.00    +0.000 A 
ATOM     14  C   UNL     1       1.681   7.680  19.777  0.00  0.00    +0.000 A 
ATOM     15  C   UNL     1       2.580   7.612  18.698  0.00  0.00    +0.000 A 
ATOM     16  C   UNL     1       3.273   6.427  18.417  0.00  0.00    +0.000 A 
ATOM     17  C   UNL     1       3.067   5.306  19.218  0.00  0.00    +0.000 A 
ATOM     18  N   UNL     1       3.697   4.101  18.908  0.00  0.00    +0.000 N 
ATOM     19  H   UNL     1       4.261   4.000  18.073  0.00  0.00    +0.000 HD
ENDBRANCH   1  14
BRANCH   7  20
ATOM     20  C   UNL     1      -1.142  11.237  18.989  0.00  0.00    +0.000 A 
ATOM     21  C   UNL     1      -1.542  10.474  17.871  0.00  0.00    +0.000 A 
ATOM     22  C   UNL     1      -2.863  10.447  17.445  0.00  0.00    +0.000 A 
ATOM     23  C   UNL     1      -3.820  11.188  18.127  0.00  0.00    +0.000 A 
ATOM     24  C   UNL     1      -3.471  11.963  19.239  0.00  0.00    +0.000 A 
ATOM     25  C   UNL     1      -4.466  12.695  19.905  0.00  0.00    +0.000 A 
ATOM     26  C   UNL     1      -4.161  13.483  21.011  0.00  0.00    +0.000 A 
ATOM     27  C   UNL     1      -2.849  13.560  21.456  0.00  0.00    +0.000 A 
ATOM     28  C   UNL     1      -1.846  12.839  20.802  0.00  0.00    +0.000 A 
ATOM     29  C   UNL     1      -2.122  12.012  19.684  0.00  0.00    +0.000 A 
ENDBRANCH   7  20
TORSDOF 2
ENDMDL
MODEL 8
REMARK VINA RESULT:      -8.0      6.969     11.293
REMARK  Name = 
REMARK  2 active torsions:
REMARK  status: ('A' for Active; 'I' for Inactive)
REMARK    1  A    between atoms: C_7  and  C_8
REMARK    2  A    between atoms: C_14  and  C_15
REMARK                            x       y       z     vdW  Elec       q    Type
REMARK                         _______ _______ _______ _____ _____    ______ ____
ROOT
ATOM      1  C   UNL     1       5.875  15.054  18.306  0.00  0.00    +0.000 C 
ATOM      2  O   UNL     1       6.011  13.921  17.850  0.00  0.00    +0.000 OA
ATOM      3  N   UNL     1       6.959  15.834  18.690  0.00  0.00    +0.000 N 
ATOM      4  C   UNL     1       6.985  17.259  18.982  0.00  0.00    +0.000 C 
ATOM      5  C   UNL     1       8.300  17.738  18.409  0.00  0.00    +0.000 C 
ATOM      6  C   UNL     1       9.234  16.557  18.629  0.00  0.00    +0.000 C 
ATOM      7  C   UNL     1       8.328  15.309  18.570  0.00  0.00    +0.000 C 
ENDROOT
BRANCH   1  14
ATOM      8  O   UNL     1      -1.201  18.083  17.648  0.00  0.00    +0.000 OA
ATOM      9  C   UNL     1      -0.013  17.769  17.653  0.00  0.00    +0.000 C 
ATOM     10  C   UNL     1       1.030  18.432  16.754  0.00  0.00    +0.000 C 
ATOM     11  O   UNL     1       2.266  17.780  16.514  0.00  0.00    +0.000 OA
ATOM     12  C   UNL     1       2.671  16.953  17.525  0.00  0.00    +0.000 A 
ATOM     13  C   UNL     1       4.005  16.552  17.482  0.00  0.00    +0.000 A 
ATOM     14  C   UNL     1       4.485  15.595  18.378  0.00  0.00    +0.000 A 
ATOM     15  C   UNL     1       3.634  15.136  19.399  0.00  0.00    +0.000 A 
ATOM     16  C   UNL     1       2.303  15.568  19.469  0.00  0.00    +0.000 A 
ATOM     17  C   UNL     1       1.820  16.461  18.515  0.00  0.00    +0.000 A 
ATOM     18  N   UNL     1       0.479  16.845  18.533  0.00  0.00    +0.000 N 
ATOM     19  H   UNL     1      -0.176  16.442  19.191  0.00  0.00    +0.000 HD
ENDBRANCH   1  14
BRANCH   7  20
ATOM     20  C   UNL     1       8.723  14.328  19.673  0.00  0.00    +0.000 A 
ATOM     21  C   UNL     1       8.923  14.812  20.984  0.00  0.00    +0.000 A 
ATOM     22  C   UNL     1       9.334  13.975  22.012  0.00  0.00    +0.000 A 
ATOM     23  C   UNL     1       9.559  12.629  21.754  0.00  0.00    +0.000 A 
ATOM     24  C   UNL     1       9.378  12.103  20.470  0.00  0.00    +0.000 A 
ATOM     25  C   UNL     1       9.610  10.737  20.248  0.00  0.00    +0.000 A 
ATOM     26  C   UNL     1       9.448  10.174  18.986  0.00  0.00    +0.000 A 
ATOM     27  C   UNL     1       9.064  10.979  17.922  0.00  0.00    +0.000 A 
ATOM     28  C   UNL     1       8.830  12.342  18.126  0.00  0.00    +0.000 A 
ATOM     29  C   UNL     1       8.968  12.946  19.402  0.00  0.00    +0.000 A 
ENDBRANCH   7  20
TORSDOF 2
ENDMDL
MODEL 9
REMARK VINA RESULT:      -8.0      3.068      8.946
REMARK  Name = 
REMARK  2 active torsions:
REMARK  status: ('A' for Active; 'I' for Inactive)
REMARK    1  A    between atoms: C_7  and  C_8
REMARK    2  A    between atoms: C_14  and  C_15
REMARK                            x       y       z     vdW  Elec       q    Type
REMARK                         _______ _______ _______ _____ _____    ______ ____
ROOT
ATOM      1  C   UNL     1      -1.478  10.494  17.930  0.00  0.00    +0.000 C 
ATOM      2  O   UNL     1      -1.439   9.456  17.273  0.00  0.00    +0.000 OA
ATOM      3  N   UNL     1      -0.338  11.067  18.480  0.00  0.00    +0.000 N 
ATOM      4  C   UNL     1      -0.178  12.403  19.033  0.00  0.00    +0.000 C 
ATOM      5  C   UNL     1       1.204  12.831  18.593  0.00  0.00    +0.000 C 
ATOM      6  C   UNL     1       2.001  11.535  18.611  0.00  0.00    +0.000 C 
ATOM      7  C   UNL     1       0.974  10.426  18.298  0.00  0.00    +0.000 C 
ENDROOT
BRANCH   1  14
ATOM      8  O   UNL     1      -7.915  14.490  19.440  0.00  0.00    +0.000 OA
ATOM      9  C   UNL     1      -6.883  13.824  19.401  0.00  0.00    +0.000 C 
ATOM     10  C   UNL     1      -6.035  13.527  20.637  0.00  0.00    +0.000 C 
ATOM     11  O   UNL     1      -4.687  13.112  20.481  0.00  0.00    +0.000 OA
ATOM     12  C   UNL     1      -4.436  12.449  19.313  0.00  0.00    +0.000 A 
ATOM     13  C   UNL     1      -3.231  11.751  19.260  0.00  0.00    +0.000 A 
ATOM     14  C   UNL     1      -2.807  11.162  18.067  0.00  0.00    +0.000 A 
ATOM     15  C   UNL     1      -3.671  11.181  16.958  0.00  0.00    +0.000 A 
ATOM     16  C   UNL     1      -4.900  11.849  17.019  0.00  0.00    +0.000 A 
ATOM     17  C   UNL     1      -5.269  12.500  18.194  0.00  0.00    +0.000 A 
ATOM     18  N   UNL     1      -6.459  13.227  18.247  0.00  0.00    +0.000 N 
ATOM     19  H   UNL     1      -7.041  13.345  17.427  0.00  0.00    +0.000 HD
ENDBRANCH   1  14
BRANCH   7  20
ATOM     20  C   UNL     1       1.216   9.222  19.208  0.00  0.00    +0.000 A 
ATOM     21  C   UNL     1       0.585   9.177  20.469  0.00  0.00    +0.000 A 
ATOM     22  C   UNL     1       0.811   8.135  21.358  0.00  0.00    +0.000 A 
ATOM     23  C   UNL     1       1.679   7.108  21.006  0.00  0.00    +0.000 A 
ATOM     24  C   UNL     1       2.331   7.111  19.767  0.00  0.00    +0.000 A 
ATOM     25  C   UNL     1       3.197   6.055  19.445  0.00  0.00    +0.000 A 
ATOM     26  C   UNL     1       3.870   6.022  18.228  0.00  0.00    +0.000 A 
ATOM     27  C   UNL     1       3.695   7.056  17.320  0.00  0.00    +0.000 A 
ATOM     28  C   UNL     1       2.836   8.117  17.626  0.00  0.00    +0.000 A 
ATOM     29  C   UNL     1       2.121   8.175  18.849  0.00  0.00    +0.000 A 
ENDBRANCH   7  20
TORSDOF 2
ENDMDL
