MODEL 1
REMARK VINA RESULT:      -8.8      0.000      0.000
REMARK  Name = 
REMARK  6 active torsions:
REMARK  status: ('A' for Active; 'I' for Inactive)
REMARK    1  A    between atoms: C_2  and  C_3
REMARK    2  A    between atoms: C_3  and  N_4
REMARK    3  A    between atoms: C_5  and  C_6
REMARK    4  A    between atoms: N_16  and  C_17
REMARK    5  A    between atoms: C_22  and  C_23
REMARK    6  A    between atoms: C_23  and  C_24
REMARK                            x       y       z     vdW  Elec       q    Type
REMARK                         _______ _______ _______ _____ _____    ______ ____
ROOT
ATOM      1  O   UNL     1       4.355   6.902  16.430  0.00  0.00    +0.000 OA
ATOM      2  C   UNL     1       3.893   5.952  17.069  0.00  0.00    +0.000 C 
ATOM      3  N   UNL     1       2.674   6.084  17.688  0.00  0.00    +0.000 N 
ATOM      4  H   UNL     1       2.179   6.921  17.406  0.00  0.00    +0.000 HD
ENDROOT
BRANCH   3   5
ATOM      5  C   UNL     1       2.001   5.165  18.513  0.00  0.00    +0.000 A 
ATOM      6  C   UNL     1       1.397   4.032  17.952  0.00  0.00    +0.000 A 
ATOM      7  C   UNL     1       0.756   3.085  18.749  0.00  0.00    +0.000 A 
ATOM      8  C   UNL     1       0.735   3.246  20.126  0.00  0.00    +0.000 A 
ATOM      9  C   UNL     1       1.355   4.354  20.703  0.00  0.00    +0.000 A 
ATOM     10  C   UNL     1       1.998   5.328  19.910  0.00  0.00    +0.000 A 
BRANCH  10  11
ATOM     11  C   UNL     1       2.535   6.568  20.601  0.00  0.00    +0.000 C 
BRANCH  11  12
ATOM     12  C   UNL     1       1.580   7.743  20.527  0.00  0.00    +0.000 A 
ATOM     13  C   UNL     1       0.591   7.918  21.507  0.00  0.00    +0.000 A 
ATOM     14  C   UNL     1      -0.322   8.972  21.417  0.00  0.00    +0.000 A 
ATOM     15  C   UNL     1      -0.257   9.862  20.348  0.00  0.00    +0.000 A 
ATOM     16  C   UNL     1       0.728   9.706  19.373  0.00  0.00    +0.000 A 
ATOM     17  C   UNL     1       1.642   8.654  19.463  0.00  0.00    +0.000 A 
ENDBRANCH  11  12
ENDBRANCH  10  11
ENDBRANCH   3   5
BRANCH   2  18
ATOM     18  C   UNL     1       4.579   4.585  17.049  0.00  0.00    +0.000 C 
BRANCH  18  19
ATOM     19  N   UNL     1       6.003   4.475  17.309  0.00  0.00    +0.000 N 
ATOM     20  C   UNL     1       7.035   4.370  16.444  0.00  0.00    +0.000 A 
ATOM     21  N   UNL     1       8.190   4.355  17.027  0.00  0.00    +0.000 NA
ATOM     22  O   UNL     1       7.923   4.479  18.415  0.00  0.00    +0.000 OA
ATOM     23  C   UNL     1       6.562   4.588  18.537  0.00  0.00    +0.000 A 
ATOM     24  O   UNL     1       5.995   4.712  19.610  0.00  0.00    +0.000 OA
BRANCH  20  25
ATOM     25  C   UNL     1       6.923   4.333  14.961  0.00  0.00    +0.000 A 
ATOM     26  C   UNL     1       7.754   5.203  14.236  0.00  0.00    +0.000 A 
ATOM     27  C   UNL     1       7.706   5.241  12.840  0.00  0.00    +0.000 A 
ATOM     28  C   UNL     1       6.823   4.416  12.151  0.00  0.00    +0.000 A 
ATOM     29  C   UNL     1       6.013   3.530  12.856  0.00  0.00    +0.000 A 
ATOM     30  C   UNL     1       6.081   3.472  14.251  0.00  0.00    +0.000 A 
ENDBRANCH  20  25
ENDBRANCH  18  19
ENDBRANCH   2  18
TORSDOF 6
ENDMDL
MODEL 2
REMARK VINA RESULT:      -8.6      0.381      1.320
REMARK  Name = 
REMARK  6 active torsions:
REMARK  status: ('A' for Active; 'I' for Inactive)
REMARK    1  A    between atoms: C_2  and  C_3
REMARK    2  A    between atoms: C_3  and  N_4
REMARK    3  A    between atoms: C_5  and  C_6
REMARK    4  A    between atoms: N_16  and  C_17
REMARK    5  A    between atoms: C_22  and  C_23
REMARK    6  A    between atoms: C_23  and  C_24
REMARK                            x       y       z     vdW  Elec       q    Type
REMARK                         _______ _______ _______ _____ _____    ______ ____
ROOT
ATOM      1  O   UNL     1       4.662   7.458  16.692  0.00  0.00    +0.000 OA
ATOM      2  C   UNL     1       4.125   6.451  17.163  0.00  0.00    +0.000 C 
ATOM      3  N   UNL     1       2.940   6.575  17.847  0.00  0.00    +0.000 N 
ATOM      4  H   UNL     1       2.523   7.491  17.745  0.00  0.00    +0.000 HD
ENDROOT
BRANCH   3   5
ATOM      5  C   UNL     1       2.201   5.583  18.517  0.00  0.00    +0.000 A 
ATOM      6  C   UNL     1       1.714   4.476  17.810  0.00  0.00    +0.000 A 
ATOM      7  C   UNL     1       1.011   3.459  18.454  0.00  0.00    +0.000 A 
ATOM      8  C   UNL     1       0.811   3.523  19.825  0.00  0.00    +0.000 A 
ATOM      9  C   UNL     1       1.313   4.605  20.547  0.00  0.00    +0.000 A 
ATOM     10  C   UNL     1       2.016   5.648  19.909  0.00  0.00    +0.000 A 
BRANCH  10  11
ATOM     11  C   UNL     1       2.417   6.852  20.744  0.00  0.00    +0.000 C 
BRANCH  11  12
ATOM     12  C   UNL     1       1.374   7.951  20.729  0.00  0.00    +0.000 A 
ATOM     13  C   UNL     1       1.370   8.914  19.708  0.00  0.00    +0.000 A 
ATOM     14  C   UNL     1       0.441   9.957  19.716  0.00  0.00    +0.000 A 
ATOM     15  C   UNL     1      -0.494  10.050  20.743  0.00  0.00    +0.000 A 
ATOM     16  C   UNL     1      -0.508   9.095  21.758  0.00  0.00    +0.000 A 
ATOM     17  C   UNL     1       0.419   8.050  21.751  0.00  0.00    +0.000 A 
ENDBRANCH  11  12
ENDBRANCH  10  11
ENDBRANCH   3   5
BRANCH   2  18
ATOM     18  C   UNL     1       4.674   5.055  16.863  0.00  0.00    +0.000 C 
BRANCH  18  19
ATOM     19  N   UNL     1       6.054   4.728  17.172  0.00  0.00    +0.000 N 
ATOM     20  C   UNL     1       7.090   4.477  16.341  0.00  0.00    +0.000 A 
ATOM     21  N   UNL     1       8.208   4.280  16.964  0.00  0.00    +0.000 NA
ATOM     22  O   UNL     1       7.911   4.430  18.343  0.00  0.00    +0.000 OA
ATOM     23  C   UNL     1       6.579   4.743  18.420  0.00  0.00    +0.000 A 
ATOM     24  O   UNL     1       5.998   4.940  19.474  0.00  0.00    +0.000 OA
BRANCH  20  25
ATOM     25  C   UNL     1       7.028   4.472  14.855  0.00  0.00    +0.000 A 
ATOM     26  C   UNL     1       6.131   3.573  14.256  0.00  0.00    +0.000 A 
ATOM     27  C   UNL     1       6.015   3.494  12.866  0.00  0.00    +0.000 A 
ATOM     28  C   UNL     1       6.800   4.309  12.056  0.00  0.00    +0.000 A 
ATOM     29  C   UNL     1       7.674   5.224  12.636  0.00  0.00    +0.000 A 
ATOM     30  C   UNL     1       7.768   5.321  14.028  0.00  0.00    +0.000 A 
ENDBRANCH  20  25
ENDBRANCH  18  19
ENDBRANCH   2  18
TORSDOF 6
ENDMDL
MODEL 3
REMARK VINA RESULT:      -8.6      2.250      7.483
REMARK  Name = 
REMARK  6 active torsions:
REMARK  status: ('A' for Active; 'I' for Inactive)
REMARK    1  A    between atoms: C_2  and  C_3
REMARK    2  A    between atoms: C_3  and  N_4
REMARK    3  A    between atoms: C_5  and  C_6
REMARK    4  A    between atoms: N_16  and  C_17
REMARK    5  A    between atoms: C_22  and  C_23
REMARK    6  A    between atoms: C_23  and  C_24
REMARK                            x       y       z     vdW  Elec       q    Type
REMARK                         _______ _______ _______ _____ _____    ______ ____
ROOT
ATOM      1  O   UNL     1       4.143   2.093  18.383  0.00  0.00    +0.000 OA
ATOM      2  C   UNL     1       4.690   3.170  18.635  0.00  0.00    +0.000 C 
ATOM      3  N   UNL     1       5.511   3.746  17.696  0.00  0.00    +0.000 N 
ATOM      4  H   UNL     1       5.448   3.296  16.791  0.00  0.00    +0.000 HD
ENDROOT
BRANCH   3   5
ATOM      5  C   UNL     1       6.279   4.920  17.797  0.00  0.00    +0.000 A 
ATOM      6  C   UNL     1       7.102   5.124  18.912  0.00  0.00    +0.000 A 
ATOM      7  C   UNL     1       7.903   6.260  19.022  0.00  0.00    +0.000 A 
ATOM      8  C   UNL     1       7.913   7.195  17.999  0.00  0.00    +0.000 A 
ATOM      9  C   UNL     1       7.121   6.993  16.869  0.00  0.00    +0.000 A 
ATOM     10  C   UNL     1       6.295   5.856  16.747  0.00  0.00    +0.000 A 
BRANCH  10  11
ATOM     11  C   UNL     1       5.367   5.774  15.549  0.00  0.00    +0.000 C 
BRANCH  11  12
ATOM     12  C   UNL     1       5.996   5.067  14.366  0.00  0.00    +0.000 A 
ATOM     13  C   UNL     1       7.262   5.450  13.898  0.00  0.00    +0.000 A 
ATOM     14  C   UNL     1       7.826   4.834  12.779  0.00  0.00    +0.000 A 
ATOM     15  C   UNL     1       7.131   3.827  12.113  0.00  0.00    +0.000 A 
ATOM     16  C   UNL     1       5.877   3.429  12.572  0.00  0.00    +0.000 A 
ATOM     17  C   UNL     1       5.313   4.043  13.693  0.00  0.00    +0.000 A 
ENDBRANCH  11  12
ENDBRANCH  10  11
ENDBRANCH   3   5
BRANCH   2  18
ATOM     18  C   UNL     1       4.345   3.949  19.905  0.00  0.00    +0.000 C 
BRANCH  18  19
ATOM     19  N   UNL     1       2.976   4.004  20.383  0.00  0.00    +0.000 N 
ATOM     20  C   UNL     1       2.029   4.948  20.187  0.00  0.00    +0.000 A 
ATOM     21  N   UNL     1       0.886   4.641  20.711  0.00  0.00    +0.000 NA
ATOM     22  O   UNL     1       1.064   3.363  21.301  0.00  0.00    +0.000 OA
ATOM     23  C   UNL     1       2.358   2.994  21.040  0.00  0.00    +0.000 A 
ATOM     24  O   UNL     1       2.840   1.936  21.410  0.00  0.00    +0.000 OA
BRANCH  20  25
ATOM     25  C   UNL     1       2.205   6.203  19.409  0.00  0.00    +0.000 A 
ATOM     26  C   UNL     1       1.778   7.396  20.016  0.00  0.00    +0.000 A 
ATOM     27  C   UNL     1       1.896   8.620  19.352  0.00  0.00    +0.000 A 
ATOM     28  C   UNL     1       2.435   8.667  18.070  0.00  0.00    +0.000 A 
ATOM     29  C   UNL     1       2.886   7.496  17.467  0.00  0.00    +0.000 A 
ATOM     30  C   UNL     1       2.794   6.276  18.144  0.00  0.00    +0.000 A 
ENDBRANCH  20  25
ENDBRANCH  18  19
ENDBRANCH   2  18
TORSDOF 6
ENDMDL
MODEL 4
REMARK VINA RESULT:      -8.6      3.001      4.747
REMARK  Name = 
REMARK  6 active torsions:
REMARK  status: ('A' for Active; 'I' for Inactive)
REMARK    1  A    between atoms: C_2  and  C_3
REMARK    2  A    between atoms: C_3  and  N_4
REMARK    3  A    between atoms: C_5  and  C_6
REMARK    4  A    between atoms: N_16  and  C_17
REMARK    5  A    between atoms: C_22  and  C_23
REMARK    6  A    between atoms: C_23  and  C_24
REMARK                            x       y       z     vdW  Elec       q    Type
REMARK                         _______ _______ _______ _____ _____    ______ ____
ROOT
ATOM      1  O   UNL     1       2.408   4.566  21.374  0.00  0.00    +0.000 OA
ATOM      2  C   UNL     1       2.082   5.347  20.475  0.00  0.00    +0.000 C 
ATOM      3  N   UNL     1       2.345   6.688  20.617  0.00  0.00    +0.000 N 
ATOM      4  H   UNL     1       2.958   6.887  21.398  0.00  0.00    +0.000 HD
ENDROOT
BRANCH   3   5
ATOM      5  C   UNL     1       2.003   7.749  19.760  0.00  0.00    +0.000 A 
ATOM      6  C   UNL     1       2.486   7.772  18.445  0.00  0.00    +0.000 A 
ATOM      7  C   UNL     1       2.133   8.791  17.562  0.00  0.00    +0.000 A 
ATOM      8  C   UNL     1       1.265   9.789  17.976  0.00  0.00    +0.000 A 
ATOM      9  C   UNL     1       0.752   9.766  19.273  0.00  0.00    +0.000 A 
ATOM     10  C   UNL     1       1.109   8.749  20.183  0.00  0.00    +0.000 A 
BRANCH  10  11
ATOM     11  C   UNL     1       0.612   8.867  21.613  0.00  0.00    +0.000 C 
BRANCH  11  12
ATOM     12  C   UNL     1       0.037  10.233  21.925  0.00  0.00    +0.000 A 
ATOM     13  C   UNL     1       0.547  11.380  21.297  0.00  0.00    +0.000 A 
ATOM     14  C   UNL     1       0.052  12.647  21.616  0.00  0.00    +0.000 A 
ATOM     15  C   UNL     1      -0.957  12.783  22.566  0.00  0.00    +0.000 A 
ATOM     16  C   UNL     1      -1.480  11.651  23.190  0.00  0.00    +0.000 A 
ATOM     17  C   UNL     1      -0.987  10.384  22.870  0.00  0.00    +0.000 A 
ENDBRANCH  11  12
ENDBRANCH  10  11
ENDBRANCH   3   5
BRANCH   2  18
ATOM     18  C   UNL     1       1.535   4.829  19.144  0.00  0.00    +0.000 C 
BRANCH  18  19
ATOM     19  N   UNL     1       2.105   3.645  18.528  0.00  0.00    +0.000 N 
ATOM     20  C   UNL     1       3.344   3.441  18.030  0.00  0.00    +0.000 A 
ATOM     21  N   UNL     1       3.533   2.232  17.608  0.00  0.00    +0.000 NA
ATOM     22  O   UNL     1       2.318   1.543  17.860  0.00  0.00    +0.000 OA
ATOM     23  C   UNL     1       1.480   2.445  18.462  0.00  0.00    +0.000 A 
ATOM     24  O   UNL     1       0.344   2.172  18.814  0.00  0.00    +0.000 OA
BRANCH  20  25
ATOM     25  C   UNL     1       4.441   4.445  17.996  0.00  0.00    +0.000 A 
ATOM     26  C   UNL     1       4.513   5.274  16.865  0.00  0.00    +0.000 A 
ATOM     27  C   UNL     1       5.518   6.239  16.746  0.00  0.00    +0.000 A 
ATOM     28  C   UNL     1       6.467   6.382  17.753  0.00  0.00    +0.000 A 
ATOM     29  C   UNL     1       6.392   5.585  18.892  0.00  0.00    +0.000 A 
ATOM     30  C   UNL     1       5.369   4.640  19.023  0.00  0.00    +0.000 A 
ENDBRANCH  20  25
ENDBRANCH  18  19
ENDBRANCH   2  18
TORSDOF 6
ENDMDL
MODEL 5
REMARK VINA RESULT:      -8.5      2.861      4.840
REMARK  Name = 
REMARK  6 active torsions:
REMARK  status: ('A' for Active; 'I' for Inactive)
REMARK    1  A    between atoms: C_2  and  C_3
REMARK    2  A    between atoms: C_3  and  N_4
REMARK    3  A    between atoms: C_5  and  C_6
REMARK    4  A    between atoms: N_16  and  C_17
REMARK    5  A    between atoms: C_22  and  C_23
REMARK    6  A    between atoms: C_23  and  C_24
REMARK                            x       y       z     vdW  Elec       q    Type
REMARK                         _______ _______ _______ _____ _____    ______ ____
ROOT
ATOM      1  O   UNL     1       3.167   8.032  16.681  0.00  0.00    +0.000 OA
ATOM      2  C   UNL     1       2.658   7.923  17.801  0.00  0.00    +0.000 C 
ATOM      3  N   UNL     1       1.881   8.943  18.292  0.00  0.00    +0.000 N 
ATOM      4  H   UNL     1       1.655   9.636  17.590  0.00  0.00    +0.000 HD
ENDROOT
BRANCH   3   5
ATOM      5  C   UNL     1       1.269   9.056  19.553  0.00  0.00    +0.000 A 
ATOM      6  C   UNL     1       1.540   8.110  20.550  0.00  0.00    +0.000 A 
ATOM      7  C   UNL     1       0.978   8.217  21.822  0.00  0.00    +0.000 A 
ATOM      8  C   UNL     1       0.158   9.295  22.122  0.00  0.00    +0.000 A 
ATOM      9  C   UNL     1      -0.099  10.261  21.149  0.00  0.00    +0.000 A 
ATOM     10  C   UNL     1       0.452  10.160  19.854  0.00  0.00    +0.000 A 
BRANCH  10  11
ATOM     11  C   UNL     1       0.021  11.181  18.816  0.00  0.00    +0.000 C 
BRANCH  11  12
ATOM     12  C   UNL     1      -1.398  10.964  18.333  0.00  0.00    +0.000 A 
ATOM     13  C   UNL     1      -1.681   9.978  17.374  0.00  0.00    +0.000 A 
ATOM     14  C   UNL     1      -2.979   9.806  16.890  0.00  0.00    +0.000 A 
ATOM     15  C   UNL     1      -4.011  10.616  17.357  0.00  0.00    +0.000 A 
ATOM     16  C   UNL     1      -3.747  11.593  18.316  0.00  0.00    +0.000 A 
ATOM     17  C   UNL     1      -2.449  11.765  18.803  0.00  0.00    +0.000 A 
ENDBRANCH  11  12
ENDBRANCH  10  11
ENDBRANCH   3   5
BRANCH   2  18
ATOM     18  C   UNL     1       2.749   6.609  18.579  0.00  0.00    +0.000 C 
BRANCH  18  19
ATOM     19  N   UNL     1       3.146   5.385  17.908  0.00  0.00    +0.000 N 
ATOM     20  C   UNL     1       4.381   4.897  17.657  0.00  0.00    +0.000 A 
ATOM     21  N   UNL     1       4.365   3.734  17.088  0.00  0.00    +0.000 NA
ATOM     22  O   UNL     1       2.995   3.390  16.956  0.00  0.00    +0.000 OA
ATOM     23  C   UNL     1       2.282   4.421  17.510  0.00  0.00    +0.000 A 
ATOM     24  O   UNL     1       1.063   4.440  17.561  0.00  0.00    +0.000 OA
BRANCH  20  25
ATOM     25  C   UNL     1       5.663   5.553  18.027  0.00  0.00    +0.000 A 
ATOM     26  C   UNL     1       6.133   6.563  17.172  0.00  0.00    +0.000 A 
ATOM     27  C   UNL     1       7.335   7.226  17.438  0.00  0.00    +0.000 A 
ATOM     28  C   UNL     1       8.086   6.882  18.557  0.00  0.00    +0.000 A 
ATOM     29  C   UNL     1       7.619   5.901  19.428  0.00  0.00    +0.000 A 
ATOM     30  C   UNL     1       6.402   5.259  19.176  0.00  0.00    +0.000 A 
ENDBRANCH  20  25
ENDBRANCH  18  19
ENDBRANCH   2  18
TORSDOF 6
ENDMDL
MODEL 6
REMARK VINA RESULT:      -8.4      2.175      7.401
REMARK  Name = 
REMARK  6 active torsions:
REMARK  status: ('A' for Active; 'I' for Inactive)
REMARK    1  A    between atoms: C_2  and  C_3
REMARK    2  A    between atoms: C_3  and  N_4
REMARK    3  A    between atoms: C_5  and  C_6
REMARK    4  A    between atoms: N_16  and  C_17
REMARK    5  A    between atoms: C_22  and  C_23
REMARK    6  A    between atoms: C_23  and  C_24
REMARK                            x       y       z     vdW  Elec       q    Type
REMARK                         _______ _______ _______ _____ _____    ______ ____
ROOT
ATOM      1  O   UNL     1       3.600   1.839  17.488  0.00  0.00    +0.000 OA
ATOM      2  C   UNL     1       3.990   2.995  17.673  0.00  0.00    +0.000 C 
ATOM      3  N   UNL     1       5.295   3.321  17.396  0.00  0.00    +0.000 N 
ATOM      4  H   UNL     1       5.781   2.593  16.887  0.00  0.00    +0.000 HD
ENDROOT
BRANCH   3   5
ATOM      5  C   UNL     1       5.961   4.544  17.595  0.00  0.00    +0.000 A 
ATOM      6  C   UNL     1       6.727   4.744  18.751  0.00  0.00    +0.000 A 
ATOM      7  C   UNL     1       7.428   5.931  18.958  0.00  0.00    +0.000 A 
ATOM      8  C   UNL     1       7.394   6.926  17.993  0.00  0.00    +0.000 A 
ATOM      9  C   UNL     1       6.658   6.732  16.824  0.00  0.00    +0.000 A 
ATOM     10  C   UNL     1       5.933   5.542  16.605  0.00  0.00    +0.000 A 
BRANCH  10  11
ATOM     11  C   UNL     1       5.055   5.460  15.369  0.00  0.00    +0.000 C 
BRANCH  11  12
ATOM     12  C   UNL     1       5.773   4.867  14.175  0.00  0.00    +0.000 A 
ATOM     13  C   UNL     1       5.156   3.878  13.393  0.00  0.00    +0.000 A 
ATOM     14  C   UNL     1       5.832   3.294  12.319  0.00  0.00    +0.000 A 
ATOM     15  C   UNL     1       7.131   3.690  12.014  0.00  0.00    +0.000 A 
ATOM     16  C   UNL     1       7.753   4.679  12.775  0.00  0.00    +0.000 A 
ATOM     17  C   UNL     1       7.077   5.266  13.848  0.00  0.00    +0.000 A 
ENDBRANCH  11  12
ENDBRANCH  10  11
ENDBRANCH   3   5
BRANCH   2  18
ATOM     18  C   UNL     1       3.007   4.104  18.054  0.00  0.00    +0.000 C 
BRANCH  18  19
ATOM     19  N   UNL     1       2.748   4.407  19.450  0.00  0.00    +0.000 N 
ATOM     20  C   UNL     1       2.451   5.587  20.038  0.00  0.00    +0.000 A 
ATOM     21  N   UNL     1       2.217   5.480  21.307  0.00  0.00    +0.000 NA
ATOM     22  O   UNL     1       2.348   4.099  21.607  0.00  0.00    +0.000 OA
ATOM     23  C   UNL     1       2.639   3.472  20.424  0.00  0.00    +0.000 A 
ATOM     24  O   UNL     1       2.814   2.269  20.330  0.00  0.00    +0.000 OA
BRANCH  20  25
ATOM     25  C   UNL     1       2.331   6.896  19.343  0.00  0.00    +0.000 A 
ATOM     26  C   UNL     1       1.624   7.910  20.008  0.00  0.00    +0.000 A 
ATOM     27  C   UNL     1       1.454   9.168  19.424  0.00  0.00    +0.000 A 
ATOM     28  C   UNL     1       1.983   9.426  18.163  0.00  0.00    +0.000 A 
ATOM     29  C   UNL     1       2.710   8.439  17.503  0.00  0.00    +0.000 A 
ATOM     30  C   UNL     1       2.903   7.190  18.102  0.00  0.00    +0.000 A 
ENDBRANCH  20  25
ENDBRANCH  18  19
ENDBRANCH   2  18
TORSDOF 6
ENDMDL
MODEL 7
REMARK VINA RESULT:      -8.3      2.134      7.410
REMARK  Name = 
REMARK  6 active torsions:
REMARK  status: ('A' for Active; 'I' for Inactive)
REMARK    1  A    between atoms: C_2  and  C_3
REMARK    2  A    between atoms: C_3  and  N_4
REMARK    3  A    between atoms: C_5  and  C_6
REMARK    4  A    between atoms: N_16  and  C_17
REMARK    5  A    between atoms: C_22  and  C_23
REMARK    6  A    between atoms: C_23  and  C_24
REMARK                            x       y       z     vdW  Elec       q    Type
REMARK                         _______ _______ _______ _____ _____    ______ ____
ROOT
ATOM      1  O   UNL     1       3.573   2.003  17.404  0.00  0.00    +0.000 OA
ATOM      2  C   UNL     1       4.004   3.136  17.639  0.00  0.00    +0.000 C 
ATOM      3  N   UNL     1       5.325   3.420  17.391  0.00  0.00    +0.000 N 
ATOM      4  H   UNL     1       5.790   2.693  16.861  0.00  0.00    +0.000 HD
ENDROOT
BRANCH   3   5
ATOM      5  C   UNL     1       6.035   4.607  17.646  0.00  0.00    +0.000 A 
ATOM      6  C   UNL     1       6.779   4.739  18.825  0.00  0.00    +0.000 A 
ATOM      7  C   UNL     1       7.522   5.889  19.087  0.00  0.00    +0.000 A 
ATOM      8  C   UNL     1       7.553   6.915  18.154  0.00  0.00    +0.000 A 
ATOM      9  C   UNL     1       6.840   6.787  16.962  0.00  0.00    +0.000 A 
ATOM     10  C   UNL     1       6.073   5.636  16.687  0.00  0.00    +0.000 A 
BRANCH  10  11
ATOM     11  C   UNL     1       5.224   5.629  15.429  0.00  0.00    +0.000 C 
BRANCH  11  12
ATOM     12  C   UNL     1       5.912   4.959  14.258  0.00  0.00    +0.000 A 
ATOM     13  C   UNL     1       7.179   5.392  13.834  0.00  0.00    +0.000 A 
ATOM     14  C   UNL     1       7.797   4.809  12.726  0.00  0.00    +0.000 A 
ATOM     15  C   UNL     1       7.158   3.787  12.028  0.00  0.00    +0.000 A 
ATOM     16  C   UNL     1       5.905   3.340  12.444  0.00  0.00    +0.000 A 
ATOM     17  C   UNL     1       5.286   3.921  13.553  0.00  0.00    +0.000 A 
ENDBRANCH  11  12
ENDBRANCH  10  11
ENDBRANCH   3   5
BRANCH   2  18
ATOM     18  C   UNL     1       3.059   4.267  18.048  0.00  0.00    +0.000 C 
BRANCH  18  19
ATOM     19  N   UNL     1       2.768   4.508  19.449  0.00  0.00    +0.000 N 
ATOM     20  C   UNL     1       2.416   5.653  20.075  0.00  0.00    +0.000 A 
ATOM     21  N   UNL     1       2.168   5.491  21.335  0.00  0.00    +0.000 NA
ATOM     22  O   UNL     1       2.349   4.106  21.587  0.00  0.00    +0.000 OA
ATOM     23  C   UNL     1       2.681   3.535  20.387  0.00  0.00    +0.000 A 
ATOM     24  O   UNL     1       2.905   2.343  20.252  0.00  0.00    +0.000 OA
BRANCH  20  25
ATOM     25  C   UNL     1       2.255   6.981  19.426  0.00  0.00    +0.000 A 
ATOM     26  C   UNL     1       2.903   7.173  18.194  0.00  0.00    +0.000 A 
ATOM     27  C   UNL     1       2.813   8.394  17.520  0.00  0.00    +0.000 A 
ATOM     28  C   UNL     1       2.081   9.441  18.071  0.00  0.00    +0.000 A 
ATOM     29  C   UNL     1       1.413   9.256  19.278  0.00  0.00    +0.000 A 
ATOM     30  C   UNL     1       1.479   8.025  19.938  0.00  0.00    +0.000 A 
ENDBRANCH  20  25
ENDBRANCH  18  19
ENDBRANCH   2  18
TORSDOF 6
ENDMDL
MODEL 8
REMARK VINA RESULT:      -8.3      2.975      4.696
REMARK  Name = 
REMARK  6 active torsions:
REMARK  status: ('A' for Active; 'I' for Inactive)
REMARK    1  A    between atoms: C_2  and  C_3
REMARK    2  A    between atoms: C_3  and  N_4
REMARK    3  A    between atoms: C_5  and  C_6
REMARK    4  A    between atoms: N_16  and  C_17
REMARK    5  A    between atoms: C_22  and  C_23
REMARK    6  A    between atoms: C_23  and  C_24
REMARK                            x       y       z     vdW  Elec       q    Type
REMARK                         _______ _______ _______ _____ _____    ______ ____
ROOT
ATOM      1  O   UNL     1       2.089   4.437  21.379  0.00  0.00    +0.000 OA
ATOM      2  C   UNL     1       1.935   5.246  20.459  0.00  0.00    +0.000 C 
ATOM      3  N   UNL     1       2.227   6.572  20.670  0.00  0.00    +0.000 N 
ATOM      4  H   UNL     1       2.719   6.731  21.540  0.00  0.00    +0.000 HD
ENDROOT
BRANCH   3   5
ATOM      5  C   UNL     1       2.063   7.661  19.796  0.00  0.00    +0.000 A 
ATOM      6  C   UNL     1       2.734   7.679  18.566  0.00  0.00    +0.000 A 
ATOM      7  C   UNL     1       2.562   8.727  17.663  0.00  0.00    +0.000 A 
ATOM      8  C   UNL     1       1.688   9.760  17.967  0.00  0.00    +0.000 A 
ATOM      9  C   UNL     1       0.990   9.742  19.175  0.00  0.00    +0.000 A 
ATOM     10  C   UNL     1       1.163   8.696  20.105  0.00  0.00    +0.000 A 
BRANCH  10  11
ATOM     11  C   UNL     1       0.467   8.816  21.449  0.00  0.00    +0.000 C 
BRANCH  11  12
ATOM     12  C   UNL     1      -0.350  10.085  21.577  0.00  0.00    +0.000 A 
ATOM     13  C   UNL     1      -0.899  10.696  20.438  0.00  0.00    +0.000 A 
ATOM     14  C   UNL     1      -1.614  11.891  20.545  0.00  0.00    +0.000 A 
ATOM     15  C   UNL     1      -1.788  12.491  21.789  0.00  0.00    +0.000 A 
ATOM     16  C   UNL     1      -1.257  11.891  22.930  0.00  0.00    +0.000 A 
ATOM     17  C   UNL     1      -0.544  10.694  22.825  0.00  0.00    +0.000 A 
ENDBRANCH  11  12
ENDBRANCH  10  11
ENDBRANCH   3   5
BRANCH   2  18
ATOM     18  C   UNL     1       1.579   4.773  19.048  0.00  0.00    +0.000 C 
BRANCH  18  19
ATOM     19  N   UNL     1       2.171   3.563  18.509  0.00  0.00    +0.000 N 
ATOM     20  C   UNL     1       3.408   3.354  18.008  0.00  0.00    +0.000 A 
ATOM     21  N   UNL     1       3.621   2.122  17.671  0.00  0.00    +0.000 NA
ATOM     22  O   UNL     1       2.428   1.425  17.989  0.00  0.00    +0.000 OA
ATOM     23  C   UNL     1       1.576   2.347  18.538  0.00  0.00    +0.000 A 
ATOM     24  O   UNL     1       0.452   2.072  18.926  0.00  0.00    +0.000 OA
BRANCH  20  25
ATOM     25  C   UNL     1       4.478   4.380  17.886  0.00  0.00    +0.000 A 
ATOM     26  C   UNL     1       5.343   4.534  18.982  0.00  0.00    +0.000 A 
ATOM     27  C   UNL     1       6.370   5.482  18.956  0.00  0.00    +0.000 A 
ATOM     28  C   UNL     1       6.542   6.291  17.838  0.00  0.00    +0.000 A 
ATOM     29  C   UNL     1       5.710   6.130  16.734  0.00  0.00    +0.000 A 
ATOM     30  C   UNL     1       4.700   5.162  16.749  0.00  0.00    +0.000 A 
ENDBRANCH  20  25
ENDBRANCH  18  19
ENDBRANCH   2  18
TORSDOF 6
ENDMDL
MODEL 9
REMARK VINA RESULT:      -8.3      2.146      7.485
REMARK  Name = 
REMARK  6 active torsions:
REMARK  status: ('A' for Active; 'I' for Inactive)
REMARK    1  A    between atoms: C_2  and  C_3
REMARK    2  A    between atoms: C_3  and  N_4
REMARK    3  A    between atoms: C_5  and  C_6
REMARK    4  A    between atoms: N_16  and  C_17
REMARK    5  A    between atoms: C_22  and  C_23
REMARK    6  A    between atoms: C_23  and  C_24
REMARK                            x       y       z     vdW  Elec       q    Type
REMARK                         _______ _______ _______ _____ _____    ______ ____
ROOT
ATOM      1  O   UNL     1       2.657   2.401  16.989  0.00  0.00    +0.000 OA
ATOM      2  C   UNL     1       3.273   3.404  17.362  0.00  0.00    +0.000 C 
ATOM      3  N   UNL     1       4.628   3.481  17.153  0.00  0.00    +0.000 N 
ATOM      4  H   UNL     1       4.972   2.754  16.537  0.00  0.00    +0.000 HD
ENDROOT
BRANCH   3   5
ATOM      5  C   UNL     1       5.527   4.486  17.553  0.00  0.00    +0.000 A 
ATOM      6  C   UNL     1       6.138   4.419  18.812  0.00  0.00    +0.000 A 
ATOM      7  C   UNL     1       7.060   5.381  19.220  0.00  0.00    +0.000 A 
ATOM      8  C   UNL     1       7.407   6.411  18.358  0.00  0.00    +0.000 A 
ATOM      9  C   UNL     1       6.829   6.476  17.091  0.00  0.00    +0.000 A 
ATOM     10  C   UNL     1       5.885   5.518  16.667  0.00  0.00    +0.000 A 
BRANCH  10  11
ATOM     11  C   UNL     1       5.206   5.732  15.325  0.00  0.00    +0.000 C 
BRANCH  11  12
ATOM     12  C   UNL     1       5.889   4.989  14.196  0.00  0.00    +0.000 A 
ATOM     13  C   UNL     1       7.174   5.363  13.772  0.00  0.00    +0.000 A 
ATOM     14  C   UNL     1       7.788   4.712  12.700  0.00  0.00    +0.000 A 
ATOM     15  C   UNL     1       7.127   3.681  12.038  0.00  0.00    +0.000 A 
ATOM     16  C   UNL     1       5.855   3.291  12.455  0.00  0.00    +0.000 A 
ATOM     17  C   UNL     1       5.240   3.940  13.528  0.00  0.00    +0.000 A 
ENDBRANCH  11  12
ENDBRANCH  10  11
ENDBRANCH   3   5
BRANCH   2  18
ATOM     18  C   UNL     1       2.529   4.624  17.908  0.00  0.00    +0.000 C 
BRANCH  18  19
ATOM     19  N   UNL     1       2.460   4.862  19.338  0.00  0.00    +0.000 N 
ATOM     20  C   UNL     1       2.248   6.012  20.014  0.00  0.00    +0.000 A 
ATOM     21  N   UNL     1       2.185   5.846  21.297  0.00  0.00    +0.000 NA
ATOM     22  O   UNL     1       2.350   4.454  21.513  0.00  0.00    +0.000 OA
ATOM     23  C   UNL     1       2.479   3.883  20.274  0.00  0.00    +0.000 A 
ATOM     24  O   UNL     1       2.636   2.686  20.102  0.00  0.00    +0.000 OA
BRANCH  20  25
ATOM     25  C   UNL     1       2.040   7.352  19.402  0.00  0.00    +0.000 A 
ATOM     26  C   UNL     1       1.349   8.304  20.169  0.00  0.00    +0.000 A 
ATOM     27  C   UNL     1       1.101   9.585  19.668  0.00  0.00    +0.000 A 
ATOM     28  C   UNL     1       1.534   9.928  18.391  0.00  0.00    +0.000 A 
ATOM     29  C   UNL     1       2.244   9.003  17.631  0.00  0.00    +0.000 A 
ATOM     30  C   UNL     1       2.517   7.731  18.144  0.00  0.00    +0.000 A 
ENDBRANCH  20  25
ENDBRANCH  18  19
ENDBRANCH   2  18
TORSDOF 6
ENDMDL
