MODEL 1
REMARK VINA RESULT:      -8.6      0.000      0.000
REMARK  Name = 
REMARK  7 active torsions:
REMARK  status: ('A' for Active; 'I' for Inactive)
REMARK    1  A    between atoms: C_1  and  N_2
REMARK    2  A    between atoms: N_2  and  C_3
REMARK    3  A    between atoms: N_2  and  S_4
REMARK    4  A    between atoms: S_4  and  C_7
REMARK    5  A    between atoms: C_11  and  N_12
REMARK    6  A    between atoms: C_16  and  C_17
REMARK    7  A    between atoms: C_17  and  C_18
REMARK                            x       y       z     vdW  Elec       q    Type
REMARK                         _______ _______ _______ _____ _____    ______ ____
ROOT
ATOM      1  N   UNL     1       0.466   9.678  19.614  0.00  0.00    +0.000 N 
ATOM      2  C   UNL     1       0.648   8.835  20.687  0.00  0.00    +0.000 C 
ATOM      3  O   UNL     1       0.084   8.807  21.770  0.00  0.00    +0.000 OA
ATOM      4  N   UNL     1       1.624   7.906  20.371  0.00  0.00    +0.000 N 
ATOM      5  C   UNL     1       2.314   8.235  19.162  0.00  0.00    +0.000 C 
ATOM      6  C   UNL     1       1.405   9.372  18.646  0.00  0.00    +0.000 C 
ATOM      7  O   UNL     1       1.586   9.934  17.568  0.00  0.00    +0.000 OA
ATOM      8  H   UNL     1       1.981   7.311  21.110  0.00  0.00    +0.000 HD
ENDROOT
BRANCH   1  13
ATOM      9  C   UNL     1      -2.676  11.505  18.625  0.00  0.00    +0.000 A 
ATOM     10  C   UNL     1      -2.642  12.604  19.479  0.00  0.00    +0.000 A 
ATOM     11  C   UNL     1      -1.563  12.760  20.341  0.00  0.00    +0.000 A 
ATOM     12  C   UNL     1      -0.539  11.804  20.366  0.00  0.00    +0.000 A 
ATOM     13  C   UNL     1      -0.547  10.683  19.516  0.00  0.00    +0.000 A 
ATOM     14  C   UNL     1      -1.627  10.562  18.619  0.00  0.00    +0.000 A 
BRANCH   9  15
ATOM     15  S   UNL     1      -4.192  11.173  17.738  0.00  0.00    +0.000 S 
ATOM     16  O   UNL     1      -4.586   9.816  18.071  0.00  0.00    +0.000 OA
ATOM     17  O   UNL     1      -4.005  11.565  16.353  0.00  0.00    +0.000 OA
BRANCH  15  19
ATOM     18  C   UNL     1      -6.229  12.906  17.457  0.00  0.00    +0.000 C 
ATOM     19  N   UNL     1      -5.342  12.235  18.433  0.00  0.00    +0.000 NA
ATOM     20  C   UNL     1      -6.133  11.590  19.513  0.00  0.00    +0.000 C 
ENDBRANCH  15  19
ENDBRANCH   9  15
ENDBRANCH   1  13
BRANCH   5  21
ATOM     21  C   UNL     1       2.439   7.116  18.122  0.00  0.00    +0.000 C 
BRANCH  21  22
ATOM     22  C   UNL     1       3.394   5.919  18.415  0.00  0.00    +0.000 C 
ATOM     23  C   UNL     1       4.658   5.971  17.540  0.00  0.00    +0.000 C 
ATOM     24  C   UNL     1       5.157   4.704  16.861  0.00  0.00    +0.000 C 
ATOM     25  C   UNL     1       4.288   3.459  16.894  0.00  0.00    +0.000 C 
ATOM     26  C   UNL     1       3.114   3.453  17.824  0.00  0.00    +0.000 A 
ATOM     27  C   UNL     1       2.411   2.240  17.964  0.00  0.00    +0.000 A 
ATOM     28  C   UNL     1       1.341   2.123  18.846  0.00  0.00    +0.000 A 
ATOM     29  C   UNL     1       0.975   3.216  19.617  0.00  0.00    +0.000 A 
ATOM     30  C   UNL     1       1.654   4.428  19.473  0.00  0.00    +0.000 A 
ATOM     31  C   UNL     1       2.706   4.579  18.545  0.00  0.00    +0.000 A 
ENDBRANCH  21  22
ENDBRANCH   5  21
TORSDOF 5
ENDMDL
MODEL 2
REMARK VINA RESULT:      -8.4      3.492      9.373
REMARK  Name = 
REMARK  7 active torsions:
REMARK  status: ('A' for Active; 'I' for Inactive)
REMARK    1  A    between atoms: C_1  and  N_2
REMARK    2  A    between atoms: N_2  and  C_3
REMARK    3  A    between atoms: N_2  and  S_4
REMARK    4  A    between atoms: S_4  and  C_7
REMARK    5  A    between atoms: C_11  and  N_12
REMARK    6  A    between atoms: C_16  and  C_17
REMARK    7  A    between atoms: C_17  and  C_18
REMARK                            x       y       z     vdW  Elec       q    Type
REMARK                         _______ _______ _______ _____ _____    ______ ____
ROOT
ATOM      1  N   UNL     1       1.925   8.062  19.407  0.00  0.00    +0.000 N 
ATOM      2  C   UNL     1       1.882   8.848  18.277  0.00  0.00    +0.000 C 
ATOM      3  O   UNL     1       2.411   8.690  17.188  0.00  0.00    +0.000 OA
ATOM      4  N   UNL     1       1.071   9.942  18.520  0.00  0.00    +0.000 N 
ATOM      5  C   UNL     1       0.729  10.068  19.903  0.00  0.00    +0.000 C 
ATOM      6  C   UNL     1       1.238   8.704  20.421  0.00  0.00    +0.000 C 
ATOM      7  O   UNL     1       1.096   8.337  21.585  0.00  0.00    +0.000 OA
ATOM      8  H   UNL     1       1.058  10.694  17.840  0.00  0.00    +0.000 HD
ENDROOT
BRANCH   1  13
ATOM      9  C   UNL     1       4.488   5.311  19.173  0.00  0.00    +0.000 A 
ATOM     10  C   UNL     1       3.855   4.279  19.861  0.00  0.00    +0.000 A 
ATOM     11  C   UNL     1       2.572   4.480  20.355  0.00  0.00    +0.000 A 
ATOM     12  C   UNL     1       1.939   5.719  20.187  0.00  0.00    +0.000 A 
ATOM     13  C   UNL     1       2.555   6.781  19.498  0.00  0.00    +0.000 A 
ATOM     14  C   UNL     1       3.838   6.545  18.966  0.00  0.00    +0.000 A 
BRANCH   9  15
ATOM     15  S   UNL     1       6.227   5.133  18.798  0.00  0.00    +0.000 S 
ATOM     16  O   UNL     1       6.384   3.850  18.139  0.00  0.00    +0.000 OA
ATOM     17  O   UNL     1       6.985   5.441  19.997  0.00  0.00    +0.000 OA
BRANCH  15  19
ATOM     18  C   UNL     1       7.742   7.181  17.938  0.00  0.00    +0.000 C 
ATOM     19  N   UNL     1       6.549   6.356  17.644  0.00  0.00    +0.000 NA
ATOM     20  C   UNL     1       6.597   5.829  16.255  0.00  0.00    +0.000 C 
ENDBRANCH  15  19
ENDBRANCH   9  15
ENDBRANCH   1  13
BRANCH   5  21
ATOM     21  C   UNL     1      -0.759  10.256  20.223  0.00  0.00    +0.000 C 
BRANCH  21  22
ATOM     22  C   UNL     1      -1.478  11.547  19.727  0.00  0.00    +0.000 C 
ATOM     23  C   UNL     1      -1.981  12.405  20.901  0.00  0.00    +0.000 C 
ATOM     24  C   UNL     1      -3.383  12.996  20.855  0.00  0.00    +0.000 C 
ATOM     25  C   UNL     1      -4.330  12.563  19.748  0.00  0.00    +0.000 C 
ATOM     26  C   UNL     1      -3.754  11.791  18.602  0.00  0.00    +0.000 A 
ATOM     27  C   UNL     1      -4.605  11.534  17.509  0.00  0.00    +0.000 A 
ATOM     28  C   UNL     1      -4.145  10.872  16.375  0.00  0.00    +0.000 A 
ATOM     29  C   UNL     1      -2.817  10.478  16.311  0.00  0.00    +0.000 A 
ATOM     30  C   UNL     1      -1.969  10.713  17.397  0.00  0.00    +0.000 A 
ATOM     31  C   UNL     1      -2.433  11.335  18.575  0.00  0.00    +0.000 A 
ENDBRANCH  21  22
ENDBRANCH   5  21
TORSDOF 5
ENDMDL
MODEL 3
REMARK VINA RESULT:      -8.3      3.019      4.761
REMARK  Name = 
REMARK  7 active torsions:
REMARK  status: ('A' for Active; 'I' for Inactive)
REMARK    1  A    between atoms: C_1  and  N_2
REMARK    2  A    between atoms: N_2  and  C_3
REMARK    3  A    between atoms: N_2  and  S_4
REMARK    4  A    between atoms: S_4  and  C_7
REMARK    5  A    between atoms: C_11  and  N_12
REMARK    6  A    between atoms: C_16  and  C_17
REMARK    7  A    between atoms: C_17  and  C_18
REMARK                            x       y       z     vdW  Elec       q    Type
REMARK                         _______ _______ _______ _____ _____    ______ ____
ROOT
ATOM      1  N   UNL     1       1.230   9.208  19.720  0.00  0.00    +0.000 N 
ATOM      2  C   UNL     1       1.423   8.291  20.729  0.00  0.00    +0.000 C 
ATOM      3  O   UNL     1       1.083   8.329  21.902  0.00  0.00    +0.000 OA
ATOM      4  N   UNL     1       2.093   7.193  20.219  0.00  0.00    +0.000 N 
ATOM      5  C   UNL     1       2.596   7.429  18.901  0.00  0.00    +0.000 C 
ATOM      6  C   UNL     1       1.877   8.759  18.583  0.00  0.00    +0.000 C 
ATOM      7  O   UNL     1       1.969   9.324  17.496  0.00  0.00    +0.000 OA
ATOM      8  H   UNL     1       2.445   6.498  20.868  0.00  0.00    +0.000 HD
ENDROOT
BRANCH   1  13
ATOM      9  C   UNL     1       0.256  12.778  20.421  0.00  0.00    +0.000 A 
ATOM     10  C   UNL     1      -1.021  12.834  19.869  0.00  0.00    +0.000 A 
ATOM     11  C   UNL     1      -1.571  11.685  19.312  0.00  0.00    +0.000 A 
ATOM     12  C   UNL     1      -0.832  10.495  19.283  0.00  0.00    +0.000 A 
ATOM     13  C   UNL     1       0.462  10.410  19.832  0.00  0.00    +0.000 A 
ATOM     14  C   UNL     1       0.986  11.573  20.430  0.00  0.00    +0.000 A 
BRANCH   9  15
ATOM     15  S   UNL     1       1.048  14.317  20.869  0.00  0.00    +0.000 S 
ATOM     16  O   UNL     1       1.048  14.382  22.319  0.00  0.00    +0.000 OA
ATOM     17  O   UNL     1       0.450  15.382  20.085  0.00  0.00    +0.000 OA
BRANCH  15  19
ATOM     18  C   UNL     1       3.032  14.929  19.159  0.00  0.00    +0.000 C 
ATOM     19  N   UNL     1       2.671  14.134  20.355  0.00  0.00    +0.000 NA
ATOM     20  C   UNL     1       3.645  14.359  21.455  0.00  0.00    +0.000 C 
ENDBRANCH  15  19
ENDBRANCH   9  15
ENDBRANCH   1  13
BRANCH   5  21
ATOM     21  C   UNL     1       2.272   6.364  17.847  0.00  0.00    +0.000 C 
BRANCH  21  22
ATOM     22  C   UNL     1       3.284   5.201  17.616  0.00  0.00    +0.000 C 
ATOM     23  C   UNL     1       2.815   3.896  18.284  0.00  0.00    +0.000 C 
ATOM     24  C   UNL     1       3.806   3.059  19.079  0.00  0.00    +0.000 C 
ATOM     25  C   UNL     1       5.185   3.626  19.369  0.00  0.00    +0.000 C 
ATOM     26  C   UNL     1       5.600   4.858  18.628  0.00  0.00    +0.000 A 
ATOM     27  C   UNL     1       6.935   5.283  18.785  0.00  0.00    +0.000 A 
ATOM     28  C   UNL     1       7.428   6.385  18.094  0.00  0.00    +0.000 A 
ATOM     29  C   UNL     1       6.596   7.065  17.217  0.00  0.00    +0.000 A 
ATOM     30  C   UNL     1       5.266   6.663  17.068  0.00  0.00    +0.000 A 
ATOM     31  C   UNL     1       4.735   5.581  17.801  0.00  0.00    +0.000 A 
ENDBRANCH  21  22
ENDBRANCH   5  21
TORSDOF 5
ENDMDL
MODEL 4
REMARK VINA RESULT:      -8.2      2.436      3.196
REMARK  Name = 
REMARK  7 active torsions:
REMARK  status: ('A' for Active; 'I' for Inactive)
REMARK    1  A    between atoms: C_1  and  N_2
REMARK    2  A    between atoms: N_2  and  C_3
REMARK    3  A    between atoms: N_2  and  S_4
REMARK    4  A    between atoms: S_4  and  C_7
REMARK    5  A    between atoms: C_11  and  N_12
REMARK    6  A    between atoms: C_16  and  C_17
REMARK    7  A    between atoms: C_17  and  C_18
REMARK                            x       y       z     vdW  Elec       q    Type
REMARK                         _______ _______ _______ _____ _____    ______ ____
ROOT
ATOM      1  N   UNL     1       0.661   9.603  19.622  0.00  0.00    +0.000 N 
ATOM      2  C   UNL     1       0.880   8.789  20.710  0.00  0.00    +0.000 C 
ATOM      3  O   UNL     1       0.368   8.802  21.819  0.00  0.00    +0.000 OA
ATOM      4  N   UNL     1       1.825   7.834  20.377  0.00  0.00    +0.000 N 
ATOM      5  C   UNL     1       2.462   8.116  19.127  0.00  0.00    +0.000 C 
ATOM      6  C   UNL     1       1.547   9.253  18.620  0.00  0.00    +0.000 C 
ATOM      7  O   UNL     1       1.686   9.780  17.519  0.00  0.00    +0.000 OA
ATOM      8  H   UNL     1       2.207   7.255  21.115  0.00  0.00    +0.000 HD
ENDROOT
BRANCH   1  13
ATOM      9  C   UNL     1      -1.092  12.925  19.904  0.00  0.00    +0.000 A 
ATOM     10  C   UNL     1      -2.269  12.683  19.201  0.00  0.00    +0.000 A 
ATOM     11  C   UNL     1      -2.498  11.415  18.679  0.00  0.00    +0.000 A 
ATOM     12  C   UNL     1      -1.539  10.406  18.837  0.00  0.00    +0.000 A 
ATOM     13  C   UNL     1      -0.340  10.623  19.541  0.00  0.00    +0.000 A 
ATOM     14  C   UNL     1      -0.144  11.901  20.100  0.00  0.00    +0.000 A 
BRANCH   9  15
ATOM     15  S   UNL     1      -0.691  14.618  20.316  0.00  0.00    +0.000 S 
ATOM     16  O   UNL     1       0.329  14.569  21.347  0.00  0.00    +0.000 OA
ATOM     17  O   UNL     1      -1.931  15.338  20.543  0.00  0.00    +0.000 OA
BRANCH  15  19
ATOM     18  C   UNL     1      -0.470  16.582  18.493  0.00  0.00    +0.000 C 
ATOM     19  N   UNL     1       0.031  15.249  18.897  0.00  0.00    +0.000 NA
ATOM     20  C   UNL     1       1.516  15.237  18.961  0.00  0.00    +0.000 C 
ENDBRANCH  15  19
ENDBRANCH   9  15
ENDBRANCH   1  13
BRANCH   5  21
ATOM     21  C   UNL     1       2.519   6.964  18.116  0.00  0.00    +0.000 C 
BRANCH  21  22
ATOM     22  C   UNL     1       3.429   5.737  18.424  0.00  0.00    +0.000 C 
ATOM     23  C   UNL     1       4.694   5.732  17.548  0.00  0.00    +0.000 C 
ATOM     24  C   UNL     1       5.145   4.439  16.885  0.00  0.00    +0.000 C 
ATOM     25  C   UNL     1       4.231   3.227  16.933  0.00  0.00    +0.000 C 
ATOM     26  C   UNL     1       3.059   3.276  17.863  0.00  0.00    +0.000 A 
ATOM     27  C   UNL     1       2.311   2.092  18.019  0.00  0.00    +0.000 A 
ATOM     28  C   UNL     1       1.238   2.025  18.902  0.00  0.00    +0.000 A 
ATOM     29  C   UNL     1       0.913   3.140  19.660  0.00  0.00    +0.000 A 
ATOM     30  C   UNL     1       1.636   4.325  19.500  0.00  0.00    +0.000 A 
ATOM     31  C   UNL     1       2.692   4.425  18.571  0.00  0.00    +0.000 A 
ENDBRANCH  21  22
ENDBRANCH   5  21
TORSDOF 5
ENDMDL
MODEL 5
REMARK VINA RESULT:      -8.2      2.395      2.923
REMARK  Name = 
REMARK  7 active torsions:
REMARK  status: ('A' for Active; 'I' for Inactive)
REMARK    1  A    between atoms: C_1  and  N_2
REMARK    2  A    between atoms: N_2  and  C_3
REMARK    3  A    between atoms: N_2  and  S_4
REMARK    4  A    between atoms: S_4  and  C_7
REMARK    5  A    between atoms: C_11  and  N_12
REMARK    6  A    between atoms: C_16  and  C_17
REMARK    7  A    between atoms: C_17  and  C_18
REMARK                            x       y       z     vdW  Elec       q    Type
REMARK                         _______ _______ _______ _____ _____    ______ ____
ROOT
ATOM      1  N   UNL     1       0.573   9.527  19.882  0.00  0.00    +0.000 N 
ATOM      2  C   UNL     1       0.853   8.638  20.895  0.00  0.00    +0.000 C 
ATOM      3  O   UNL     1       0.376   8.546  22.016  0.00  0.00    +0.000 OA
ATOM      4  N   UNL     1       1.818   7.747  20.459  0.00  0.00    +0.000 N 
ATOM      5  C   UNL     1       2.405   8.148  19.218  0.00  0.00    +0.000 C 
ATOM      6  C   UNL     1       1.438   9.289  18.830  0.00  0.00    +0.000 C 
ATOM      7  O   UNL     1       1.524   9.905  17.771  0.00  0.00    +0.000 OA
ATOM      8  H   UNL     1       2.242   7.125  21.137  0.00  0.00    +0.000 HD
ENDROOT
BRANCH   1  13
ATOM      9  C   UNL     1      -1.498  12.511  20.881  0.00  0.00    +0.000 A 
ATOM     10  C   UNL     1      -2.421  12.573  19.841  0.00  0.00    +0.000 A 
ATOM     11  C   UNL     1      -2.385  11.606  18.843  0.00  0.00    +0.000 A 
ATOM     12  C   UNL     1      -1.410  10.600  18.874  0.00  0.00    +0.000 A 
ATOM     13  C   UNL     1      -0.464  10.513  19.912  0.00  0.00    +0.000 A 
ATOM     14  C   UNL     1      -0.541  11.477  20.937  0.00  0.00    +0.000 A 
BRANCH   9  15
ATOM     15  S   UNL     1      -1.379  13.911  21.987  0.00  0.00    +0.000 S 
ATOM     16  O   UNL     1      -1.624  15.098  21.190  0.00  0.00    +0.000 OA
ATOM     17  O   UNL     1      -0.155  13.781  22.757  0.00  0.00    +0.000 OA
BRANCH  15  19
ATOM     18  C   UNL     1      -3.962  14.340  22.601  0.00  0.00    +0.000 C 
ATOM     19  N   UNL     1      -2.698  13.724  23.064  0.00  0.00    +0.000 NA
ATOM     20  C   UNL     1      -2.912  12.308  23.462  0.00  0.00    +0.000 C 
ENDBRANCH  15  19
ENDBRANCH   9  15
ENDBRANCH   1  13
BRANCH   5  21
ATOM     21  C   UNL     1       2.468   7.082  18.118  0.00  0.00    +0.000 C 
BRANCH  21  22
ATOM     22  C   UNL     1       3.411   5.856  18.311  0.00  0.00    +0.000 C 
ATOM     23  C   UNL     1       4.603   5.896  17.339  0.00  0.00    +0.000 C 
ATOM     24  C   UNL     1       5.013   4.631  16.598  0.00  0.00    +0.000 C 
ATOM     25  C   UNL     1       4.115   3.408  16.676  0.00  0.00    +0.000 C 
ATOM     26  C   UNL     1       3.019   3.412  17.695  0.00  0.00    +0.000 A 
ATOM     27  C   UNL     1       2.297   2.214  17.867  0.00  0.00    +0.000 A 
ATOM     28  C   UNL     1       1.297   2.105  18.828  0.00  0.00    +0.000 A 
ATOM     29  C   UNL     1       1.022   3.190  19.648  0.00  0.00    +0.000 A 
ATOM     30  C   UNL     1       1.720   4.387  19.473  0.00  0.00    +0.000 A 
ATOM     31  C   UNL     1       2.699   4.532  18.469  0.00  0.00    +0.000 A 
ENDBRANCH  21  22
ENDBRANCH   5  21
TORSDOF 5
ENDMDL
MODEL 6
REMARK VINA RESULT:      -8.1      4.194      9.547
REMARK  Name = 
REMARK  7 active torsions:
REMARK  status: ('A' for Active; 'I' for Inactive)
REMARK    1  A    between atoms: C_1  and  N_2
REMARK    2  A    between atoms: N_2  and  C_3
REMARK    3  A    between atoms: N_2  and  S_4
REMARK    4  A    between atoms: S_4  and  C_7
REMARK    5  A    between atoms: C_11  and  N_12
REMARK    6  A    between atoms: C_16  and  C_17
REMARK    7  A    between atoms: C_17  and  C_18
REMARK                            x       y       z     vdW  Elec       q    Type
REMARK                         _______ _______ _______ _____ _____    ______ ____
ROOT
ATOM      1  N   UNL     1       2.458   6.492  19.160  0.00  0.00    +0.000 N 
ATOM      2  C   UNL     1       2.073   6.124  20.429  0.00  0.00    +0.000 C 
ATOM      3  O   UNL     1       2.243   5.074  21.030  0.00  0.00    +0.000 OA
ATOM      4  N   UNL     1       1.423   7.187  21.031  0.00  0.00    +0.000 N 
ATOM      5  C   UNL     1       1.127   8.236  20.103  0.00  0.00    +0.000 C 
ATOM      6  C   UNL     1       1.956   7.753  18.892  0.00  0.00    +0.000 C 
ATOM      7  O   UNL     1       2.052   8.396  17.850  0.00  0.00    +0.000 OA
ATOM      8  H   UNL     1       0.945   7.027  21.909  0.00  0.00    +0.000 HD
ENDROOT
BRANCH   1  13
ATOM      9  C   UNL     1       5.413   5.201  17.212  0.00  0.00    +0.000 A 
ATOM     10  C   UNL     1       4.904   4.018  16.682  0.00  0.00    +0.000 A 
ATOM     11  C   UNL     1       3.580   3.678  16.931  0.00  0.00    +0.000 A 
ATOM     12  C   UNL     1       2.779   4.504  17.731  0.00  0.00    +0.000 A 
ATOM     13  C   UNL     1       3.266   5.705  18.281  0.00  0.00    +0.000 A 
ATOM     14  C   UNL     1       4.598   6.056  17.984  0.00  0.00    +0.000 A 
BRANCH   9  15
ATOM     15  S   UNL     1       7.176   5.476  17.121  0.00  0.00    +0.000 S 
ATOM     16  O   UNL     1       7.418   6.255  15.921  0.00  0.00    +0.000 OA
ATOM     17  O   UNL     1       7.847   4.204  17.319  0.00  0.00    +0.000 OA
BRANCH  15  19
ATOM     18  C   UNL     1       8.258   5.790  19.563  0.00  0.00    +0.000 C 
ATOM     19  N   UNL     1       7.530   6.471  18.469  0.00  0.00    +0.000 NA
ATOM     20  C   UNL     1       8.215   7.732  18.081  0.00  0.00    +0.000 C 
ENDBRANCH  15  19
ENDBRANCH   9  15
ENDBRANCH   1  13
BRANCH   5  21
ATOM     21  C   UNL     1       1.541   9.652  20.522  0.00  0.00    +0.000 C 
BRANCH  21  22
ATOM     22  C   UNL     1       0.706  10.863  20.005  0.00  0.00    +0.000 C 
ATOM     23  C   UNL     1       1.453  11.645  18.910  0.00  0.00    +0.000 C 
ATOM     24  C   UNL     1       1.481  13.165  18.957  0.00  0.00    +0.000 C 
ATOM     25  C   UNL     1       0.946  13.875  20.189  0.00  0.00    +0.000 C 
ATOM     26  C   UNL     1       0.166  13.064  21.176  0.00  0.00    +0.000 A 
ATOM     27  C   UNL     1      -0.459  13.761  22.229  0.00  0.00    +0.000 A 
ATOM     28  C   UNL     1      -1.249  13.100  23.164  0.00  0.00    +0.000 A 
ATOM     29  C   UNL     1      -1.444  11.732  23.043  0.00  0.00    +0.000 A 
ATOM     30  C   UNL     1      -0.814  11.029  22.013  0.00  0.00    +0.000 A 
ATOM     31  C   UNL     1       0.033  11.675  21.089  0.00  0.00    +0.000 A 
ENDBRANCH  21  22
ENDBRANCH   5  21
TORSDOF 5
ENDMDL
MODEL 7
REMARK VINA RESULT:      -8.1      0.872      1.126
REMARK  Name = 
REMARK  7 active torsions:
REMARK  status: ('A' for Active; 'I' for Inactive)
REMARK    1  A    between atoms: C_1  and  N_2
REMARK    2  A    between atoms: N_2  and  C_3
REMARK    3  A    between atoms: N_2  and  S_4
REMARK    4  A    between atoms: S_4  and  C_7
REMARK    5  A    between atoms: C_11  and  N_12
REMARK    6  A    between atoms: C_16  and  C_17
REMARK    7  A    between atoms: C_17  and  C_18
REMARK                            x       y       z     vdW  Elec       q    Type
REMARK                         _______ _______ _______ _____ _____    ______ ____
ROOT
ATOM      1  N   UNL     1       0.707   9.673  19.578  0.00  0.00    +0.000 N 
ATOM      2  C   UNL     1       0.889   8.853  20.669  0.00  0.00    +0.000 C 
ATOM      3  O   UNL     1       0.362   8.879  21.770  0.00  0.00    +0.000 OA
ATOM      4  N   UNL     1       1.814   7.875  20.348  0.00  0.00    +0.000 N 
ATOM      5  C   UNL     1       2.476   8.140  19.108  0.00  0.00    +0.000 C 
ATOM      6  C   UNL     1       1.598   9.301  18.589  0.00  0.00    +0.000 C 
ATOM      7  O   UNL     1       1.766   9.824  17.490  0.00  0.00    +0.000 OA
ATOM      8  H   UNL     1       2.171   7.285  21.091  0.00  0.00    +0.000 HD
ENDROOT
BRANCH   1  13
ATOM      9  C   UNL     1      -2.509  11.517  18.906  0.00  0.00    +0.000 A 
ATOM     10  C   UNL     1      -2.246  12.757  19.481  0.00  0.00    +0.000 A 
ATOM     11  C   UNL     1      -0.997  12.993  20.044  0.00  0.00    +0.000 A 
ATOM     12  C   UNL     1      -0.029  11.981  20.056  0.00  0.00    +0.000 A 
ATOM     13  C   UNL     1      -0.266  10.717  19.484  0.00  0.00    +0.000 A 
ATOM     14  C   UNL     1      -1.522  10.510  18.880  0.00  0.00    +0.000 A 
BRANCH   9  15
ATOM     15  S   UNL     1      -4.195  11.140  18.448  0.00  0.00    +0.000 S 
ATOM     16  O   UNL     1      -5.050  11.803  19.414  0.00  0.00    +0.000 OA
ATOM     17  O   UNL     1      -4.300   9.708  18.232  0.00  0.00    +0.000 OA
BRANCH  15  19
ATOM     18  C   UNL     1      -4.036  11.097  15.763  0.00  0.00    +0.000 C 
ATOM     19  N   UNL     1      -4.417  11.915  16.937  0.00  0.00    +0.000 NA
ATOM     20  C   UNL     1      -5.787  12.467  16.777  0.00  0.00    +0.000 C 
ENDBRANCH  15  19
ENDBRANCH   9  15
ENDBRANCH   1  13
BRANCH   5  21
ATOM     21  C   UNL     1       2.518   6.988  18.097  0.00  0.00    +0.000 C 
BRANCH  21  22
ATOM     22  C   UNL     1       3.434   5.762  18.392  0.00  0.00    +0.000 C 
ATOM     23  C   UNL     1       4.691   5.764  17.504  0.00  0.00    +0.000 C 
ATOM     24  C   UNL     1       5.140   4.475  16.831  0.00  0.00    +0.000 C 
ATOM     25  C   UNL     1       4.229   3.260  16.883  0.00  0.00    +0.000 C 
ATOM     26  C   UNL     1       3.065   3.302  17.823  0.00  0.00    +0.000 A 
ATOM     27  C   UNL     1       2.323   2.115  17.980  0.00  0.00    +0.000 A 
ATOM     28  C   UNL     1       1.258   2.042  18.873  0.00  0.00    +0.000 A 
ATOM     29  C   UNL     1       0.936   3.153  19.639  0.00  0.00    +0.000 A 
ATOM     30  C   UNL     1       1.655   4.340  19.478  0.00  0.00    +0.000 A 
ATOM     31  C   UNL     1       2.702   4.447  18.539  0.00  0.00    +0.000 A 
ENDBRANCH  21  22
ENDBRANCH   5  21
TORSDOF 5
ENDMDL
MODEL 8
REMARK VINA RESULT:      -8.1      2.934      4.460
REMARK  Name = 
REMARK  7 active torsions:
REMARK  status: ('A' for Active; 'I' for Inactive)
REMARK    1  A    between atoms: C_1  and  N_2
REMARK    2  A    between atoms: N_2  and  C_3
REMARK    3  A    between atoms: N_2  and  S_4
REMARK    4  A    between atoms: S_4  and  C_7
REMARK    5  A    between atoms: C_11  and  N_12
REMARK    6  A    between atoms: C_16  and  C_17
REMARK    7  A    between atoms: C_17  and  C_18
REMARK                            x       y       z     vdW  Elec       q    Type
REMARK                         _______ _______ _______ _____ _____    ______ ____
ROOT
ATOM      1  N   UNL     1       1.212   9.231  19.692  0.00  0.00    +0.000 N 
ATOM      2  C   UNL     1       1.423   8.322  20.705  0.00  0.00    +0.000 C 
ATOM      3  O   UNL     1       1.085   8.358  21.877  0.00  0.00    +0.000 OA
ATOM      4  N   UNL     1       2.115   7.236  20.199  0.00  0.00    +0.000 N 
ATOM      5  C   UNL     1       2.611   7.476  18.879  0.00  0.00    +0.000 C 
ATOM      6  C   UNL     1       1.866   8.790  18.556  0.00  0.00    +0.000 C 
ATOM      7  O   UNL     1       1.945   9.352  17.467  0.00  0.00    +0.000 OA
ATOM      8  H   UNL     1       2.480   6.551  20.849  0.00  0.00    +0.000 HD
ENDROOT
BRANCH   1  13
ATOM      9  C   UNL     1       0.169  12.786  20.376  0.00  0.00    +0.000 A 
ATOM     10  C   UNL     1      -1.111  12.813  19.829  0.00  0.00    +0.000 A 
ATOM     11  C   UNL     1      -1.639  11.650  19.280  0.00  0.00    +0.000 A 
ATOM     12  C   UNL     1      -0.877  10.475  19.255  0.00  0.00    +0.000 A 
ATOM     13  C   UNL     1       0.420  10.418  19.800  0.00  0.00    +0.000 A 
ATOM     14  C   UNL     1       0.923  11.595  20.389  0.00  0.00    +0.000 A 
BRANCH   9  15
ATOM     15  S   UNL     1       0.932  14.342  20.813  0.00  0.00    +0.000 S 
ATOM     16  O   UNL     1       1.551  14.859  19.607  0.00  0.00    +0.000 OA
ATOM     17  O   UNL     1       1.720  14.141  22.016  0.00  0.00    +0.000 OA
BRANCH  15  19
ATOM     18  C   UNL     1      -0.657  15.482  22.659  0.00  0.00    +0.000 C 
ATOM     19  N   UNL     1      -0.378  15.370  21.210  0.00  0.00    +0.000 NA
ATOM     20  C   UNL     1      -0.254  16.715  20.588  0.00  0.00    +0.000 C 
ENDBRANCH  15  19
ENDBRANCH   9  15
ENDBRANCH   1  13
BRANCH   5  21
ATOM     21  C   UNL     1       2.307   6.400  17.829  0.00  0.00    +0.000 C 
BRANCH  21  22
ATOM     22  C   UNL     1       3.338   5.252  17.608  0.00  0.00    +0.000 C 
ATOM     23  C   UNL     1       2.882   3.941  18.272  0.00  0.00    +0.000 C 
ATOM     24  C   UNL     1       3.878   3.118  19.076  0.00  0.00    +0.000 C 
ATOM     25  C   UNL     1       5.246   3.706  19.377  0.00  0.00    +0.000 C 
ATOM     26  C   UNL     1       5.650   4.944  18.640  0.00  0.00    +0.000 A 
ATOM     27  C   UNL     1       6.977   5.387  18.807  0.00  0.00    +0.000 A 
ATOM     28  C   UNL     1       7.460   6.497  18.120  0.00  0.00    +0.000 A 
ATOM     29  C   UNL     1       6.625   7.164  17.236  0.00  0.00    +0.000 A 
ATOM     30  C   UNL     1       5.303   6.743  17.077  0.00  0.00    +0.000 A 
ATOM     31  C   UNL     1       4.782   5.654  17.805  0.00  0.00    +0.000 A 
ENDBRANCH  21  22
ENDBRANCH   5  21
TORSDOF 5
ENDMDL
MODEL 9
REMARK VINA RESULT:      -8.1      1.831      2.920
REMARK  Name = 
REMARK  7 active torsions:
REMARK  status: ('A' for Active; 'I' for Inactive)
REMARK    1  A    between atoms: C_1  and  N_2
REMARK    2  A    between atoms: N_2  and  C_3
REMARK    3  A    between atoms: N_2  and  S_4
REMARK    4  A    between atoms: S_4  and  C_7
REMARK    5  A    between atoms: C_11  and  N_12
REMARK    6  A    between atoms: C_16  and  C_17
REMARK    7  A    between atoms: C_17  and  C_18
REMARK                            x       y       z     vdW  Elec       q    Type
REMARK                         _______ _______ _______ _____ _____    ______ ____
ROOT
ATOM      1  N   UNL     1       1.391   8.906  19.094  0.00  0.00    +0.000 N 
ATOM      2  C   UNL     1       1.444   8.163  20.253  0.00  0.00    +0.000 C 
ATOM      3  O   UNL     1       0.826   8.292  21.299  0.00  0.00    +0.000 OA
ATOM      4  N   UNL     1       2.349   7.130  20.086  0.00  0.00    +0.000 N 
ATOM      5  C   UNL     1       3.125   7.277  18.893  0.00  0.00    +0.000 C 
ATOM      6  C   UNL     1       2.346   8.427  18.217  0.00  0.00    +0.000 C 
ATOM      7  O   UNL     1       2.630   8.860  17.102  0.00  0.00    +0.000 OA
ATOM      8  H   UNL     1       2.615   6.585  20.898  0.00  0.00    +0.000 HD
ENDROOT
BRANCH   1  13
ATOM      9  C   UNL     1      -1.555  10.861  17.794  0.00  0.00    +0.000 A 
ATOM     10  C   UNL     1      -1.433  12.055  18.500  0.00  0.00    +0.000 A 
ATOM     11  C   UNL     1      -0.357  12.225  19.364  0.00  0.00    +0.000 A 
ATOM     12  C   UNL     1       0.574  11.193  19.539  0.00  0.00    +0.000 A 
ATOM     13  C   UNL     1       0.476   9.976  18.840  0.00  0.00    +0.000 A 
ATOM     14  C   UNL     1      -0.597   9.836  17.937  0.00  0.00    +0.000 A 
BRANCH   9  15
ATOM     15  S   UNL     1      -3.081  10.553  16.916  0.00  0.00    +0.000 S 
ATOM     16  O   UNL     1      -3.440   9.171  17.171  0.00  0.00    +0.000 OA
ATOM     17  O   UNL     1      -2.930  11.035  15.556  0.00  0.00    +0.000 OA
BRANCH  15  19
ATOM     18  C   UNL     1      -5.185  12.224  16.786  0.00  0.00    +0.000 C 
ATOM     19  N   UNL     1      -4.238  11.545  17.698  0.00  0.00    +0.000 NA
ATOM     20  C   UNL     1      -4.964  10.828  18.779  0.00  0.00    +0.000 C 
ENDBRANCH  15  19
ENDBRANCH   9  15
ENDBRANCH   1  13
BRANCH   5  21
ATOM     21  C   UNL     1       3.202   6.051  17.975  0.00  0.00    +0.000 C 
BRANCH  21  22
ATOM     22  C   UNL     1       4.418   5.085  18.111  0.00  0.00    +0.000 C 
ATOM     23  C   UNL     1       5.204   5.338  19.409  0.00  0.00    +0.000 C 
ATOM     24  C   UNL     1       6.725   5.389  19.371  0.00  0.00    +0.000 C 
ATOM     25  C   UNL     1       7.428   5.392  18.024  0.00  0.00    +0.000 C 
ATOM     26  C   UNL     1       6.614   5.067  16.812  0.00  0.00    +0.000 A 
ATOM     27  C   UNL     1       7.306   4.917  15.594  0.00  0.00    +0.000 A 
ATOM     28  C   UNL     1       6.641   4.561  14.424  0.00  0.00    +0.000 A 
ATOM     29  C   UNL     1       5.274   4.328  14.464  0.00  0.00    +0.000 A 
ATOM     30  C   UNL     1       4.576   4.492  15.663  0.00  0.00    +0.000 A 
ATOM     31  C   UNL     1       5.225   4.904  16.845  0.00  0.00    +0.000 A 
ENDBRANCH  21  22
ENDBRANCH   5  21
TORSDOF 5
ENDMDL
