MODEL 1
REMARK VINA RESULT:      -8.4      0.000      0.000
REMARK  Name = 
REMARK  6 active torsions:
REMARK  status: ('A' for Active; 'I' for Inactive)
REMARK    1  A    between atoms: C_2  and  C_18
REMARK    2  A    between atoms: N_3  and  C_4
REMARK    3  A    between atoms: C_4  and  C_5
REMARK    4  A    between atoms: C_4  and  C_12
REMARK    5  A    between atoms: C_20  and  C_21
REMARK    6  A    between atoms: C_24  and  C_25
REMARK                            x       y       z     vdW  Elec       q    Type
REMARK                         _______ _______ _______ _____ _____    ______ ____
ROOT
ATOM      1  O   UNL     1       4.885   7.702  17.289  0.00  0.00    +0.000 OA
ATOM      2  C   UNL     1       5.110   6.642  17.861  0.00  0.00    +0.000 C 
ATOM      3  N   UNL     1       4.124   5.765  18.255  0.00  0.00    +0.000 N 
ATOM      4  H   UNL     1       4.343   4.866  18.658  0.00  0.00    +0.000 HD
ENDROOT
BRANCH   2   5
ATOM      5  C   UNL     1       6.501   6.225  18.205  0.00  0.00    +0.000 C 
ATOM      6  C   UNL     1       7.657   6.853  17.464  0.00  0.00    +0.000 C 
ATOM      7  C   UNL     1       7.386   5.378  17.302  0.00  0.00    +0.000 C 
BRANCH   7   8
ATOM      8  C   UNL     1       6.986   4.858  15.941  0.00  0.00    +0.000 A 
ATOM      9  C   UNL     1       5.983   3.879  15.807  0.00  0.00    +0.000 A 
ATOM     10  C   UNL     1       5.622   3.359  14.558  0.00  0.00    +0.000 A 
ATOM     11  C   UNL     1       6.263   3.803  13.395  0.00  0.00    +0.000 A 
ATOM     12  C   UNL     1       7.214   4.825  13.507  0.00  0.00    +0.000 A 
ATOM     13  C   UNL     1       7.559   5.346  14.759  0.00  0.00    +0.000 A 
BRANCH  11  14
ATOM     14  C   UNL     1       5.969   3.191  12.050  0.00  0.00    +0.000 C 
ATOM     15  F   UNL     1       6.926   3.442  11.112  0.00  0.00    +0.000 F 
ATOM     16  F   UNL     1       5.845   1.836  12.102  0.00  0.00    +0.000 F 
ATOM     17  F   UNL     1       4.801   3.650  11.516  0.00  0.00    +0.000 F 
ENDBRANCH  11  14
ENDBRANCH   7   8
ENDBRANCH   2   5
BRANCH   3  18
ATOM     18  C   UNL     1       2.722   6.051  17.975  0.00  0.00    +0.000 C 
BRANCH  18  19
ATOM     19  C   UNL     1       1.865   4.753  17.975  0.00  0.00    +0.000 C 
ATOM     20  O   UNL     1       0.845   4.667  17.280  0.00  0.00    +0.000 OA
ATOM     21  N   UNL     1       2.362   3.656  18.655  0.00  0.00    +0.000 N 
ATOM     22  C   UNL     1       3.337   3.623  19.731  0.00  0.00    +0.000 C 
ATOM     23  C   UNL     1       4.120   2.364  19.423  0.00  0.00    +0.000 C 
ATOM     24  C   UNL     1       3.042   1.404  18.925  0.00  0.00    +0.000 C 
ATOM     25  C   UNL     1       1.974   2.303  18.294  0.00  0.00    +0.000 C 
ENDBRANCH  18  19
BRANCH  18  26
ATOM     26  C   UNL     1       2.158   7.090  18.949  0.00  0.00    +0.000 A 
ATOM     27  C   UNL     1       1.831   8.368  18.473  0.00  0.00    +0.000 A 
ATOM     28  C   UNL     1       1.224   9.312  19.305  0.00  0.00    +0.000 A 
ATOM     29  C   UNL     1       0.946   8.998  20.635  0.00  0.00    +0.000 A 
ATOM     30  C   UNL     1       1.307   7.756  21.140  0.00  0.00    +0.000 A 
ATOM     31  C   UNL     1       1.924   6.813  20.309  0.00  0.00    +0.000 A 
ENDBRANCH  18  26
ENDBRANCH   3  18
TORSDOF 6
ENDMDL
MODEL 2
REMARK VINA RESULT:      -8.3      0.225      1.394
REMARK  Name = 
REMARK  6 active torsions:
REMARK  status: ('A' for Active; 'I' for Inactive)
REMARK    1  A    between atoms: C_2  and  C_18
REMARK    2  A    between atoms: N_3  and  C_4
REMARK    3  A    between atoms: C_4  and  C_5
REMARK    4  A    between atoms: C_4  and  C_12
REMARK    5  A    between atoms: C_20  and  C_21
REMARK    6  A    between atoms: C_24  and  C_25
REMARK                            x       y       z     vdW  Elec       q    Type
REMARK                         _______ _______ _______ _____ _____    ______ ____
ROOT
ATOM      1  O   UNL     1       4.788   7.763  17.311  0.00  0.00    +0.000 OA
ATOM      2  C   UNL     1       5.052   6.700  17.859  0.00  0.00    +0.000 C 
ATOM      3  N   UNL     1       4.100   5.767  18.208  0.00  0.00    +0.000 N 
ATOM      4  H   UNL     1       4.354   4.868  18.592  0.00  0.00    +0.000 HD
ENDROOT
BRANCH   2   5
ATOM      5  C   UNL     1       6.453   6.340  18.223  0.00  0.00    +0.000 C 
ATOM      6  C   UNL     1       7.592   6.963  17.452  0.00  0.00    +0.000 C 
ATOM      7  C   UNL     1       7.363   5.474  17.364  0.00  0.00    +0.000 C 
BRANCH   7   8
ATOM      8  C   UNL     1       6.980   4.876  16.030  0.00  0.00    +0.000 A 
ATOM      9  C   UNL     1       7.592   5.311  14.840  0.00  0.00    +0.000 A 
ATOM     10  C   UNL     1       7.227   4.796  13.590  0.00  0.00    +0.000 A 
ATOM     11  C   UNL     1       6.225   3.823  13.493  0.00  0.00    +0.000 A 
ATOM     12  C   UNL     1       5.655   3.332  14.675  0.00  0.00    +0.000 A 
ATOM     13  C   UNL     1       6.036   3.847  15.919  0.00  0.00    +0.000 A 
BRANCH  11  14
ATOM     14  C   UNL     1       5.739   3.322  12.157  0.00  0.00    +0.000 C 
ATOM     15  F   UNL     1       5.928   1.985  11.971  0.00  0.00    +0.000 F 
ATOM     16  F   UNL     1       4.409   3.539  11.964  0.00  0.00    +0.000 F 
ATOM     17  F   UNL     1       6.370   3.932  11.114  0.00  0.00    +0.000 F 
ENDBRANCH  11  14
ENDBRANCH   7   8
ENDBRANCH   2   5
BRANCH   3  18
ATOM     18  C   UNL     1       2.692   5.994  17.904  0.00  0.00    +0.000 C 
BRANCH  18  19
ATOM     19  C   UNL     1       1.887   4.663  17.910  0.00  0.00    +0.000 C 
ATOM     20  O   UNL     1       0.858   4.542  17.234  0.00  0.00    +0.000 OA
ATOM     21  N   UNL     1       2.440   3.582  18.573  0.00  0.00    +0.000 N 
ATOM     22  C   UNL     1       3.435   3.580  19.630  0.00  0.00    +0.000 C 
ATOM     23  C   UNL     1       4.261   2.355  19.298  0.00  0.00    +0.000 C 
ATOM     24  C   UNL     1       3.212   1.357  18.813  0.00  0.00    +0.000 C 
ATOM     25  C   UNL     1       2.098   2.218  18.209  0.00  0.00    +0.000 C 
ENDBRANCH  18  19
BRANCH  18  26
ATOM     26  C   UNL     1       2.074   7.023  18.856  0.00  0.00    +0.000 A 
ATOM     27  C   UNL     1       1.906   6.691  20.208  0.00  0.00    +0.000 A 
ATOM     28  C   UNL     1       1.438   7.633  21.127  0.00  0.00    +0.000 A 
ATOM     29  C   UNL     1       1.116   8.923  20.706  0.00  0.00    +0.000 A 
ATOM     30  C   UNL     1       1.227   9.257  19.363  0.00  0.00    +0.000 A 
ATOM     31  C   UNL     1       1.688   8.311  18.440  0.00  0.00    +0.000 A 
ENDBRANCH  18  26
ENDBRANCH   3  18
TORSDOF 6
ENDMDL
MODEL 3
REMARK VINA RESULT:      -8.3      0.990      1.345
REMARK  Name = 
REMARK  6 active torsions:
REMARK  status: ('A' for Active; 'I' for Inactive)
REMARK    1  A    between atoms: C_2  and  C_18
REMARK    2  A    between atoms: N_3  and  C_4
REMARK    3  A    between atoms: C_4  and  C_5
REMARK    4  A    between atoms: C_4  and  C_12
REMARK    5  A    between atoms: C_20  and  C_21
REMARK    6  A    between atoms: C_24  and  C_25
REMARK                            x       y       z     vdW  Elec       q    Type
REMARK                         _______ _______ _______ _____ _____    ______ ____
ROOT
ATOM      1  O   UNL     1       4.850   7.419  17.341  0.00  0.00    +0.000 OA
ATOM      2  C   UNL     1       4.939   6.399  18.014  0.00  0.00    +0.000 C 
ATOM      3  N   UNL     1       3.853   5.648  18.405  0.00  0.00    +0.000 N 
ATOM      4  H   UNL     1       3.963   4.773  18.897  0.00  0.00    +0.000 HD
ENDROOT
BRANCH   2   5
ATOM      5  C   UNL     1       6.260   5.898  18.492  0.00  0.00    +0.000 C 
ATOM      6  C   UNL     1       7.521   6.502  17.923  0.00  0.00    +0.000 C 
ATOM      7  C   UNL     1       7.207   5.050  17.655  0.00  0.00    +0.000 C 
BRANCH   7   8
ATOM      8  C   UNL     1       6.946   4.614  16.231  0.00  0.00    +0.000 A 
ATOM      9  C   UNL     1       7.650   5.192  15.158  0.00  0.00    +0.000 A 
ATOM     10  C   UNL     1       7.399   4.827  13.829  0.00  0.00    +0.000 A 
ATOM     11  C   UNL     1       6.423   3.869  13.532  0.00  0.00    +0.000 A 
ATOM     12  C   UNL     1       5.763   3.237  14.594  0.00  0.00    +0.000 A 
ATOM     13  C   UNL     1       6.030   3.601  15.919  0.00  0.00    +0.000 A 
BRANCH  11  14
ATOM     14  C   UNL     1       6.059   3.528  12.110  0.00  0.00    +0.000 C 
ATOM     15  F   UNL     1       6.730   4.266  11.180  0.00  0.00    +0.000 F 
ATOM     16  F   UNL     1       6.305   2.226  11.799  0.00  0.00    +0.000 F 
ATOM     17  F   UNL     1       4.735   3.727  11.852  0.00  0.00    +0.000 F 
ENDBRANCH  11  14
ENDBRANCH   7   8
ENDBRANCH   2   5
BRANCH   3  18
ATOM     18  C   UNL     1       2.504   6.026  18.000  0.00  0.00    +0.000 C 
BRANCH  18  19
ATOM     19  C   UNL     1       1.500   4.856  18.203  0.00  0.00    +0.000 C 
ATOM     20  O   UNL     1       0.858   4.399  17.250  0.00  0.00    +0.000 OA
ATOM     21  N   UNL     1       1.462   4.252  19.447  0.00  0.00    +0.000 N 
ATOM     22  C   UNL     1       1.885   4.789  20.728  0.00  0.00    +0.000 C 
ATOM     23  C   UNL     1       2.478   3.575  21.412  0.00  0.00    +0.000 C 
ATOM     24  C   UNL     1       1.543   2.448  20.979  0.00  0.00    +0.000 C 
ATOM     25  C   UNL     1       1.014   2.879  19.607  0.00  0.00    +0.000 C 
ENDBRANCH  18  19
BRANCH  18  26
ATOM     26  C   UNL     1       2.037   7.293  18.724  0.00  0.00    +0.000 A 
ATOM     27  C   UNL     1       1.615   8.397  17.968  0.00  0.00    +0.000 A 
ATOM     28  C   UNL     1       1.090   9.533  18.588  0.00  0.00    +0.000 A 
ATOM     29  C   UNL     1       0.992   9.592  19.977  0.00  0.00    +0.000 A 
ATOM     30  C   UNL     1       1.450   8.531  20.746  0.00  0.00    +0.000 A 
ATOM     31  C   UNL     1       1.985   7.394  20.126  0.00  0.00    +0.000 A 
ENDBRANCH  18  26
ENDBRANCH   3  18
TORSDOF 6
ENDMDL
MODEL 4
REMARK VINA RESULT:      -8.3      1.021      1.636
REMARK  Name = 
REMARK  6 active torsions:
REMARK  status: ('A' for Active; 'I' for Inactive)
REMARK    1  A    between atoms: C_2  and  C_18
REMARK    2  A    between atoms: N_3  and  C_4
REMARK    3  A    between atoms: C_4  and  C_5
REMARK    4  A    between atoms: C_4  and  C_12
REMARK    5  A    between atoms: C_20  and  C_21
REMARK    6  A    between atoms: C_24  and  C_25
REMARK                            x       y       z     vdW  Elec       q    Type
REMARK                         _______ _______ _______ _____ _____    ______ ____
ROOT
ATOM      1  O   UNL     1       4.431   6.807  16.866  0.00  0.00    +0.000 OA
ATOM      2  C   UNL     1       4.858   6.458  17.960  0.00  0.00    +0.000 C 
ATOM      3  N   UNL     1       4.048   6.169  19.037  0.00  0.00    +0.000 N 
ATOM      4  H   UNL     1       4.425   5.813  19.903  0.00  0.00    +0.000 HD
ENDROOT
BRANCH   2   5
ATOM      5  C   UNL     1       6.322   6.342  18.221  0.00  0.00    +0.000 C 
ATOM      6  C   UNL     1       7.281   7.154  17.383  0.00  0.00    +0.000 C 
ATOM      7  C   UNL     1       7.304   5.648  17.287  0.00  0.00    +0.000 C 
BRANCH   7   8
ATOM      8  C   UNL     1       6.935   4.998  15.974  0.00  0.00    +0.000 A 
ATOM      9  C   UNL     1       7.519   5.424  14.767  0.00  0.00    +0.000 A 
ATOM     10  C   UNL     1       7.165   4.859  13.535  0.00  0.00    +0.000 A 
ATOM     11  C   UNL     1       6.204   3.844  13.474  0.00  0.00    +0.000 A 
ATOM     12  C   UNL     1       5.665   3.363  14.674  0.00  0.00    +0.000 A 
ATOM     13  C   UNL     1       6.034   3.927  15.900  0.00  0.00    +0.000 A 
BRANCH  11  14
ATOM     14  C   UNL     1       5.728   3.286  12.157  0.00  0.00    +0.000 C 
ATOM     15  F   UNL     1       4.405   3.507  11.913  0.00  0.00    +0.000 F 
ATOM     16  F   UNL     1       6.395   3.808  11.091  0.00  0.00    +0.000 F 
ATOM     17  F   UNL     1       5.897   1.936  12.075  0.00  0.00    +0.000 F 
ENDBRANCH  11  14
ENDBRANCH   7   8
ENDBRANCH   2   5
BRANCH   3  18
ATOM     18  C   UNL     1       2.597   6.239  18.913  0.00  0.00    +0.000 C 
BRANCH  18  19
ATOM     19  C   UNL     1       1.900   5.141  19.765  0.00  0.00    +0.000 C 
ATOM     20  O   UNL     1       1.122   5.445  20.678  0.00  0.00    +0.000 OA
ATOM     21  N   UNL     1       2.061   3.825  19.371  0.00  0.00    +0.000 N 
ATOM     22  C   UNL     1       3.115   3.247  18.556  0.00  0.00    +0.000 C 
ATOM     23  C   UNL     1       2.367   2.212  17.741  0.00  0.00    +0.000 C 
ATOM     24  C   UNL     1       1.357   1.653  18.741  0.00  0.00    +0.000 C 
ATOM     25  C   UNL     1       1.079   2.809  19.708  0.00  0.00    +0.000 C 
ENDBRANCH  18  19
BRANCH  18  26
ATOM     26  C   UNL     1       2.073   7.634  19.267  0.00  0.00    +0.000 A 
ATOM     27  C   UNL     1       1.912   8.584  18.247  0.00  0.00    +0.000 A 
ATOM     28  C   UNL     1       1.346   9.833  18.510  0.00  0.00    +0.000 A 
ATOM     29  C   UNL     1       0.941  10.160  19.804  0.00  0.00    +0.000 A 
ATOM     30  C   UNL     1       1.137   9.254  20.837  0.00  0.00    +0.000 A 
ATOM     31  C   UNL     1       1.713   8.005  20.576  0.00  0.00    +0.000 A 
ENDBRANCH  18  26
ENDBRANCH   3  18
TORSDOF 6
ENDMDL
MODEL 5
REMARK VINA RESULT:      -8.3      4.421      8.007
REMARK  Name = 
REMARK  6 active torsions:
REMARK  status: ('A' for Active; 'I' for Inactive)
REMARK    1  A    between atoms: C_2  and  C_18
REMARK    2  A    between atoms: N_3  and  C_4
REMARK    3  A    between atoms: C_4  and  C_5
REMARK    4  A    between atoms: C_4  and  C_12
REMARK    5  A    between atoms: C_20  and  C_21
REMARK    6  A    between atoms: C_24  and  C_25
REMARK                            x       y       z     vdW  Elec       q    Type
REMARK                         _______ _______ _______ _____ _____    ______ ____
ROOT
ATOM      1  O   UNL     1       1.647   8.641  18.401  0.00  0.00    +0.000 OA
ATOM      2  C   UNL     1       1.885   8.296  19.552  0.00  0.00    +0.000 C 
ATOM      3  N   UNL     1       2.473   7.094  19.881  0.00  0.00    +0.000 N 
ATOM      4  H   UNL     1       2.724   6.870  20.832  0.00  0.00    +0.000 HD
ENDROOT
BRANCH   2   5
ATOM      5  C   UNL     1       1.523   9.162  20.712  0.00  0.00    +0.000 C 
ATOM      6  C   UNL     1       0.268   8.853  21.492  0.00  0.00    +0.000 C 
ATOM      7  C   UNL     1       0.360  10.144  20.715  0.00  0.00    +0.000 C 
BRANCH   7   8
ATOM      8  C   UNL     1      -0.587  10.364  19.559  0.00  0.00    +0.000 A 
ATOM      9  C   UNL     1      -1.564   9.405  19.231  0.00  0.00    +0.000 A 
ATOM     10  C   UNL     1      -2.428   9.574  18.142  0.00  0.00    +0.000 A 
ATOM     11  C   UNL     1      -2.337  10.717  17.339  0.00  0.00    +0.000 A 
ATOM     12  C   UNL     1      -1.416  11.710  17.694  0.00  0.00    +0.000 A 
ATOM     13  C   UNL     1      -0.565  11.536  18.791  0.00  0.00    +0.000 A 
BRANCH  11  14
ATOM     14  C   UNL     1      -3.183  10.881  16.102  0.00  0.00    +0.000 C 
ATOM     15  F   UNL     1      -2.484  11.301  15.011  0.00  0.00    +0.000 F 
ATOM     16  F   UNL     1      -3.800   9.726  15.727  0.00  0.00    +0.000 F 
ATOM     17  F   UNL     1      -4.181  11.795  16.275  0.00  0.00    +0.000 F 
ENDBRANCH  11  14
ENDBRANCH   7   8
ENDBRANCH   2   5
BRANCH   3  18
ATOM     18  C   UNL     1       2.879   6.158  18.840  0.00  0.00    +0.000 C 
BRANCH  18  19
ATOM     19  C   UNL     1       4.413   5.902  18.872  0.00  0.00    +0.000 C 
ATOM     20  O   UNL     1       4.959   5.451  19.887  0.00  0.00    +0.000 OA
ATOM     21  N   UNL     1       5.113   6.051  17.689  0.00  0.00    +0.000 N 
ATOM     22  C   UNL     1       4.750   6.820  16.512  0.00  0.00    +0.000 C 
ATOM     23  C   UNL     1       5.256   5.948  15.383  0.00  0.00    +0.000 C 
ATOM     24  C   UNL     1       6.567   5.395  15.938  0.00  0.00    +0.000 C 
ATOM     25  C   UNL     1       6.362   5.346  17.456  0.00  0.00    +0.000 C 
ENDBRANCH  18  19
BRANCH  18  26
ATOM     26  C   UNL     1       2.094   4.847  18.930  0.00  0.00    +0.000 A 
ATOM     27  C   UNL     1       2.147   3.942  17.859  0.00  0.00    +0.000 A 
ATOM     28  C   UNL     1       1.526   2.694  17.941  0.00  0.00    +0.000 A 
ATOM     29  C   UNL     1       0.827   2.333  19.092  0.00  0.00    +0.000 A 
ATOM     30  C   UNL     1       0.719   3.233  20.144  0.00  0.00    +0.000 A 
ATOM     31  C   UNL     1       1.335   4.488  20.059  0.00  0.00    +0.000 A 
ENDBRANCH  18  26
ENDBRANCH   3  18
TORSDOF 6
ENDMDL
MODEL 6
REMARK VINA RESULT:      -8.2      0.888      1.161
REMARK  Name = 
REMARK  6 active torsions:
REMARK  status: ('A' for Active; 'I' for Inactive)
REMARK    1  A    between atoms: C_2  and  C_18
REMARK    2  A    between atoms: N_3  and  C_4
REMARK    3  A    between atoms: C_4  and  C_5
REMARK    4  A    between atoms: C_4  and  C_12
REMARK    5  A    between atoms: C_20  and  C_21
REMARK    6  A    between atoms: C_24  and  C_25
REMARK                            x       y       z     vdW  Elec       q    Type
REMARK                         _______ _______ _______ _____ _____    ______ ____
ROOT
ATOM      1  O   UNL     1       4.938   7.445  17.566  0.00  0.00    +0.000 OA
ATOM      2  C   UNL     1       5.007   6.329  18.068  0.00  0.00    +0.000 C 
ATOM      3  N   UNL     1       3.911   5.521  18.282  0.00  0.00    +0.000 N 
ATOM      4  H   UNL     1       4.008   4.579  18.629  0.00  0.00    +0.000 HD
ENDROOT
BRANCH   2   5
ATOM      5  C   UNL     1       6.310   5.761  18.520  0.00  0.00    +0.000 C 
ATOM      6  C   UNL     1       7.592   6.373  18.009  0.00  0.00    +0.000 C 
ATOM      7  C   UNL     1       7.244   4.954  17.630  0.00  0.00    +0.000 C 
BRANCH   7   8
ATOM      8  C   UNL     1       6.989   4.633  16.175  0.00  0.00    +0.000 A 
ATOM      9  C   UNL     1       6.029   3.673  15.805  0.00  0.00    +0.000 A 
ATOM     10  C   UNL     1       5.802   3.335  14.465  0.00  0.00    +0.000 A 
ATOM     11  C   UNL     1       6.538   3.951  13.446  0.00  0.00    +0.000 A 
ATOM     12  C   UNL     1       7.448   4.957  13.796  0.00  0.00    +0.000 A 
ATOM     13  C   UNL     1       7.659   5.294  15.138  0.00  0.00    +0.000 A 
BRANCH  11  14
ATOM     14  C   UNL     1       6.389   3.538  12.005  0.00  0.00    +0.000 C 
ATOM     15  F   UNL     1       5.095   3.489  11.579  0.00  0.00    +0.000 F 
ATOM     16  F   UNL     1       7.031   4.377  11.146  0.00  0.00    +0.000 F 
ATOM     17  F   UNL     1       6.903   2.298  11.765  0.00  0.00    +0.000 F 
ENDBRANCH  11  14
ENDBRANCH   7   8
ENDBRANCH   2   5
BRANCH   3  18
ATOM     18  C   UNL     1       2.579   5.957  17.881  0.00  0.00    +0.000 C 
BRANCH  18  19
ATOM     19  C   UNL     1       1.539   4.810  18.021  0.00  0.00    +0.000 C 
ATOM     20  O   UNL     1       0.830   4.476  17.064  0.00  0.00    +0.000 OA
ATOM     21  N   UNL     1       1.541   4.083  19.198  0.00  0.00    +0.000 N 
ATOM     22  C   UNL     1       2.052   4.470  20.501  0.00  0.00    +0.000 C 
ATOM     23  C   UNL     1       2.628   3.172  21.025  0.00  0.00    +0.000 C 
ATOM     24  C   UNL     1       1.626   2.129  20.534  0.00  0.00    +0.000 C 
ATOM     25  C   UNL     1       1.045   2.717  19.244  0.00  0.00    +0.000 C 
ENDBRANCH  18  19
BRANCH  18  26
ATOM     26  C   UNL     1       2.141   7.203  18.656  0.00  0.00    +0.000 A 
ATOM     27  C   UNL     1       1.774   8.357  17.948  0.00  0.00    +0.000 A 
ATOM     28  C   UNL     1       1.276   9.480  18.612  0.00  0.00    +0.000 A 
ATOM     29  C   UNL     1       1.150   9.475  20.000  0.00  0.00    +0.000 A 
ATOM     30  C   UNL     1       1.554   8.362  20.725  0.00  0.00    +0.000 A 
ATOM     31  C   UNL     1       2.062   7.239  20.061  0.00  0.00    +0.000 A 
ENDBRANCH  18  26
ENDBRANCH   3  18
TORSDOF 6
ENDMDL
MODEL 7
REMARK VINA RESULT:      -8.2      4.526      8.152
REMARK  Name = 
REMARK  6 active torsions:
REMARK  status: ('A' for Active; 'I' for Inactive)
REMARK    1  A    between atoms: C_2  and  C_18
REMARK    2  A    between atoms: N_3  and  C_4
REMARK    3  A    between atoms: C_4  and  C_5
REMARK    4  A    between atoms: C_4  and  C_12
REMARK    5  A    between atoms: C_20  and  C_21
REMARK    6  A    between atoms: C_24  and  C_25
REMARK                            x       y       z     vdW  Elec       q    Type
REMARK                         _______ _______ _______ _____ _____    ______ ____
ROOT
ATOM      1  O   UNL     1       1.586   8.507  18.358  0.00  0.00    +0.000 OA
ATOM      2  C   UNL     1       1.895   8.202  19.504  0.00  0.00    +0.000 C 
ATOM      3  N   UNL     1       2.564   7.042  19.829  0.00  0.00    +0.000 N 
ATOM      4  H   UNL     1       2.870   6.853  20.772  0.00  0.00    +0.000 HD
ENDROOT
BRANCH   2   5
ATOM      5  C   UNL     1       1.537   9.072  20.662  0.00  0.00    +0.000 C 
ATOM      6  C   UNL     1       0.278   8.773  21.440  0.00  0.00    +0.000 C 
ATOM      7  C   UNL     1       0.382  10.062  20.662  0.00  0.00    +0.000 C 
BRANCH   7   8
ATOM      8  C   UNL     1      -0.562  10.289  19.503  0.00  0.00    +0.000 A 
ATOM      9  C   UNL     1      -0.438  11.425  18.682  0.00  0.00    +0.000 A 
ATOM     10  C   UNL     1      -1.323  11.672  17.625  0.00  0.00    +0.000 A 
ATOM     11  C   UNL     1      -2.371  10.783  17.359  0.00  0.00    +0.000 A 
ATOM     12  C   UNL     1      -2.464   9.614  18.125  0.00  0.00    +0.000 A 
ATOM     13  C   UNL     1      -1.568   9.372  19.171  0.00  0.00    +0.000 A 
BRANCH  11  14
ATOM     14  C   UNL     1      -3.399  11.071  16.295  0.00  0.00    +0.000 C 
ATOM     15  F   UNL     1      -4.145   9.985  15.945  0.00  0.00    +0.000 F 
ATOM     16  F   UNL     1      -4.290  12.030  16.668  0.00  0.00    +0.000 F 
ATOM     17  F   UNL     1      -2.835  11.519  15.137  0.00  0.00    +0.000 F 
ENDBRANCH  11  14
ENDBRANCH   7   8
ENDBRANCH   2   5
BRANCH   3  18
ATOM     18  C   UNL     1       2.976   6.107  18.789  0.00  0.00    +0.000 C 
BRANCH  18  19
ATOM     19  C   UNL     1       4.510   5.854  18.825  0.00  0.00    +0.000 C 
ATOM     20  O   UNL     1       5.057   5.422  19.848  0.00  0.00    +0.000 OA
ATOM     21  N   UNL     1       5.210   5.984  17.639  0.00  0.00    +0.000 N 
ATOM     22  C   UNL     1       4.845   6.732  16.450  0.00  0.00    +0.000 C 
ATOM     23  C   UNL     1       5.353   5.842  15.335  0.00  0.00    +0.000 C 
ATOM     24  C   UNL     1       6.665   5.301  15.900  0.00  0.00    +0.000 C 
ATOM     25  C   UNL     1       6.460   5.277  17.418  0.00  0.00    +0.000 C 
ENDBRANCH  18  19
BRANCH  18  26
ATOM     26  C   UNL     1       2.193   4.794  18.876  0.00  0.00    +0.000 A 
ATOM     27  C   UNL     1       2.325   3.849  17.847  0.00  0.00    +0.000 A 
ATOM     28  C   UNL     1       1.706   2.600  17.935  0.00  0.00    +0.000 A 
ATOM     29  C   UNL     1       0.931   2.279  19.049  0.00  0.00    +0.000 A 
ATOM     30  C   UNL     1       0.746   3.218  20.054  0.00  0.00    +0.000 A 
ATOM     31  C   UNL     1       1.359   4.474  19.963  0.00  0.00    +0.000 A 
ENDBRANCH  18  26
ENDBRANCH   3  18
TORSDOF 6
ENDMDL
MODEL 8
REMARK VINA RESULT:      -8.1      4.379      8.011
REMARK  Name = 
REMARK  6 active torsions:
REMARK  status: ('A' for Active; 'I' for Inactive)
REMARK    1  A    between atoms: C_2  and  C_18
REMARK    2  A    between atoms: N_3  and  C_4
REMARK    3  A    between atoms: C_4  and  C_5
REMARK    4  A    between atoms: C_4  and  C_12
REMARK    5  A    between atoms: C_20  and  C_21
REMARK    6  A    between atoms: C_24  and  C_25
REMARK                            x       y       z     vdW  Elec       q    Type
REMARK                         _______ _______ _______ _____ _____    ______ ____
ROOT
ATOM      1  O   UNL     1       1.642   8.529  18.401  0.00  0.00    +0.000 OA
ATOM      2  C   UNL     1       1.929   8.203  19.547  0.00  0.00    +0.000 C 
ATOM      3  N   UNL     1       2.579   7.032  19.865  0.00  0.00    +0.000 N 
ATOM      4  H   UNL     1       2.867   6.825  20.810  0.00  0.00    +0.000 HD
ENDROOT
BRANCH   2   5
ATOM      5  C   UNL     1       1.561   9.060  20.712  0.00  0.00    +0.000 C 
ATOM      6  C   UNL     1       0.303   8.744  21.484  0.00  0.00    +0.000 C 
ATOM      7  C   UNL     1       0.398  10.041  20.718  0.00  0.00    +0.000 C 
BRANCH   7   8
ATOM      8  C   UNL     1      -0.544  10.271  19.559  0.00  0.00    +0.000 A 
ATOM      9  C   UNL     1      -1.605   9.383  19.302  0.00  0.00    +0.000 A 
ATOM     10  C   UNL     1      -2.467   9.558  18.213  0.00  0.00    +0.000 A 
ATOM     11  C   UNL     1      -2.290  10.636  17.337  0.00  0.00    +0.000 A 
ATOM     12  C   UNL     1      -1.281  11.566  17.620  0.00  0.00    +0.000 A 
ATOM     13  C   UNL     1      -0.432  11.387  18.718  0.00  0.00    +0.000 A 
BRANCH  11  14
ATOM     14  C   UNL     1      -3.137  10.796  16.101  0.00  0.00    +0.000 C 
ATOM     15  F   UNL     1      -3.629   9.621  15.618  0.00  0.00    +0.000 F 
ATOM     16  F   UNL     1      -4.219  11.597  16.304  0.00  0.00    +0.000 F 
ATOM     17  F   UNL     1      -2.446  11.359  15.069  0.00  0.00    +0.000 F 
ENDBRANCH  11  14
ENDBRANCH   7   8
ENDBRANCH   2   5
BRANCH   3  18
ATOM     18  C   UNL     1       2.998   6.107  18.818  0.00  0.00    +0.000 C 
BRANCH  18  19
ATOM     19  C   UNL     1       4.540   5.906  18.820  0.00  0.00    +0.000 C 
ATOM     20  O   UNL     1       5.128   5.524  19.839  0.00  0.00    +0.000 OA
ATOM     21  N   UNL     1       5.203   6.022  17.611  0.00  0.00    +0.000 N 
ATOM     22  C   UNL     1       4.781   6.721  16.410  0.00  0.00    +0.000 C 
ATOM     23  C   UNL     1       5.289   5.814  15.310  0.00  0.00    +0.000 C 
ATOM     24  C   UNL     1       6.633   5.334  15.853  0.00  0.00    +0.000 C 
ATOM     25  C   UNL     1       6.470   5.350  17.377  0.00  0.00    +0.000 C 
ENDBRANCH  18  19
BRANCH  18  26
ATOM     26  C   UNL     1       2.261   4.769  18.926  0.00  0.00    +0.000 A 
ATOM     27  C   UNL     1       1.482   4.507  20.063  0.00  0.00    +0.000 A 
ATOM     28  C   UNL     1       0.717   3.342  20.157  0.00  0.00    +0.000 A 
ATOM     29  C   UNL     1       0.730   2.410  19.119  0.00  0.00    +0.000 A 
ATOM     30  C   UNL     1       1.533   2.626  18.008  0.00  0.00    +0.000 A 
ATOM     31  C   UNL     1       2.307   3.790  17.917  0.00  0.00    +0.000 A 
ENDBRANCH  18  26
ENDBRANCH   3  18
TORSDOF 6
ENDMDL
MODEL 9
REMARK VINA RESULT:      -8.0      4.476      8.101
REMARK  Name = 
REMARK  6 active torsions:
REMARK  status: ('A' for Active; 'I' for Inactive)
REMARK    1  A    between atoms: C_2  and  C_18
REMARK    2  A    between atoms: N_3  and  C_4
REMARK    3  A    between atoms: C_4  and  C_5
REMARK    4  A    between atoms: C_4  and  C_12
REMARK    5  A    between atoms: C_20  and  C_21
REMARK    6  A    between atoms: C_24  and  C_25
REMARK                            x       y       z     vdW  Elec       q    Type
REMARK                         _______ _______ _______ _____ _____    ______ ____
ROOT
ATOM      1  O   UNL     1       2.057   8.651  18.506  0.00  0.00    +0.000 OA
ATOM      2  C   UNL     1       2.095   8.182  19.637  0.00  0.00    +0.000 C 
ATOM      3  N   UNL     1       2.511   6.898  19.916  0.00  0.00    +0.000 N 
ATOM      4  H   UNL     1       2.601   6.565  20.864  0.00  0.00    +0.000 HD
ENDROOT
BRANCH   2   5
ATOM      5  C   UNL     1       1.660   8.977  20.822  0.00  0.00    +0.000 C 
ATOM      6  C   UNL     1       0.382   8.595  21.530  0.00  0.00    +0.000 C 
ATOM      7  C   UNL     1       0.470   9.926  20.823  0.00  0.00    +0.000 C 
BRANCH   7   8
ATOM      8  C   UNL     1      -0.434  10.180  19.639  0.00  0.00    +0.000 A 
ATOM      9  C   UNL     1      -0.222  11.285  18.792  0.00  0.00    +0.000 A 
ATOM     10  C   UNL     1      -1.068  11.558  17.710  0.00  0.00    +0.000 A 
ATOM     11  C   UNL     1      -2.164  10.729  17.443  0.00  0.00    +0.000 A 
ATOM     12  C   UNL     1      -2.346   9.589  18.236  0.00  0.00    +0.000 A 
ATOM     13  C   UNL     1      -1.488   9.319  19.308  0.00  0.00    +0.000 A 
BRANCH  11  14
ATOM     14  C   UNL     1      -3.150  11.052  16.350  0.00  0.00    +0.000 C 
ATOM     15  F   UNL     1      -4.139  11.906  16.738  0.00  0.00    +0.000 F 
ATOM     16  F   UNL     1      -2.564  11.630  15.265  0.00  0.00    +0.000 F 
ATOM     17  F   UNL     1      -3.785   9.941  15.880  0.00  0.00    +0.000 F 
ENDBRANCH  11  14
ENDBRANCH   7   8
ENDBRANCH   2   5
BRANCH   3  18
ATOM     18  C   UNL     1       2.967   6.018  18.847  0.00  0.00    +0.000 C 
BRANCH  18  19
ATOM     19  C   UNL     1       4.515   5.867  18.856  0.00  0.00    +0.000 C 
ATOM     20  O   UNL     1       5.109   5.486  19.872  0.00  0.00    +0.000 OA
ATOM     21  N   UNL     1       5.181   6.028  17.654  0.00  0.00    +0.000 N 
ATOM     22  C   UNL     1       4.744   6.734  16.464  0.00  0.00    +0.000 C 
ATOM     23  C   UNL     1       5.288   5.865  15.350  0.00  0.00    +0.000 C 
ATOM     24  C   UNL     1       6.644   5.419  15.894  0.00  0.00    +0.000 C 
ATOM     25  C   UNL     1       6.471   5.402  17.416  0.00  0.00    +0.000 C 
ENDBRANCH  18  19
BRANCH  18  26
ATOM     26  C   UNL     1       2.274   4.653  18.913  0.00  0.00    +0.000 A 
ATOM     27  C   UNL     1       1.384   4.387  19.964  0.00  0.00    +0.000 A 
ATOM     28  C   UNL     1       0.658   3.195  20.007  0.00  0.00    +0.000 A 
ATOM     29  C   UNL     1       0.821   2.239  19.005  0.00  0.00    +0.000 A 
ATOM     30  C   UNL     1       1.733   2.460  17.983  0.00  0.00    +0.000 A 
ATOM     31  C   UNL     1       2.468   3.652  17.944  0.00  0.00    +0.000 A 
ENDBRANCH  18  26
ENDBRANCH   3  18
TORSDOF 6
ENDMDL
