MODEL 1
REMARK VINA RESULT:      -7.6      0.000      0.000
REMARK  Name = 
REMARK  5 active torsions:
REMARK  status: ('A' for Active; 'I' for Inactive)
REMARK    1  A    between atoms: C_1  and  C_2
REMARK    2  A    between atoms: C_4  and  N_5
REMARK    3  A    between atoms: C_6  and  C_8
REMARK    4  A    between atoms: C_16  and  C_17
REMARK    5  A    between atoms: N_23  and  C_24
REMARK                            x       y       z     vdW  Elec       q    Type
REMARK                         _______ _______ _______ _____ _____    ______ ____
ROOT
ATOM      1  C   UNL     1       0.044   8.790  21.795  0.00  0.00    +0.000 C 
ATOM      2  C   UNL     1       0.733   8.903  20.475  0.00  0.00    +0.000 A 
ATOM      3  C   UNL     1       1.815   8.034  20.105  0.00  0.00    +0.000 A 
ATOM      4  C   UNL     1       2.210   8.196  18.803  0.00  0.00    +0.000 A 
ATOM      5  S   UNL     1       1.287   9.371  18.021  0.00  0.00    +0.000 S 
ATOM      6  C   UNL     1       0.448   9.818  19.462  0.00  0.00    +0.000 A 
ENDROOT
BRANCH   6   7
ATOM      7  C   UNL     1      -0.559  10.890  19.437  0.00  0.00    +0.000 C 
ATOM      8  O   UNL     1      -1.676  10.703  18.957  0.00  0.00    +0.000 OA
ATOM      9  N   UNL     1      -0.254  12.138  19.989  0.00  0.00    +0.000 N 
ATOM     10  C   UNL     1      -1.135  13.285  19.843  0.00  0.00    +0.000 C 
ATOM     11  C   UNL     1      -0.233  14.469  20.157  0.00  0.00    +0.000 C 
ATOM     12  C   UNL     1       0.743  14.826  19.039  0.00  0.00    +0.000 C 
ATOM     13  N   UNL     1       1.967  15.288  19.708  0.00  0.00    +0.000 NA
ATOM     14  C   UNL     1       2.095  16.741  19.701  0.00  0.00    +0.000 C 
ATOM     15  C   UNL     1       1.978  14.732  21.071  0.00  0.00    +0.000 C 
ATOM     16  C   UNL     1       0.685  13.942  21.253  0.00  0.00    +0.000 C 
ATOM     17  C   UNL     1       0.812  12.446  20.941  0.00  0.00    +0.000 C 
ENDBRANCH   6   7
BRANCH   4  18
ATOM     18  N   UNL     1       3.195   7.459  18.174  0.00  0.00    +0.000 N 
ATOM     19  C   UNL     1       3.170   6.108  17.893  0.00  0.00    +0.000 C 
ATOM     20  O   UNL     1       2.244   5.327  18.080  0.00  0.00    +0.000 OA
ATOM     21  H   UNL     1       3.987   7.999  17.854  0.00  0.00    +0.000 HD
BRANCH  19  22
ATOM     22  C   UNL     1       4.409   5.572  17.250  0.00  0.00    +0.000 A 
ATOM     23  C   UNL     1       4.440   4.332  16.584  0.00  0.00    +0.000 A 
ATOM     24  C   UNL     1       5.626   3.883  15.991  0.00  0.00    +0.000 A 
ATOM     25  C   UNL     1       6.772   4.672  16.049  0.00  0.00    +0.000 A 
ATOM     26  C   UNL     1       6.730   5.902  16.696  0.00  0.00    +0.000 A 
ATOM     27  F   UNL     1       7.834   6.657  16.742  0.00  0.00    +0.000 F 
ATOM     28  C   UNL     1       5.563   6.357  17.293  0.00  0.00    +0.000 A 
ENDBRANCH  19  22
ENDBRANCH   4  18
TORSDOF 3
ENDMDL
MODEL 2
REMARK VINA RESULT:      -7.5      2.877      3.479
REMARK  Name = 
REMARK  5 active torsions:
REMARK  status: ('A' for Active; 'I' for Inactive)
REMARK    1  A    between atoms: C_1  and  C_2
REMARK    2  A    between atoms: C_4  and  N_5
REMARK    3  A    between atoms: C_6  and  C_8
REMARK    4  A    between atoms: C_16  and  C_17
REMARK    5  A    between atoms: N_23  and  C_24
REMARK                            x       y       z     vdW  Elec       q    Type
REMARK                         _______ _______ _______ _____ _____    ______ ____
ROOT
ATOM      1  C   UNL     1      -1.037  10.977  23.057  0.00  0.00    +0.000 C 
ATOM      2  C   UNL     1      -0.206  10.319  22.005  0.00  0.00    +0.000 A 
ATOM      3  C   UNL     1       0.396   9.030  22.207  0.00  0.00    +0.000 A 
ATOM      4  C   UNL     1       0.989   8.533  21.075  0.00  0.00    +0.000 A 
ATOM      5  S   UNL     1       0.819   9.593  19.775  0.00  0.00    +0.000 S 
ATOM      6  C   UNL     1       0.097  10.828  20.742  0.00  0.00    +0.000 A 
ENDROOT
BRANCH   6   7
ATOM      7  C   UNL     1      -0.294  12.112  20.142  0.00  0.00    +0.000 C 
ATOM      8  O   UNL     1      -1.438  12.303  19.734  0.00  0.00    +0.000 OA
ATOM      9  N   UNL     1       0.643  13.148  20.055  0.00  0.00    +0.000 N 
ATOM     10  C   UNL     1       0.374  14.374  19.322  0.00  0.00    +0.000 C 
ATOM     11  C   UNL     1       1.758  14.964  19.097  0.00  0.00    +0.000 C 
ATOM     12  C   UNL     1       2.571  14.259  18.013  0.00  0.00    +0.000 C 
ATOM     13  N   UNL     1       3.968  14.307  18.464  0.00  0.00    +0.000 NA
ATOM     14  C   UNL     1       4.744  15.335  17.777  0.00  0.00    +0.000 C 
ATOM     15  C   UNL     1       3.968  14.491  19.925  0.00  0.00    +0.000 C 
ATOM     16  C   UNL     1       2.514  14.608  20.371  0.00  0.00    +0.000 C 
ATOM     17  C   UNL     1       1.883  13.283  20.817  0.00  0.00    +0.000 C 
ENDBRANCH   6   7
BRANCH   4  18
ATOM     18  N   UNL     1       1.600   7.298  20.975  0.00  0.00    +0.000 N 
ATOM     19  C   UNL     1       2.140   6.727  19.840  0.00  0.00    +0.000 C 
ATOM     20  O   UNL     1       2.246   7.236  18.731  0.00  0.00    +0.000 OA
ATOM     21  H   UNL     1       1.690   6.799  21.850  0.00  0.00    +0.000 HD
BRANCH  19  22
ATOM     22  C   UNL     1       2.688   5.348  20.025  0.00  0.00    +0.000 A 
ATOM     23  C   UNL     1       3.891   4.927  19.429  0.00  0.00    +0.000 A 
ATOM     24  C   UNL     1       4.364   3.627  19.644  0.00  0.00    +0.000 A 
ATOM     25  C   UNL     1       3.647   2.754  20.459  0.00  0.00    +0.000 A 
ATOM     26  C   UNL     1       2.466   3.183  21.056  0.00  0.00    +0.000 A 
ATOM     27  F   UNL     1       1.787   2.341  21.844  0.00  0.00    +0.000 F 
ATOM     28  C   UNL     1       1.983   4.467  20.848  0.00  0.00    +0.000 A 
ENDBRANCH  19  22
ENDBRANCH   4  18
TORSDOF 3
ENDMDL
MODEL 3
REMARK VINA RESULT:      -7.5      2.804      4.082
REMARK  Name = 
REMARK  5 active torsions:
REMARK  status: ('A' for Active; 'I' for Inactive)
REMARK    1  A    between atoms: C_1  and  C_2
REMARK    2  A    between atoms: C_4  and  N_5
REMARK    3  A    between atoms: C_6  and  C_8
REMARK    4  A    between atoms: C_16  and  C_17
REMARK    5  A    between atoms: N_23  and  C_24
REMARK                            x       y       z     vdW  Elec       q    Type
REMARK                         _______ _______ _______ _____ _____    ______ ____
ROOT
ATOM      1  C   UNL     1      -0.620   9.903  23.143  0.00  0.00    +0.000 C 
ATOM      2  C   UNL     1       0.178   9.929  21.882  0.00  0.00    +0.000 A 
ATOM      3  C   UNL     1       0.754   8.738  21.321  0.00  0.00    +0.000 A 
ATOM      4  C   UNL     1       1.317   8.945  20.089  0.00  0.00    +0.000 A 
ATOM      5  S   UNL     1       1.149  10.548  19.596  0.00  0.00    +0.000 S 
ATOM      6  C   UNL     1       0.471  11.048  21.103  0.00  0.00    +0.000 A 
ENDROOT
BRANCH   6   7
ATOM      7  C   UNL     1       0.099  12.454  21.323  0.00  0.00    +0.000 C 
ATOM      8  O   UNL     1       0.931  13.285  21.683  0.00  0.00    +0.000 OA
ATOM      9  N   UNL     1      -1.220  12.863  21.097  0.00  0.00    +0.000 N 
ATOM     10  C   UNL     1      -1.691  14.190  21.459  0.00  0.00    +0.000 C 
ATOM     11  C   UNL     1      -3.204  14.036  21.482  0.00  0.00    +0.000 C 
ATOM     12  C   UNL     1      -3.740  13.295  22.705  0.00  0.00    +0.000 C 
ATOM     13  N   UNL     1      -4.898  12.525  22.232  0.00  0.00    +0.000 NA
ATOM     14  C   UNL     1      -6.169  13.149  22.586  0.00  0.00    +0.000 C 
ATOM     15  C   UNL     1      -4.755  12.335  20.779  0.00  0.00    +0.000 C 
ATOM     16  C   UNL     1      -3.485  13.060  20.346  0.00  0.00    +0.000 C 
ATOM     17  C   UNL     1      -2.235  12.172  20.305  0.00  0.00    +0.000 C 
ENDBRANCH   6   7
BRANCH   4  18
ATOM     18  N   UNL     1       1.898   7.965  19.307  0.00  0.00    +0.000 N 
ATOM     19  C   UNL     1       2.123   6.648  19.656  0.00  0.00    +0.000 C 
ATOM     20  O   UNL     1       1.783   6.084  20.690  0.00  0.00    +0.000 OA
ATOM     21  H   UNL     1       2.133   8.257  18.369  0.00  0.00    +0.000 HD
BRANCH  19  22
ATOM     22  C   UNL     1       2.823   5.829  18.619  0.00  0.00    +0.000 A 
ATOM     23  C   UNL     1       3.947   6.300  17.916  0.00  0.00    +0.000 A 
ATOM     24  C   UNL     1       4.571   5.487  16.962  0.00  0.00    +0.000 A 
ATOM     25  C   UNL     1       4.084   4.204  16.720  0.00  0.00    +0.000 A 
ATOM     26  C   UNL     1       2.982   3.741  17.429  0.00  0.00    +0.000 A 
ATOM     27  F   UNL     1       2.525   2.505  17.195  0.00  0.00    +0.000 F 
ATOM     28  C   UNL     1       2.351   4.538  18.374  0.00  0.00    +0.000 A 
ENDBRANCH  19  22
ENDBRANCH   4  18
TORSDOF 3
ENDMDL
MODEL 4
REMARK VINA RESULT:      -7.4      2.573      3.868
REMARK  Name = 
REMARK  5 active torsions:
REMARK  status: ('A' for Active; 'I' for Inactive)
REMARK    1  A    between atoms: C_1  and  C_2
REMARK    2  A    between atoms: C_4  and  N_5
REMARK    3  A    between atoms: C_6  and  C_8
REMARK    4  A    between atoms: C_16  and  C_17
REMARK    5  A    between atoms: N_23  and  C_24
REMARK                            x       y       z     vdW  Elec       q    Type
REMARK                         _______ _______ _______ _____ _____    ______ ____
ROOT
ATOM      1  C   UNL     1      -0.847  10.042  23.225  0.00  0.00    +0.000 C 
ATOM      2  C   UNL     1       0.039  10.016  22.023  0.00  0.00    +0.000 A 
ATOM      3  C   UNL     1       0.666   8.806  21.566  0.00  0.00    +0.000 A 
ATOM      4  C   UNL     1       1.312   8.959  20.367  0.00  0.00    +0.000 A 
ATOM      5  S   UNL     1       1.161  10.533  19.782  0.00  0.00    +0.000 S 
ATOM      6  C   UNL     1       0.373  11.099  21.210  0.00  0.00    +0.000 A 
ENDROOT
BRANCH   6   7
ATOM      7  C   UNL     1      -0.029  12.508  21.332  0.00  0.00    +0.000 C 
ATOM      8  O   UNL     1       0.779  13.376  21.660  0.00  0.00    +0.000 OA
ATOM      9  N   UNL     1      -1.347  12.878  21.045  0.00  0.00    +0.000 N 
ATOM     10  C   UNL     1      -1.851  14.216  21.311  0.00  0.00    +0.000 C 
ATOM     11  C   UNL     1      -3.361  14.035  21.304  0.00  0.00    +0.000 C 
ATOM     12  C   UNL     1      -3.917  13.362  22.557  0.00  0.00    +0.000 C 
ATOM     13  N   UNL     1      -5.048  12.542  22.104  0.00  0.00    +0.000 NA
ATOM     14  C   UNL     1      -6.339  13.163  22.385  0.00  0.00    +0.000 C 
ATOM     15  C   UNL     1      -4.863  12.264  20.670  0.00  0.00    +0.000 C 
ATOM     16  C   UNL     1      -3.594  12.985  20.225  0.00  0.00    +0.000 C 
ATOM     17  C   UNL     1      -2.329  12.120  20.272  0.00  0.00    +0.000 C 
ENDBRANCH   6   7
BRANCH   4  18
ATOM     18  N   UNL     1       1.957   7.950  19.679  0.00  0.00    +0.000 N 
ATOM     19  C   UNL     1       2.364   7.972  18.360  0.00  0.00    +0.000 C 
ATOM     20  O   UNL     1       2.297   8.911  17.577  0.00  0.00    +0.000 OA
ATOM     21  H   UNL     1       2.186   7.138  20.236  0.00  0.00    +0.000 HD
BRANCH  19  22
ATOM     22  C   UNL     1       2.992   6.706  17.870  0.00  0.00    +0.000 A 
ATOM     23  C   UNL     1       2.402   5.444  18.065  0.00  0.00    +0.000 A 
ATOM     24  C   UNL     1       3.029   4.292  17.576  0.00  0.00    +0.000 A 
ATOM     25  C   UNL     1       4.234   4.398  16.884  0.00  0.00    +0.000 A 
ATOM     26  C   UNL     1       4.804   5.650  16.684  0.00  0.00    +0.000 A 
ATOM     27  F   UNL     1       5.958   5.746  16.013  0.00  0.00    +0.000 F 
ATOM     28  C   UNL     1       4.196   6.801  17.167  0.00  0.00    +0.000 A 
ENDBRANCH  19  22
ENDBRANCH   4  18
TORSDOF 3
ENDMDL
MODEL 5
REMARK VINA RESULT:      -7.4      2.528      3.241
REMARK  Name = 
REMARK  5 active torsions:
REMARK  status: ('A' for Active; 'I' for Inactive)
REMARK    1  A    between atoms: C_1  and  C_2
REMARK    2  A    between atoms: C_4  and  N_5
REMARK    3  A    between atoms: C_6  and  C_8
REMARK    4  A    between atoms: C_16  and  C_17
REMARK    5  A    between atoms: N_23  and  C_24
REMARK                            x       y       z     vdW  Elec       q    Type
REMARK                         _______ _______ _______ _____ _____    ______ ____
ROOT
ATOM      1  C   UNL     1      -0.831  11.480  22.676  0.00  0.00    +0.000 C 
ATOM      2  C   UNL     1      -0.074  10.675  21.672  0.00  0.00    +0.000 A 
ATOM      3  C   UNL     1       0.419   9.358  21.967  0.00  0.00    +0.000 A 
ATOM      4  C   UNL     1       0.952   8.729  20.872  0.00  0.00    +0.000 A 
ATOM      5  S   UNL     1       0.855   9.699  19.496  0.00  0.00    +0.000 S 
ATOM      6  C   UNL     1       0.254  11.060  20.372  0.00  0.00    +0.000 A 
ENDROOT
BRANCH   6   7
ATOM      7  C   UNL     1      -0.034  12.325  19.679  0.00  0.00    +0.000 C 
ATOM      8  O   UNL     1      -1.073  12.479  19.039  0.00  0.00    +0.000 OA
ATOM      9  N   UNL     1       0.876  13.384  19.767  0.00  0.00    +0.000 N 
ATOM     10  C   UNL     1       0.737  14.592  18.970  0.00  0.00    +0.000 C 
ATOM     11  C   UNL     1       2.123  15.216  19.025  0.00  0.00    +0.000 C 
ATOM     12  C   UNL     1       3.159  14.518  18.146  0.00  0.00    +0.000 C 
ATOM     13  N   UNL     1       4.431  14.610  18.876  0.00  0.00    +0.000 NA
ATOM     14  C   UNL     1       5.308  15.648  18.344  0.00  0.00    +0.000 C 
ATOM     15  C   UNL     1       4.124  14.814  20.302  0.00  0.00    +0.000 C 
ATOM     16  C   UNL     1       2.606  14.899  20.435  0.00  0.00    +0.000 C 
ATOM     17  C   UNL     1       1.928  13.564  20.766  0.00  0.00    +0.000 C 
ENDBRANCH   6   7
BRANCH   4  18
ATOM     18  N   UNL     1       1.454   7.442  20.862  0.00  0.00    +0.000 N 
ATOM     19  C   UNL     1       2.214   6.854  19.871  0.00  0.00    +0.000 C 
ATOM     20  O   UNL     1       2.648   7.383  18.854  0.00  0.00    +0.000 OA
ATOM     21  H   UNL     1       1.270   6.910  21.702  0.00  0.00    +0.000 HD
BRANCH  19  22
ATOM     22  C   UNL     1       2.570   5.422  20.111  0.00  0.00    +0.000 A 
ATOM     23  C   UNL     1       1.799   4.579  20.933  0.00  0.00    +0.000 A 
ATOM     24  C   UNL     1       2.173   3.242  21.116  0.00  0.00    +0.000 A 
ATOM     25  C   UNL     1       3.303   2.744  20.471  0.00  0.00    +0.000 A 
ATOM     26  C   UNL     1       4.051   3.579  19.649  0.00  0.00    +0.000 A 
ATOM     27  F   UNL     1       5.131   3.091  19.028  0.00  0.00    +0.000 F 
ATOM     28  C   UNL     1       3.695   4.908  19.463  0.00  0.00    +0.000 A 
ENDBRANCH  19  22
ENDBRANCH   4  18
TORSDOF 3
ENDMDL
MODEL 6
REMARK VINA RESULT:      -7.4      1.177      1.370
REMARK  Name = 
REMARK  5 active torsions:
REMARK  status: ('A' for Active; 'I' for Inactive)
REMARK    1  A    between atoms: C_1  and  C_2
REMARK    2  A    between atoms: C_4  and  N_5
REMARK    3  A    between atoms: C_6  and  C_8
REMARK    4  A    between atoms: C_16  and  C_17
REMARK    5  A    between atoms: N_23  and  C_24
REMARK                            x       y       z     vdW  Elec       q    Type
REMARK                         _______ _______ _______ _____ _____    ______ ____
ROOT
ATOM      1  C   UNL     1       0.236   8.499  21.658  0.00  0.00    +0.000 C 
ATOM      2  C   UNL     1       0.948   8.627  20.352  0.00  0.00    +0.000 A 
ATOM      3  C   UNL     1       1.991   7.720  19.962  0.00  0.00    +0.000 A 
ATOM      4  C   UNL     1       2.412   7.912  18.671  0.00  0.00    +0.000 A 
ATOM      5  S   UNL     1       1.559   9.159  17.924  0.00  0.00    +0.000 S 
ATOM      6  C   UNL     1       0.723   9.593  19.371  0.00  0.00    +0.000 A 
ENDROOT
BRANCH   6   7
ATOM      7  C   UNL     1      -0.230  10.713  19.374  0.00  0.00    +0.000 C 
ATOM      8  O   UNL     1      -1.385  10.569  18.979  0.00  0.00    +0.000 OA
ATOM      9  N   UNL     1       0.174  11.962  19.859  0.00  0.00    +0.000 N 
ATOM     10  C   UNL     1      -0.658  13.148  19.730  0.00  0.00    +0.000 C 
ATOM     11  C   UNL     1       0.321  14.293  19.938  0.00  0.00    +0.000 C 
ATOM     12  C   UNL     1       1.233  14.562  18.744  0.00  0.00    +0.000 C 
ATOM     13  N   UNL     1       2.522  14.982  19.311  0.00  0.00    +0.000 NA
ATOM     14  C   UNL     1       2.720  16.426  19.242  0.00  0.00    +0.000 C 
ATOM     15  C   UNL     1       2.600  14.473  20.690  0.00  0.00    +0.000 C 
ATOM     16  C   UNL     1       1.286  13.757  20.988  0.00  0.00    +0.000 C 
ATOM     17  C   UNL     1       1.317  12.247  20.723  0.00  0.00    +0.000 C 
ENDBRANCH   6   7
BRANCH   4  18
ATOM     18  N   UNL     1       3.369   7.151  18.027  0.00  0.00    +0.000 N 
ATOM     19  C   UNL     1       4.115   6.123  18.567  0.00  0.00    +0.000 C 
ATOM     20  O   UNL     1       4.019   5.645  19.691  0.00  0.00    +0.000 OA
ATOM     21  H   UNL     1       3.481   7.358  17.044  0.00  0.00    +0.000 HD
BRANCH  19  22
ATOM     22  C   UNL     1       5.119   5.514  17.640  0.00  0.00    +0.000 A 
ATOM     23  C   UNL     1       6.430   5.204  18.043  0.00  0.00    +0.000 A 
ATOM     24  C   UNL     1       7.326   4.625  17.136  0.00  0.00    +0.000 A 
ATOM     25  C   UNL     1       6.912   4.344  15.836  0.00  0.00    +0.000 A 
ATOM     26  C   UNL     1       5.610   4.641  15.449  0.00  0.00    +0.000 A 
ATOM     27  F   UNL     1       5.217   4.362  14.201  0.00  0.00    +0.000 F 
ATOM     28  C   UNL     1       4.713   5.219  16.337  0.00  0.00    +0.000 A 
ENDBRANCH  19  22
ENDBRANCH   4  18
TORSDOF 3
ENDMDL
MODEL 7
REMARK VINA RESULT:      -7.3      3.663      4.959
REMARK  Name = 
REMARK  5 active torsions:
REMARK  status: ('A' for Active; 'I' for Inactive)
REMARK    1  A    between atoms: C_1  and  C_2
REMARK    2  A    between atoms: C_4  and  N_5
REMARK    3  A    between atoms: C_6  and  C_8
REMARK    4  A    between atoms: C_16  and  C_17
REMARK    5  A    between atoms: N_23  and  C_24
REMARK                            x       y       z     vdW  Elec       q    Type
REMARK                         _______ _______ _______ _____ _____    ______ ____
ROOT
ATOM      1  C   UNL     1       1.726  11.851  18.335  0.00  0.00    +0.000 C 
ATOM      2  C   UNL     1       1.327  10.896  19.412  0.00  0.00    +0.000 A 
ATOM      3  C   UNL     1       1.440   9.473  19.247  0.00  0.00    +0.000 A 
ATOM      4  C   UNL     1       1.168   8.778  20.396  0.00  0.00    +0.000 A 
ATOM      5  S   UNL     1       0.794   9.817  21.671  0.00  0.00    +0.000 S 
ATOM      6  C   UNL     1       0.813  11.222  20.667  0.00  0.00    +0.000 A 
ENDROOT
BRANCH   6   7
ATOM      7  C   UNL     1       0.520  12.547  21.233  0.00  0.00    +0.000 C 
ATOM      8  O   UNL     1       1.420  13.282  21.634  0.00  0.00    +0.000 OA
ATOM      9  N   UNL     1      -0.804  12.994  21.296  0.00  0.00    +0.000 N 
ATOM     10  C   UNL     1      -1.178  14.212  21.997  0.00  0.00    +0.000 C 
ATOM     11  C   UNL     1      -2.676  14.054  22.210  0.00  0.00    +0.000 C 
ATOM     12  C   UNL     1      -3.052  13.068  23.313  0.00  0.00    +0.000 C 
ATOM     13  N   UNL     1      -4.289  12.415  22.863  0.00  0.00    +0.000 NA
ATOM     14  C   UNL     1      -5.476  12.948  23.526  0.00  0.00    +0.000 C 
ATOM     15  C   UNL     1      -4.363  12.542  21.398  0.00  0.00    +0.000 C 
ATOM     16  C   UNL     1      -3.148  13.345  20.946  0.00  0.00    +0.000 C 
ATOM     17  C   UNL     1      -1.944  12.488  20.534  0.00  0.00    +0.000 C 
ENDBRANCH   6   7
BRANCH   4  18
ATOM     18  N   UNL     1       1.246   7.406  20.531  0.00  0.00    +0.000 N 
ATOM     19  C   UNL     1       2.101   6.552  19.862  0.00  0.00    +0.000 C 
ATOM     20  O   UNL     1       2.996   6.857  19.082  0.00  0.00    +0.000 OA
ATOM     21  H   UNL     1       0.635   7.015  21.235  0.00  0.00    +0.000 HD
BRANCH  19  22
ATOM     22  C   UNL     1       1.919   5.101  20.174  0.00  0.00    +0.000 A 
ATOM     23  C   UNL     1       2.369   4.524  21.376  0.00  0.00    +0.000 A 
ATOM     24  C   UNL     1       2.163   3.161  21.621  0.00  0.00    +0.000 A 
ATOM     25  C   UNL     1       1.500   2.379  20.679  0.00  0.00    +0.000 A 
ATOM     26  C   UNL     1       1.046   2.960  19.500  0.00  0.00    +0.000 A 
ATOM     27  F   UNL     1       0.403   2.203  18.602  0.00  0.00    +0.000 F 
ATOM     28  C   UNL     1       1.247   4.309  19.241  0.00  0.00    +0.000 A 
ENDBRANCH  19  22
ENDBRANCH   4  18
TORSDOF 3
ENDMDL
MODEL 8
REMARK VINA RESULT:      -7.3      1.965      2.402
REMARK  Name = 
REMARK  5 active torsions:
REMARK  status: ('A' for Active; 'I' for Inactive)
REMARK    1  A    between atoms: C_1  and  C_2
REMARK    2  A    between atoms: C_4  and  N_5
REMARK    3  A    between atoms: C_6  and  C_8
REMARK    4  A    between atoms: C_16  and  C_17
REMARK    5  A    between atoms: N_23  and  C_24
REMARK                            x       y       z     vdW  Elec       q    Type
REMARK                         _______ _______ _______ _____ _____    ______ ____
ROOT
ATOM      1  C   UNL     1      -0.090   9.616  23.360  0.00  0.00    +0.000 C 
ATOM      2  C   UNL     1       0.445   9.507  21.970  0.00  0.00    +0.000 A 
ATOM      3  C   UNL     1       1.164   8.347  21.521  0.00  0.00    +0.000 A 
ATOM      4  C   UNL     1       1.438   8.375  20.178  0.00  0.00    +0.000 A 
ATOM      5  S   UNL     1       0.830   9.771  19.454  0.00  0.00    +0.000 S 
ATOM      6  C   UNL     1       0.337  10.461  20.958  0.00  0.00    +0.000 A 
ENDROOT
BRANCH   6   7
ATOM      7  C   UNL     1      -0.295  11.788  20.999  0.00  0.00    +0.000 C 
ATOM      8  O   UNL     1      -1.503  11.913  21.194  0.00  0.00    +0.000 OA
ATOM      9  N   UNL     1       0.492  12.933  20.838  0.00  0.00    +0.000 N 
ATOM     10  C   UNL     1      -0.089  14.258  20.695  0.00  0.00    +0.000 C 
ATOM     11  C   UNL     1       1.040  15.079  20.092  0.00  0.00    +0.000 C 
ATOM     12  C   UNL     1       1.287  14.811  18.609  0.00  0.00    +0.000 C 
ATOM     13  N   UNL     1       2.737  14.938  18.415  0.00  0.00    +0.000 NA
ATOM     14  C   UNL     1       3.112  16.211  17.807  0.00  0.00    +0.000 C 
ATOM     15  C   UNL     1       3.391  14.727  19.717  0.00  0.00    +0.000 C 
ATOM     16  C   UNL     1       2.291  14.511  20.752  0.00  0.00    +0.000 C 
ATOM     17  C   UNL     1       1.940  13.039  21.001  0.00  0.00    +0.000 C 
ENDBRANCH   6   7
BRANCH   4  18
ATOM     18  N   UNL     1       2.075   7.370  19.477  0.00  0.00    +0.000 N 
ATOM     19  C   UNL     1       2.785   7.499  18.300  0.00  0.00    +0.000 C 
ATOM     20  O   UNL     1       3.047   8.534  17.700  0.00  0.00    +0.000 OA
ATOM     21  H   UNL     1       2.041   6.460  19.917  0.00  0.00    +0.000 HD
BRANCH  19  22
ATOM     22  C   UNL     1       3.321   6.219  17.740  0.00  0.00    +0.000 A 
ATOM     23  C   UNL     1       4.543   6.150  17.047  0.00  0.00    +0.000 A 
ATOM     24  C   UNL     1       5.002   4.924  16.552  0.00  0.00    +0.000 A 
ATOM     25  C   UNL     1       4.252   3.768  16.760  0.00  0.00    +0.000 A 
ATOM     26  C   UNL     1       3.052   3.842  17.458  0.00  0.00    +0.000 A 
ATOM     27  F   UNL     1       2.341   2.727  17.659  0.00  0.00    +0.000 F 
ATOM     28  C   UNL     1       2.583   5.052  17.950  0.00  0.00    +0.000 A 
ENDBRANCH  19  22
ENDBRANCH   4  18
TORSDOF 3
ENDMDL
MODEL 9
REMARK VINA RESULT:      -7.2      1.432      1.713
REMARK  Name = 
REMARK  5 active torsions:
REMARK  status: ('A' for Active; 'I' for Inactive)
REMARK    1  A    between atoms: C_1  and  C_2
REMARK    2  A    between atoms: C_4  and  N_5
REMARK    3  A    between atoms: C_6  and  C_8
REMARK    4  A    between atoms: C_16  and  C_17
REMARK    5  A    between atoms: N_23  and  C_24
REMARK                            x       y       z     vdW  Elec       q    Type
REMARK                         _______ _______ _______ _____ _____    ______ ____
ROOT
ATOM      1  C   UNL     1      -0.246   9.679  23.160  0.00  0.00    +0.000 C 
ATOM      2  C   UNL     1       0.285   9.688  21.764  0.00  0.00    +0.000 A 
ATOM      3  C   UNL     1       1.125   8.636  21.262  0.00  0.00    +0.000 A 
ATOM      4  C   UNL     1       1.382   8.751  19.921  0.00  0.00    +0.000 A 
ATOM      5  S   UNL     1       0.615  10.099  19.260  0.00  0.00    +0.000 S 
ATOM      6  C   UNL     1       0.061  10.665  20.794  0.00  0.00    +0.000 A 
ENDROOT
BRANCH   6   7
ATOM      7  C   UNL     1      -0.715  11.910  20.894  0.00  0.00    +0.000 C 
ATOM      8  O   UNL     1      -1.935  11.891  21.048  0.00  0.00    +0.000 OA
ATOM      9  N   UNL     1      -0.055  13.142  20.837  0.00  0.00    +0.000 N 
ATOM     10  C   UNL     1      -0.775  14.403  20.756  0.00  0.00    +0.000 C 
ATOM     11  C   UNL     1       0.276  15.380  20.252  0.00  0.00    +0.000 C 
ATOM     12  C   UNL     1       0.599  15.241  18.766  0.00  0.00    +0.000 C 
ATOM     13  N   UNL     1       2.032  15.538  18.638  0.00  0.00    +0.000 NA
ATOM     14  C   UNL     1       2.283  16.882  18.128  0.00  0.00    +0.000 C 
ATOM     15  C   UNL     1       2.663  15.311  19.949  0.00  0.00    +0.000 C 
ATOM     16  C   UNL     1       1.560  14.909  20.923  0.00  0.00    +0.000 C 
ATOM     17  C   UNL     1       1.367  13.394  21.065  0.00  0.00    +0.000 C 
ENDBRANCH   6   7
BRANCH   4  18
ATOM     18  N   UNL     1       2.121   7.853  19.175  0.00  0.00    +0.000 N 
ATOM     19  C   UNL     1       2.398   6.538  19.492  0.00  0.00    +0.000 C 
ATOM     20  O   UNL     1       1.981   5.902  20.452  0.00  0.00    +0.000 OA
ATOM     21  H   UNL     1       2.442   8.208  18.284  0.00  0.00    +0.000 HD
BRANCH  19  22
ATOM     22  C   UNL     1       3.274   5.822  18.514  0.00  0.00    +0.000 A 
ATOM     23  C   UNL     1       3.414   4.422  18.509  0.00  0.00    +0.000 A 
ATOM     24  C   UNL     1       4.240   3.803  17.563  0.00  0.00    +0.000 A 
ATOM     25  C   UNL     1       4.913   4.574  16.619  0.00  0.00    +0.000 A 
ATOM     26  C   UNL     1       4.758   5.955  16.622  0.00  0.00    +0.000 A 
ATOM     27  F   UNL     1       5.402   6.689  15.706  0.00  0.00    +0.000 F 
ATOM     28  C   UNL     1       3.946   6.584  17.556  0.00  0.00    +0.000 A 
ENDBRANCH  19  22
ENDBRANCH   4  18
TORSDOF 3
ENDMDL
