MODEL 1
REMARK VINA RESULT:      -8.5      0.000      0.000
REMARK  Name = 
REMARK  6 active torsions:
REMARK  status: ('A' for Active; 'I' for Inactive)
REMARK    1  A    between atoms: C_1  and  C_2
REMARK    2  A    between atoms: C_6  and  C_7
REMARK    3  A    between atoms: C_7  and  N_8
REMARK    4  A    between atoms: C_9  and  C_11
REMARK    5  A    between atoms: N_14  and  C_15
REMARK    6  A    between atoms: C_25  and  C_26
REMARK                            x       y       z     vdW  Elec       q    Type
REMARK                         _______ _______ _______ _____ _____    ______ ____
ROOT
ATOM      1  C   UNL     1       2.629   7.663  18.488  0.00  0.00    +0.000 A 
ATOM      2  N   UNL     1       2.624   8.491  17.400  0.00  0.00    +0.000 NA
ATOM      3  N   UNL     1       1.808   9.502  17.652  0.00  0.00    +0.000 NA
ATOM      4  N   UNL     1       1.297   9.369  18.903  0.00  0.00    +0.000 N 
ATOM      5  C   UNL     1       1.781   8.187  19.459  0.00  0.00    +0.000 A 
ATOM      6  C   UNL     1       1.366   7.579  20.751  0.00  0.00    +0.000 C 
ENDROOT
BRANCH   4   7
ATOM      7  C   UNL     1       0.447  10.378  19.460  0.00  0.00    +0.000 A 
ATOM      8  C   UNL     1       0.937  11.142  20.536  0.00  0.00    +0.000 A 
ATOM      9  C   UNL     1       0.156  12.138  21.117  0.00  0.00    +0.000 A 
ATOM     10  C   UNL     1      -1.114  12.403  20.620  0.00  0.00    +0.000 A 
ATOM     11  C   UNL     1      -1.621  11.675  19.533  0.00  0.00    +0.000 A 
ATOM     12  C   UNL     1      -2.902  11.950  19.044  0.00  0.00    +0.000 A 
ATOM     13  N   UNL     1      -3.498  11.294  18.025  0.00  0.00    +0.000 NA
ATOM     14  C   UNL     1      -2.784  10.305  17.465  0.00  0.00    +0.000 A 
ATOM     15  C   UNL     1      -1.505   9.948  17.872  0.00  0.00    +0.000 A 
ATOM     16  C   UNL     1      -0.861  10.644  18.927  0.00  0.00    +0.000 A 
ENDBRANCH   4   7
BRANCH   1  18
ATOM     17  N   UNL     1       3.718   5.880  17.304  0.00  0.00    +0.000 N 
ATOM     18  C   UNL     1       3.389   6.413  18.536  0.00  0.00    +0.000 C 
ATOM     19  O   UNL     1       3.698   5.871  19.594  0.00  0.00    +0.000 OA
ATOM     20  H   UNL     1       3.310   6.307  16.480  0.00  0.00    +0.000 HD
BRANCH  17  21
ATOM     21  C   UNL     1       4.323   4.573  17.207  0.00  0.00    +0.000 C 
BRANCH  21  27
ATOM     22  C   UNL     1       7.548   4.918  17.922  0.00  0.00    +0.000 C 
ATOM     23  C   UNL     1       6.836   4.743  16.638  0.00  0.00    +0.000 A 
ATOM     24  O   UNL     1       7.626   4.666  15.531  0.00  0.00    +0.000 OA
ATOM     25  C   UNL     1       6.808   4.471  14.469  0.00  0.00    +0.000 A 
ATOM     26  C   UNL     1       5.496   4.433  14.877  0.00  0.00    +0.000 A 
ATOM     27  C   UNL     1       5.499   4.609  16.293  0.00  0.00    +0.000 A 
ENDBRANCH  21  27
ENDBRANCH  17  21
ENDBRANCH   1  18
TORSDOF 4
ENDMDL
MODEL 2
REMARK VINA RESULT:      -8.4      3.960      6.649
REMARK  Name = 
REMARK  6 active torsions:
REMARK  status: ('A' for Active; 'I' for Inactive)
REMARK    1  A    between atoms: C_1  and  C_2
REMARK    2  A    between atoms: C_6  and  C_7
REMARK    3  A    between atoms: C_7  and  N_8
REMARK    4  A    between atoms: C_9  and  C_11
REMARK    5  A    between atoms: N_14  and  C_15
REMARK    6  A    between atoms: C_25  and  C_26
REMARK                            x       y       z     vdW  Elec       q    Type
REMARK                         _______ _______ _______ _____ _____    ______ ____
ROOT
ATOM      1  C   UNL     1       6.409   4.428  16.644  0.00  0.00    +0.000 A 
ATOM      2  N   UNL     1       7.227   4.494  17.738  0.00  0.00    +0.000 NA
ATOM      3  N   UNL     1       6.474   4.414  18.823  0.00  0.00    +0.000 NA
ATOM      4  N   UNL     1       5.173   4.266  18.461  0.00  0.00    +0.000 N 
ATOM      5  C   UNL     1       5.091   4.297  17.071  0.00  0.00    +0.000 A 
ATOM      6  C   UNL     1       3.848   4.316  16.256  0.00  0.00    +0.000 C 
ENDROOT
BRANCH   4   7
ATOM      7  C   UNL     1       4.155   4.069  19.448  0.00  0.00    +0.000 A 
ATOM      8  C   UNL     1       4.074   2.814  20.081  0.00  0.00    +0.000 A 
ATOM      9  C   UNL     1       3.105   2.564  21.050  0.00  0.00    +0.000 A 
ATOM     10  C   UNL     1       2.218   3.568  21.418  0.00  0.00    +0.000 A 
ATOM     11  C   UNL     1       2.288   4.837  20.823  0.00  0.00    +0.000 A 
ATOM     12  C   UNL     1       1.387   5.837  21.201  0.00  0.00    +0.000 A 
ATOM     13  N   UNL     1       1.346   7.080  20.675  0.00  0.00    +0.000 NA
ATOM     14  C   UNL     1       2.247   7.341  19.714  0.00  0.00    +0.000 A 
ATOM     15  C   UNL     1       3.185   6.423  19.263  0.00  0.00    +0.000 A 
ATOM     16  C   UNL     1       3.251   5.121  19.823  0.00  0.00    +0.000 A 
ENDBRANCH   4   7
BRANCH   1  18
ATOM     17  N   UNL     1       6.305   3.684  14.363  0.00  0.00    +0.000 N 
ATOM     18  C   UNL     1       6.903   4.537  15.271  0.00  0.00    +0.000 C 
ATOM     19  O   UNL     1       7.795   5.320  14.951  0.00  0.00    +0.000 OA
ATOM     20  H   UNL     1       5.679   2.973  14.724  0.00  0.00    +0.000 HD
BRANCH  17  21
ATOM     21  C   UNL     1       6.808   3.575  13.014  0.00  0.00    +0.000 C 
BRANCH  21  27
ATOM     22  C   UNL     1       6.532   0.846  11.143  0.00  0.00    +0.000 C 
ATOM     23  C   UNL     1       5.640   2.010  11.326  0.00  0.00    +0.000 A 
ATOM     24  O   UNL     1       4.461   1.964  10.644  0.00  0.00    +0.000 OA
ATOM     25  C   UNL     1       3.770   3.085  10.963  0.00  0.00    +0.000 A 
ATOM     26  C   UNL     1       4.495   3.861  11.835  0.00  0.00    +0.000 A 
ATOM     27  C   UNL     1       5.720   3.171  12.082  0.00  0.00    +0.000 A 
ENDBRANCH  21  27
ENDBRANCH  17  21
ENDBRANCH   1  18
TORSDOF 4
ENDMDL
MODEL 3
REMARK VINA RESULT:      -8.3      0.476      1.276
REMARK  Name = 
REMARK  6 active torsions:
REMARK  status: ('A' for Active; 'I' for Inactive)
REMARK    1  A    between atoms: C_1  and  C_2
REMARK    2  A    between atoms: C_6  and  C_7
REMARK    3  A    between atoms: C_7  and  N_8
REMARK    4  A    between atoms: C_9  and  C_11
REMARK    5  A    between atoms: N_14  and  C_15
REMARK    6  A    between atoms: C_25  and  C_26
REMARK                            x       y       z     vdW  Elec       q    Type
REMARK                         _______ _______ _______ _____ _____    ______ ____
ROOT
ATOM      1  C   UNL     1       2.536   7.631  18.544  0.00  0.00    +0.000 A 
ATOM      2  N   UNL     1       2.585   8.414  17.424  0.00  0.00    +0.000 NA
ATOM      3  N   UNL     1       1.842   9.487  17.637  0.00  0.00    +0.000 NA
ATOM      4  N   UNL     1       1.326   9.439  18.893  0.00  0.00    +0.000 N 
ATOM      5  C   UNL     1       1.730   8.249  19.494  0.00  0.00    +0.000 A 
ATOM      6  C   UNL     1       1.278   7.721  20.809  0.00  0.00    +0.000 C 
ENDROOT
BRANCH   4   7
ATOM      7  C   UNL     1       0.549  10.524  19.410  0.00  0.00    +0.000 A 
ATOM      8  C   UNL     1       1.154  11.393  20.338  0.00  0.00    +0.000 A 
ATOM      9  C   UNL     1       0.448  12.468  20.874  0.00  0.00    +0.000 A 
ATOM     10  C   UNL     1      -0.861  12.705  20.477  0.00  0.00    +0.000 A 
ATOM     11  C   UNL     1      -1.485  11.871  19.536  0.00  0.00    +0.000 A 
ATOM     12  C   UNL     1      -2.804  12.120  19.147  0.00  0.00    +0.000 A 
ATOM     13  N   UNL     1      -3.508  11.367  18.274  0.00  0.00    +0.000 NA
ATOM     14  C   UNL     1      -2.866  10.304  17.764  0.00  0.00    +0.000 A 
ATOM     15  C   UNL     1      -1.557   9.965  18.082  0.00  0.00    +0.000 A 
ATOM     16  C   UNL     1      -0.802  10.760  18.982  0.00  0.00    +0.000 A 
ENDBRANCH   4   7
BRANCH   1  18
ATOM     17  N   UNL     1       3.581   5.776  17.432  0.00  0.00    +0.000 N 
ATOM     18  C   UNL     1       3.209   6.334  18.640  0.00  0.00    +0.000 C 
ATOM     19  O   UNL     1       3.414   5.776  19.715  0.00  0.00    +0.000 OA
ATOM     20  H   UNL     1       3.256   6.226  16.583  0.00  0.00    +0.000 HD
BRANCH  17  21
ATOM     21  C   UNL     1       4.106   4.432  17.373  0.00  0.00    +0.000 C 
BRANCH  21  27
ATOM     22  C   UNL     1       6.093   4.038  14.742  0.00  0.00    +0.000 C 
ATOM     23  C   UNL     1       6.385   4.297  16.168  0.00  0.00    +0.000 A 
ATOM     24  O   UNL     1       7.702   4.445  16.484  0.00  0.00    +0.000 OA
ATOM     25  C   UNL     1       7.768   4.709  17.811  0.00  0.00    +0.000 A 
ATOM     26  C   UNL     1       6.507   4.723  18.359  0.00  0.00    +0.000 A 
ATOM     27  C   UNL     1       5.593   4.455  17.296  0.00  0.00    +0.000 A 
ENDBRANCH  21  27
ENDBRANCH  17  21
ENDBRANCH   1  18
TORSDOF 4
ENDMDL
MODEL 4
REMARK VINA RESULT:      -8.3      4.182      6.929
REMARK  Name = 
REMARK  6 active torsions:
REMARK  status: ('A' for Active; 'I' for Inactive)
REMARK    1  A    between atoms: C_1  and  C_2
REMARK    2  A    between atoms: C_6  and  C_7
REMARK    3  A    between atoms: C_7  and  N_8
REMARK    4  A    between atoms: C_9  and  C_11
REMARK    5  A    between atoms: N_14  and  C_15
REMARK    6  A    between atoms: C_25  and  C_26
REMARK                            x       y       z     vdW  Elec       q    Type
REMARK                         _______ _______ _______ _____ _____    ______ ____
ROOT
ATOM      1  C   UNL     1       6.664   4.626  16.291  0.00  0.00    +0.000 A 
ATOM      2  N   UNL     1       7.499   4.722  17.369  0.00  0.00    +0.000 NA
ATOM      3  N   UNL     1       6.785   4.525  18.465  0.00  0.00    +0.000 NA
ATOM      4  N   UNL     1       5.495   4.269  18.124  0.00  0.00    +0.000 N 
ATOM      5  C   UNL     1       5.375   4.351  16.739  0.00  0.00    +0.000 A 
ATOM      6  C   UNL     1       4.116   4.286  15.952  0.00  0.00    +0.000 C 
ENDROOT
BRANCH   4   7
ATOM      7  C   UNL     1       4.525   3.935  19.123  0.00  0.00    +0.000 A 
ATOM      8  C   UNL     1       4.567   2.646  19.687  0.00  0.00    +0.000 A 
ATOM      9  C   UNL     1       3.650   2.264  20.664  0.00  0.00    +0.000 A 
ATOM     10  C   UNL     1       2.694   3.168  21.108  0.00  0.00    +0.000 A 
ATOM     11  C   UNL     1       2.640   4.468  20.582  0.00  0.00    +0.000 A 
ATOM     12  C   UNL     1       1.670   5.367  21.036  0.00  0.00    +0.000 A 
ATOM     13  N   UNL     1       1.511   6.628  20.581  0.00  0.00    +0.000 NA
ATOM     14  C   UNL     1       2.359   7.015  19.615  0.00  0.00    +0.000 A 
ATOM     15  C   UNL     1       3.358   6.205  19.091  0.00  0.00    +0.000 A 
ATOM     16  C   UNL     1       3.548   4.885  19.577  0.00  0.00    +0.000 A 
ENDBRANCH   4   7
BRANCH   1  18
ATOM     17  N   UNL     1       6.509   4.028  13.970  0.00  0.00    +0.000 N 
ATOM     18  C   UNL     1       7.111   4.839  14.913  0.00  0.00    +0.000 C 
ATOM     19  O   UNL     1       7.968   5.669  14.620  0.00  0.00    +0.000 OA
ATOM     20  H   UNL     1       5.917   3.276  14.302  0.00  0.00    +0.000 HD
BRANCH  17  21
ATOM     21  C   UNL     1       6.972   4.023  12.602  0.00  0.00    +0.000 C 
BRANCH  21  27
ATOM     22  C   UNL     1       3.932   3.331  11.456  0.00  0.00    +0.000 C 
ATOM     23  C   UNL     1       5.199   2.569  11.416  0.00  0.00    +0.000 A 
ATOM     24  O   UNL     1       5.150   1.377  10.758  0.00  0.00    +0.000 OA
ATOM     25  C   UNL     1       6.397   0.849  10.793  0.00  0.00    +0.000 A 
ATOM     26  C   UNL     1       7.250   1.682  11.476  0.00  0.00    +0.000 A 
ATOM     27  C   UNL     1       6.481   2.812  11.889  0.00  0.00    +0.000 A 
ENDBRANCH  21  27
ENDBRANCH  17  21
ENDBRANCH   1  18
TORSDOF 4
ENDMDL
MODEL 5
REMARK VINA RESULT:      -8.3      1.522      1.791
REMARK  Name = 
REMARK  6 active torsions:
REMARK  status: ('A' for Active; 'I' for Inactive)
REMARK    1  A    between atoms: C_1  and  C_2
REMARK    2  A    between atoms: C_6  and  C_7
REMARK    3  A    between atoms: C_7  and  N_8
REMARK    4  A    between atoms: C_9  and  C_11
REMARK    5  A    between atoms: N_14  and  C_15
REMARK    6  A    between atoms: C_25  and  C_26
REMARK                            x       y       z     vdW  Elec       q    Type
REMARK                         _______ _______ _______ _____ _____    ______ ____
ROOT
ATOM      1  C   UNL     1       2.819   6.789  18.651  0.00  0.00    +0.000 A 
ATOM      2  N   UNL     1       2.858   7.960  17.945  0.00  0.00    +0.000 NA
ATOM      3  N   UNL     1       2.128   8.856  18.589  0.00  0.00    +0.000 NA
ATOM      4  N   UNL     1       1.631   8.302  19.726  0.00  0.00    +0.000 N 
ATOM      5  C   UNL     1       2.033   6.970  19.785  0.00  0.00    +0.000 A 
ATOM      6  C   UNL     1       1.598   5.955  20.780  0.00  0.00    +0.000 C 
ENDROOT
BRANCH   4   7
ATOM      7  C   UNL     1       0.873   9.086  20.653  0.00  0.00    +0.000 A 
ATOM      8  C   UNL     1       1.074   8.869  22.029  0.00  0.00    +0.000 A 
ATOM      9  C   UNL     1       0.366   9.602  22.979  0.00  0.00    +0.000 A 
ATOM     10  C   UNL     1      -0.534  10.578  22.571  0.00  0.00    +0.000 A 
ATOM     11  C   UNL     1      -0.739  10.836  21.206  0.00  0.00    +0.000 A 
ATOM     12  C   UNL     1      -1.650  11.819  20.809  0.00  0.00    +0.000 A 
ATOM     13  N   UNL     1      -1.945  12.129  19.529  0.00  0.00    +0.000 NA
ATOM     14  C   UNL     1      -1.302  11.416  18.589  0.00  0.00    +0.000 A 
ATOM     15  C   UNL     1      -0.380  10.417  18.872  0.00  0.00    +0.000 A 
ATOM     16  C   UNL     1      -0.047  10.098  20.214  0.00  0.00    +0.000 A 
ENDBRANCH   4   7
BRANCH   1  18
ATOM     17  N   UNL     1       4.775   5.396  18.652  0.00  0.00    +0.000 N 
ATOM     18  C   UNL     1       3.481   5.563  18.200  0.00  0.00    +0.000 C 
ATOM     19  O   UNL     1       2.929   4.750  17.462  0.00  0.00    +0.000 OA
ATOM     20  H   UNL     1       5.210   6.172  19.140  0.00  0.00    +0.000 HD
BRANCH  17  21
ATOM     21  C   UNL     1       5.594   4.316  18.155  0.00  0.00    +0.000 C 
BRANCH  21  27
ATOM     22  C   UNL     1       7.528   6.923  17.454  0.00  0.00    +0.000 C 
ATOM     23  C   UNL     1       7.053   5.796  16.623  0.00  0.00    +0.000 A 
ATOM     24  O   UNL     1       7.509   5.775  15.339  0.00  0.00    +0.000 OA
ATOM     25  C   UNL     1       7.003   4.664  14.753  0.00  0.00    +0.000 A 
ATOM     26  C   UNL     1       6.216   3.971  15.641  0.00  0.00    +0.000 A 
ATOM     27  C   UNL     1       6.239   4.700  16.869  0.00  0.00    +0.000 A 
ENDBRANCH  21  27
ENDBRANCH  17  21
ENDBRANCH   1  18
TORSDOF 4
ENDMDL
MODEL 6
REMARK VINA RESULT:      -8.3      2.323      3.292
REMARK  Name = 
REMARK  6 active torsions:
REMARK  status: ('A' for Active; 'I' for Inactive)
REMARK    1  A    between atoms: C_1  and  C_2
REMARK    2  A    between atoms: C_6  and  C_7
REMARK    3  A    between atoms: C_7  and  N_8
REMARK    4  A    between atoms: C_9  and  C_11
REMARK    5  A    between atoms: N_14  and  C_15
REMARK    6  A    between atoms: C_25  and  C_26
REMARK                            x       y       z     vdW  Elec       q    Type
REMARK                         _______ _______ _______ _____ _____    ______ ____
ROOT
ATOM      1  C   UNL     1       2.423   7.700  18.453  0.00  0.00    +0.000 A 
ATOM      2  N   UNL     1       2.481   8.539  17.375  0.00  0.00    +0.000 NA
ATOM      3  N   UNL     1       1.790   9.630  17.663  0.00  0.00    +0.000 NA
ATOM      4  N   UNL     1       1.302   9.536  18.927  0.00  0.00    +0.000 N 
ATOM      5  C   UNL     1       1.667   8.300  19.455  0.00  0.00    +0.000 A 
ATOM      6  C   UNL     1       1.224   7.723  20.752  0.00  0.00    +0.000 C 
ENDROOT
BRANCH   4   7
ATOM      7  C   UNL     1       0.587  10.625  19.520  0.00  0.00    +0.000 A 
ATOM      8  C   UNL     1       1.258  11.431  20.459  0.00  0.00    +0.000 A 
ATOM      9  C   UNL     1       0.614  12.505  21.068  0.00  0.00    +0.000 A 
ATOM     10  C   UNL     1      -0.700  12.806  20.733  0.00  0.00    +0.000 A 
ATOM     11  C   UNL     1      -1.389  12.036  19.783  0.00  0.00    +0.000 A 
ATOM     12  C   UNL     1      -2.713  12.349  19.457  0.00  0.00    +0.000 A 
ATOM     13  N   UNL     1      -3.476  11.661  18.581  0.00  0.00    +0.000 NA
ATOM     14  C   UNL     1      -2.894  10.599  18.002  0.00  0.00    +0.000 A 
ATOM     15  C   UNL     1      -1.588  10.200  18.253  0.00  0.00    +0.000 A 
ATOM     16  C   UNL     1      -0.770  10.928  19.155  0.00  0.00    +0.000 A 
ENDBRANCH   4   7
BRANCH   1  18
ATOM     17  N   UNL     1       2.222   5.342  18.039  0.00  0.00    +0.000 N 
ATOM     18  C   UNL     1       3.040   6.372  18.464  0.00  0.00    +0.000 C 
ATOM     19  O   UNL     1       4.195   6.185  18.838  0.00  0.00    +0.000 OA
ATOM     20  H   UNL     1       1.243   5.551  17.880  0.00  0.00    +0.000 HD
BRANCH  17  21
ATOM     21  C   UNL     1       2.650   3.968  18.153  0.00  0.00    +0.000 C 
BRANCH  21  27
ATOM     22  C   UNL     1       4.557   2.175  20.197  0.00  0.00    +0.000 C 
ATOM     23  C   UNL     1       3.182   2.700  20.338  0.00  0.00    +0.000 A 
ATOM     24  O   UNL     1       2.574   2.452  21.532  0.00  0.00    +0.000 OA
ATOM     25  C   UNL     1       1.352   3.033  21.487  0.00  0.00    +0.000 A 
ATOM     26  C   UNL     1       1.158   3.647  20.273  0.00  0.00    +0.000 A 
ATOM     27  C   UNL     1       2.347   3.437  19.511  0.00  0.00    +0.000 A 
ENDBRANCH  21  27
ENDBRANCH  17  21
ENDBRANCH   1  18
TORSDOF 4
ENDMDL
MODEL 7
REMARK VINA RESULT:      -8.2      3.097      8.489
REMARK  Name = 
REMARK  6 active torsions:
REMARK  status: ('A' for Active; 'I' for Inactive)
REMARK    1  A    between atoms: C_1  and  C_2
REMARK    2  A    between atoms: C_6  and  C_7
REMARK    3  A    between atoms: C_7  and  N_8
REMARK    4  A    between atoms: C_9  and  C_11
REMARK    5  A    between atoms: N_14  and  C_15
REMARK    6  A    between atoms: C_25  and  C_26
REMARK                            x       y       z     vdW  Elec       q    Type
REMARK                         _______ _______ _______ _____ _____    ______ ____
ROOT
ATOM      1  C   UNL     1       1.594   8.911  18.632  0.00  0.00    +0.000 A 
ATOM      2  N   UNL     1       2.253   8.899  17.434  0.00  0.00    +0.000 NA
ATOM      3  N   UNL     1       3.045   7.840  17.408  0.00  0.00    +0.000 NA
ATOM      4  N   UNL     1       2.897   7.136  18.560  0.00  0.00    +0.000 N 
ATOM      5  C   UNL     1       1.993   7.807  19.380  0.00  0.00    +0.000 A 
ATOM      6  C   UNL     1       1.649   7.468  20.786  0.00  0.00    +0.000 C 
ENDROOT
BRANCH   4   7
ATOM      7  C   UNL     1       3.581   5.893  18.753  0.00  0.00    +0.000 A 
ATOM      8  C   UNL     1       4.969   5.925  18.985  0.00  0.00    +0.000 A 
ATOM      9  C   UNL     1       5.687   4.747  19.181  0.00  0.00    +0.000 A 
ATOM     10  C   UNL     1       5.029   3.524  19.172  0.00  0.00    +0.000 A 
ATOM     11  C   UNL     1       3.642   3.460  18.967  0.00  0.00    +0.000 A 
ATOM     12  C   UNL     1       2.993   2.222  18.958  0.00  0.00    +0.000 A 
ATOM     13  N   UNL     1       1.672   2.043  18.743  0.00  0.00    +0.000 NA
ATOM     14  C   UNL     1       0.957   3.157  18.517  0.00  0.00    +0.000 A 
ATOM     15  C   UNL     1       1.500   4.435  18.503  0.00  0.00    +0.000 A 
ATOM     16  C   UNL     1       2.883   4.636  18.749  0.00  0.00    +0.000 A 
ENDBRANCH   4   7
BRANCH   1  18
ATOM     17  N   UNL     1      -0.477  10.067  18.252  0.00  0.00    +0.000 N 
ATOM     18  C   UNL     1       0.666   9.975  19.022  0.00  0.00    +0.000 C 
ATOM     19  O   UNL     1       0.895  10.737  19.958  0.00  0.00    +0.000 OA
ATOM     20  H   UNL     1      -0.531   9.497  17.415  0.00  0.00    +0.000 HD
BRANCH  17  21
ATOM     21  C   UNL     1      -1.393  11.169  18.426  0.00  0.00    +0.000 C 
BRANCH  21  27
ATOM     22  C   UNL     1      -4.587  11.973  18.861  0.00  0.00    +0.000 C 
ATOM     23  C   UNL     1      -3.860  11.411  17.702  0.00  0.00    +0.000 A 
ATOM     24  O   UNL     1      -4.603  11.214  16.577  0.00  0.00    +0.000 OA
ATOM     25  C   UNL     1      -3.768  10.735  15.624  0.00  0.00    +0.000 A 
ATOM     26  C   UNL     1      -2.494  10.611  16.124  0.00  0.00    +0.000 A 
ATOM     27  C   UNL     1      -2.538  11.050  17.481  0.00  0.00    +0.000 A 
ENDBRANCH  21  27
ENDBRANCH  17  21
ENDBRANCH   1  18
TORSDOF 4
ENDMDL
MODEL 8
REMARK VINA RESULT:      -8.2      4.964      7.782
REMARK  Name = 
REMARK  6 active torsions:
REMARK  status: ('A' for Active; 'I' for Inactive)
REMARK    1  A    between atoms: C_1  and  C_2
REMARK    2  A    between atoms: C_6  and  C_7
REMARK    3  A    between atoms: C_7  and  N_8
REMARK    4  A    between atoms: C_9  and  C_11
REMARK    5  A    between atoms: N_14  and  C_15
REMARK    6  A    between atoms: C_25  and  C_26
REMARK                            x       y       z     vdW  Elec       q    Type
REMARK                         _______ _______ _______ _____ _____    ______ ____
ROOT
ATOM      1  C   UNL     1       7.071   6.472  18.209  0.00  0.00    +0.000 A 
ATOM      2  N   UNL     1       7.437   5.829  19.359  0.00  0.00    +0.000 NA
ATOM      3  N   UNL     1       6.511   4.928  19.642  0.00  0.00    +0.000 NA
ATOM      4  N   UNL     1       5.553   4.945  18.679  0.00  0.00    +0.000 N 
ATOM      5  C   UNL     1       5.866   5.942  17.757  0.00  0.00    +0.000 A 
ATOM      6  C   UNL     1       5.018   6.403  16.626  0.00  0.00    +0.000 C 
ENDROOT
BRANCH   4   7
ATOM      7  C   UNL     1       4.474   4.004  18.699  0.00  0.00    +0.000 A 
ATOM      8  C   UNL     1       4.660   2.764  18.062  0.00  0.00    +0.000 A 
ATOM      9  C   UNL     1       3.646   1.808  18.050  0.00  0.00    +0.000 A 
ATOM     10  C   UNL     1       2.442   2.066  18.693  0.00  0.00    +0.000 A 
ATOM     11  C   UNL     1       2.235   3.284  19.359  0.00  0.00    +0.000 A 
ATOM     12  C   UNL     1       1.017   3.532  20.000  0.00  0.00    +0.000 A 
ATOM     13  N   UNL     1       0.701   4.676  20.643  0.00  0.00    +0.000 NA
ATOM     14  C   UNL     1       1.646   5.630  20.644  0.00  0.00    +0.000 A 
ATOM     15  C   UNL     1       2.887   5.490  20.038  0.00  0.00    +0.000 A 
ATOM     16  C   UNL     1       3.238   4.284  19.377  0.00  0.00    +0.000 A 
ENDBRANCH   4   7
BRANCH   1  18
ATOM     17  N   UNL     1       8.167   8.588  18.505  0.00  0.00    +0.000 N 
ATOM     18  C   UNL     1       7.845   7.570  17.628  0.00  0.00    +0.000 C 
ATOM     19  O   UNL     1       8.172   7.592  16.444  0.00  0.00    +0.000 OA
ATOM     20  H   UNL     1       7.746   8.569  19.427  0.00  0.00    +0.000 HD
BRANCH  17  21
ATOM     21  C   UNL     1       8.785   9.802  18.028  0.00  0.00    +0.000 C 
BRANCH  21  27
ATOM     22  C   UNL     1      11.520  11.687  18.027  0.00  0.00    +0.000 C 
ATOM     23  C   UNL     1      10.572  11.324  19.103  0.00  0.00    +0.000 A 
ATOM     24  O   UNL     1      10.817  11.885  20.320  0.00  0.00    +0.000 OA
ATOM     25  C   UNL     1       9.836  11.471  21.157  0.00  0.00    +0.000 A 
ATOM     26  C   UNL     1       8.963  10.640  20.495  0.00  0.00    +0.000 A 
ATOM     27  C   UNL     1       9.431  10.536  19.151  0.00  0.00    +0.000 A 
ENDBRANCH  21  27
ENDBRANCH  17  21
ENDBRANCH   1  18
TORSDOF 4
ENDMDL
MODEL 9
REMARK VINA RESULT:      -8.1      1.992      2.956
REMARK  Name = 
REMARK  6 active torsions:
REMARK  status: ('A' for Active; 'I' for Inactive)
REMARK    1  A    between atoms: C_1  and  C_2
REMARK    2  A    between atoms: C_6  and  C_7
REMARK    3  A    between atoms: C_7  and  N_8
REMARK    4  A    between atoms: C_9  and  C_11
REMARK    5  A    between atoms: N_14  and  C_15
REMARK    6  A    between atoms: C_25  and  C_26
REMARK                            x       y       z     vdW  Elec       q    Type
REMARK                         _______ _______ _______ _____ _____    ______ ____
ROOT
ATOM      1  C   UNL     1       3.080   5.835  19.269  0.00  0.00    +0.000 A 
ATOM      2  N   UNL     1       2.325   5.579  20.380  0.00  0.00    +0.000 NA
ATOM      3  N   UNL     1       1.599   6.653  20.643  0.00  0.00    +0.000 NA
ATOM      4  N   UNL     1       1.841   7.605  19.704  0.00  0.00    +0.000 N 
ATOM      5  C   UNL     1       2.806   7.124  18.822  0.00  0.00    +0.000 A 
ATOM      6  C   UNL     1       3.471   7.887  17.733  0.00  0.00    +0.000 C 
ENDROOT
BRANCH   4   7
ATOM      7  C   UNL     1       1.118   8.840  19.707  0.00  0.00    +0.000 A 
ATOM      8  C   UNL     1       0.898   9.486  18.476  0.00  0.00    +0.000 A 
ATOM      9  C   UNL     1       0.200  10.690  18.417  0.00  0.00    +0.000 A 
ATOM     10  C   UNL     1      -0.310  11.254  19.579  0.00  0.00    +0.000 A 
ATOM     11  C   UNL     1      -0.129  10.622  20.819  0.00  0.00    +0.000 A 
ATOM     12  C   UNL     1      -0.645  11.202  21.982  0.00  0.00    +0.000 A 
ATOM     13  N   UNL     1      -0.505  10.697  23.226  0.00  0.00    +0.000 NA
ATOM     14  C   UNL     1       0.193   9.553  23.321  0.00  0.00    +0.000 A 
ATOM     15  C   UNL     1       0.748   8.894  22.233  0.00  0.00    +0.000 A 
ATOM     16  C   UNL     1       0.590   9.405  20.918  0.00  0.00    +0.000 A 
ENDBRANCH   4   7
BRANCH   1  18
ATOM     17  N   UNL     1       4.028   4.756  17.345  0.00  0.00    +0.000 N 
ATOM     18  C   UNL     1       4.043   4.878  18.721  0.00  0.00    +0.000 C 
ATOM     19  O   UNL     1       4.798   4.221  19.434  0.00  0.00    +0.000 OA
ATOM     20  H   UNL     1       3.287   5.224  16.836  0.00  0.00    +0.000 HD
BRANCH  17  21
ATOM     21  C   UNL     1       4.811   3.735  16.689  0.00  0.00    +0.000 C 
BRANCH  21  27
ATOM     22  C   UNL     1       7.234   5.906  17.354  0.00  0.00    +0.000 C 
ATOM     23  C   UNL     1       6.817   5.248  16.098  0.00  0.00    +0.000 A 
ATOM     24  O   UNL     1       7.574   5.536  15.001  0.00  0.00    +0.000 OA
ATOM     25  C   UNL     1       7.068   4.821  13.968  0.00  0.00    +0.000 A 
ATOM     26  C   UNL     1       5.986   4.082  14.382  0.00  0.00    +0.000 A 
ATOM     27  C   UNL     1       5.810   4.351  15.773  0.00  0.00    +0.000 A 
ENDBRANCH  21  27
ENDBRANCH  17  21
ENDBRANCH   1  18
TORSDOF 4
ENDMDL
