MODEL 1
REMARK VINA RESULT:      -9.2      0.000      0.000
REMARK  Name = 
REMARK  8 active torsions:
REMARK  status: ('A' for Active; 'I' for Inactive)
REMARK    1  A    between atoms: C_1  and  C_2
REMARK    2  A    between atoms: C_8  and  C_9
REMARK    3  A    between atoms: C_9  and  C_10
REMARK    4  A    between atoms: N_12  and  C_13
REMARK    5  A    between atoms: C_19  and  C_20
REMARK    6  A    between atoms: N_24  and  C_25
REMARK    7  A    between atoms: C_25  and  C_26
REMARK    8  A    between atoms: C_25  and  C_27
REMARK                            x       y       z     vdW  Elec       q    Type
REMARK                         _______ _______ _______ _____ _____    ______ ____
ROOT
ATOM      1  C   UNL     1       3.179   5.168  18.112  0.00  0.00    +0.000 C 
ATOM      2  C   UNL     1       2.380   4.194  17.234  0.00  0.00    +0.000 C 
ATOM      3  C   UNL     1       2.296   2.803  17.845  0.00  0.00    +0.000 C 
ATOM      4  C   UNL     1       3.600   2.269  18.395  0.00  0.00    +0.000 C 
ATOM      5  O   UNL     1       3.785   1.067  18.561  0.00  0.00    +0.000 OA
ATOM      6  N   UNL     1       4.535   3.168  18.809  0.00  0.00    +0.000 N 
ATOM      7  C   UNL     1       4.593   4.570  18.435  0.00  0.00    +0.000 C 
ATOM      8  H   UNL     1       5.383   2.737  19.159  0.00  0.00    +0.000 HD
ENDROOT
BRANCH   7   9
ATOM      9  C   UNL     1       5.543   4.686  17.268  0.00  0.00    +0.000 A 
ATOM     10  C   UNL     1       5.661   3.891  16.137  0.00  0.00    +0.000 A 
ATOM     11  C   UNL     1       6.603   4.525  15.323  0.00  0.00    +0.000 A 
ATOM     12  N   UNL     1       7.126   5.595  15.910  0.00  0.00    +0.000 NA
ATOM     13  N   UNL     1       6.518   5.657  17.116  0.00  0.00    +0.000 N 
BRANCH  13  14
ATOM     14  C   UNL     1       7.036   6.623  18.090  0.00  0.00    +0.000 C 
ATOM     15  C   UNL     1       7.993   5.931  19.064  0.00  0.00    +0.000 C 
ATOM     16  C   UNL     1       7.746   7.811  17.425  0.00  0.00    +0.000 C 
ENDBRANCH  13  14
ENDBRANCH   7   9
BRANCH   1  19
ATOM     17  C   UNL     1       2.116   6.816  19.642  0.00  0.00    +0.000 C 
ATOM     18  O   UNL     1       2.614   7.763  19.037  0.00  0.00    +0.000 OA
ATOM     19  N   UNL     1       2.383   5.501  19.307  0.00  0.00    +0.000 N 
ATOM     20  H   UNL     1       1.706   4.814  19.624  0.00  0.00    +0.000 HD
BRANCH  17  21
ATOM     21  C   UNL     1       1.192   6.996  20.836  0.00  0.00    +0.000 C 
BRANCH  21  29
ATOM     22  C   UNL     1      -1.885  10.712  17.551  0.00  0.00    +0.000 C 
ATOM     23  C   UNL     1      -1.087  10.675  18.824  0.00  0.00    +0.000 A 
ATOM     24  C   UNL     1      -0.909  11.840  19.581  0.00  0.00    +0.000 A 
ATOM     25  C   UNL     1      -0.178  11.828  20.776  0.00  0.00    +0.000 A 
ATOM     26  C   UNL     1       0.356  10.603  21.167  0.00  0.00    +0.000 A 
ATOM     27  O   UNL     1       1.097  10.396  22.289  0.00  0.00    +0.000 OA
ATOM     28  C   UNL     1       1.451   9.089  22.294  0.00  0.00    +0.000 A 
ATOM     29  C   UNL     1       0.943   8.424  21.192  0.00  0.00    +0.000 A 
ATOM     30  C   UNL     1       0.215   9.418  20.456  0.00  0.00    +0.000 A 
ATOM     31  C   UNL     1      -0.522   9.455  19.255  0.00  0.00    +0.000 A 
ENDBRANCH  21  29
ENDBRANCH  17  21
ENDBRANCH   1  19
TORSDOF 5
ENDMDL
MODEL 2
REMARK VINA RESULT:      -8.9      1.122      1.458
REMARK  Name = 
REMARK  8 active torsions:
REMARK  status: ('A' for Active; 'I' for Inactive)
REMARK    1  A    between atoms: C_1  and  C_2
REMARK    2  A    between atoms: C_8  and  C_9
REMARK    3  A    between atoms: C_9  and  C_10
REMARK    4  A    between atoms: N_12  and  C_13
REMARK    5  A    between atoms: C_19  and  C_20
REMARK    6  A    between atoms: N_24  and  C_25
REMARK    7  A    between atoms: C_25  and  C_26
REMARK    8  A    between atoms: C_25  and  C_27
REMARK                            x       y       z     vdW  Elec       q    Type
REMARK                         _______ _______ _______ _____ _____    ______ ____
ROOT
ATOM      1  C   UNL     1       2.898   5.931  18.471  0.00  0.00    +0.000 C 
ATOM      2  C   UNL     1       1.869   5.059  17.738  0.00  0.00    +0.000 C 
ATOM      3  C   UNL     1       1.448   3.850  18.561  0.00  0.00    +0.000 C 
ATOM      4  C   UNL     1       2.584   3.104  19.225  0.00  0.00    +0.000 C 
ATOM      5  O   UNL     1       2.465   1.936  19.586  0.00  0.00    +0.000 OA
ATOM      6  N   UNL     1       3.720   3.796  19.517  0.00  0.00    +0.000 N 
ATOM      7  C   UNL     1       4.122   5.061  18.925  0.00  0.00    +0.000 C 
ATOM      8  H   UNL     1       4.438   3.230  19.954  0.00  0.00    +0.000 HD
ENDROOT
BRANCH   7   9
ATOM      9  C   UNL     1       5.055   4.746  17.782  0.00  0.00    +0.000 A 
ATOM     10  C   UNL     1       4.967   3.761  16.809  0.00  0.00    +0.000 A 
ATOM     11  C   UNL     1       6.018   4.005  15.922  0.00  0.00    +0.000 A 
ATOM     12  N   UNL     1       6.786   5.010  16.328  0.00  0.00    +0.000 NA
ATOM     13  N   UNL     1       6.228   5.422  17.489  0.00  0.00    +0.000 N 
BRANCH  13  14
ATOM     14  C   UNL     1       6.971   6.396  18.293  0.00  0.00    +0.000 C 
ATOM     15  C   UNL     1       8.027   5.684  19.144  0.00  0.00    +0.000 C 
ATOM     16  C   UNL     1       7.642   7.481  17.439  0.00  0.00    +0.000 C 
ENDBRANCH  13  14
ENDBRANCH   7   9
BRANCH   1  19
ATOM     17  C   UNL     1       1.929   7.988  19.481  0.00  0.00    +0.000 C 
ATOM     18  O   UNL     1       2.303   8.679  18.536  0.00  0.00    +0.000 OA
ATOM     19  N   UNL     1       2.227   6.641  19.576  0.00  0.00    +0.000 N 
ATOM     20  H   UNL     1       1.628   6.094  20.187  0.00  0.00    +0.000 HD
BRANCH  17  21
ATOM     21  C   UNL     1       1.139   8.552  20.652  0.00  0.00    +0.000 C 
BRANCH  21  29
ATOM     22  C   UNL     1      -2.675   9.839  16.426  0.00  0.00    +0.000 C 
ATOM     23  C   UNL     1      -1.884  10.504  17.517  0.00  0.00    +0.000 A 
ATOM     24  C   UNL     1      -1.958  11.891  17.701  0.00  0.00    +0.000 A 
ATOM     25  C   UNL     1      -1.238  12.530  18.717  0.00  0.00    +0.000 A 
ATOM     26  C   UNL     1      -0.452  11.718  19.530  0.00  0.00    +0.000 A 
ATOM     27  O   UNL     1       0.320  12.157  20.561  0.00  0.00    +0.000 OA
ATOM     28  C   UNL     1       0.947  11.072  21.075  0.00  0.00    +0.000 A 
ATOM     29  C   UNL     1       0.590   9.917  20.404  0.00  0.00    +0.000 A 
ATOM     30  C   UNL     1      -0.337  10.340  19.393  0.00  0.00    +0.000 A 
ATOM     31  C   UNL     1      -1.068   9.719  18.360  0.00  0.00    +0.000 A 
ENDBRANCH  21  29
ENDBRANCH  17  21
ENDBRANCH   1  19
TORSDOF 5
ENDMDL
MODEL 3
REMARK VINA RESULT:      -8.7      1.196      1.661
REMARK  Name = 
REMARK  8 active torsions:
REMARK  status: ('A' for Active; 'I' for Inactive)
REMARK    1  A    between atoms: C_1  and  C_2
REMARK    2  A    between atoms: C_8  and  C_9
REMARK    3  A    between atoms: C_9  and  C_10
REMARK    4  A    between atoms: N_12  and  C_13
REMARK    5  A    between atoms: C_19  and  C_20
REMARK    6  A    between atoms: N_24  and  C_25
REMARK    7  A    between atoms: C_25  and  C_26
REMARK    8  A    between atoms: C_25  and  C_27
REMARK                            x       y       z     vdW  Elec       q    Type
REMARK                         _______ _______ _______ _____ _____    ______ ____
ROOT
ATOM      1  C   UNL     1       3.263   5.950  18.093  0.00  0.00    +0.000 C 
ATOM      2  C   UNL     1       2.446   4.702  17.733  0.00  0.00    +0.000 C 
ATOM      3  C   UNL     1       2.554   3.616  18.794  0.00  0.00    +0.000 C 
ATOM      4  C   UNL     1       3.956   3.357  19.299  0.00  0.00    +0.000 C 
ATOM      5  O   UNL     1       4.260   2.299  19.843  0.00  0.00    +0.000 OA
ATOM      6  N   UNL     1       4.857   4.376  19.237  0.00  0.00    +0.000 N 
ATOM      7  C   UNL     1       4.751   5.556  18.396  0.00  0.00    +0.000 C 
ATOM      8  H   UNL     1       5.775   4.127  19.587  0.00  0.00    +0.000 HD
ENDROOT
BRANCH   7   9
ATOM      9  C   UNL     1       5.538   5.283  17.137  0.00  0.00    +0.000 A 
ATOM     10  C   UNL     1       5.216   4.492  16.043  0.00  0.00    +0.000 A 
ATOM     11  C   UNL     1       6.232   4.704  15.108  0.00  0.00    +0.000 A 
ATOM     12  N   UNL     1       7.186   5.495  15.583  0.00  0.00    +0.000 NA
ATOM     13  N   UNL     1       6.787   5.801  16.838  0.00  0.00    +0.000 N 
BRANCH  13  14
ATOM     14  C   UNL     1       7.739   6.503  17.704  0.00  0.00    +0.000 C 
ATOM     15  C   UNL     1       7.357   7.982  17.819  0.00  0.00    +0.000 C 
ATOM     16  C   UNL     1       7.834   5.884  19.105  0.00  0.00    +0.000 C 
ENDBRANCH  13  14
ENDBRANCH   7   9
BRANCH   1  19
ATOM     17  C   UNL     1       2.119   7.946  19.040  0.00  0.00    +0.000 C 
ATOM     18  O   UNL     1       2.323   8.599  18.019  0.00  0.00    +0.000 OA
ATOM     19  N   UNL     1       2.596   6.658  19.202  0.00  0.00    +0.000 N 
ATOM     20  H   UNL     1       2.124   6.093  19.901  0.00  0.00    +0.000 HD
BRANCH  17  21
ATOM     21  C   UNL     1       1.358   8.501  20.234  0.00  0.00    +0.000 C 
BRANCH  21  29
ATOM     22  C   UNL     1      -2.790   9.714  16.312  0.00  0.00    +0.000 C 
ATOM     23  C   UNL     1      -1.911  10.398  17.321  0.00  0.00    +0.000 A 
ATOM     24  C   UNL     1      -1.970  11.789  17.483  0.00  0.00    +0.000 A 
ATOM     25  C   UNL     1      -1.168  12.446  18.425  0.00  0.00    +0.000 A 
ATOM     26  C   UNL     1      -0.318  11.648  19.186  0.00  0.00    +0.000 A 
ATOM     27  O   UNL     1       0.536  12.105  20.141  0.00  0.00    +0.000 OA
ATOM     28  C   UNL     1       1.203  11.029  20.623  0.00  0.00    +0.000 A 
ATOM     29  C   UNL     1       0.790   9.862  20.005  0.00  0.00    +0.000 A 
ATOM     30  C   UNL     1      -0.216  10.268  19.066  0.00  0.00    +0.000 A 
ATOM     31  C   UNL     1      -1.030   9.628  18.110  0.00  0.00    +0.000 A 
ENDBRANCH  21  29
ENDBRANCH  17  21
ENDBRANCH   1  19
TORSDOF 5
ENDMDL
MODEL 4
REMARK VINA RESULT:      -8.4      1.988      2.715
REMARK  Name = 
REMARK  8 active torsions:
REMARK  status: ('A' for Active; 'I' for Inactive)
REMARK    1  A    between atoms: C_1  and  C_2
REMARK    2  A    between atoms: C_8  and  C_9
REMARK    3  A    between atoms: C_9  and  C_10
REMARK    4  A    between atoms: N_12  and  C_13
REMARK    5  A    between atoms: C_19  and  C_20
REMARK    6  A    between atoms: N_24  and  C_25
REMARK    7  A    between atoms: C_25  and  C_26
REMARK    8  A    between atoms: C_25  and  C_27
REMARK                            x       y       z     vdW  Elec       q    Type
REMARK                         _______ _______ _______ _____ _____    ______ ____
ROOT
ATOM      1  C   UNL     1       3.192   6.156  17.994  0.00  0.00    +0.000 C 
ATOM      2  C   UNL     1       2.230   4.987  17.740  0.00  0.00    +0.000 C 
ATOM      3  C   UNL     1       2.133   4.050  18.935  0.00  0.00    +0.000 C 
ATOM      4  C   UNL     1       3.459   3.682  19.565  0.00  0.00    +0.000 C 
ATOM      5  O   UNL     1       3.586   2.676  20.258  0.00  0.00    +0.000 OA
ATOM      6  N   UNL     1       4.494   4.557  19.435  0.00  0.00    +0.000 N 
ATOM      7  C   UNL     1       4.594   5.616  18.446  0.00  0.00    +0.000 C 
ATOM      8  H   UNL     1       5.349   4.241  19.876  0.00  0.00    +0.000 HD
ENDROOT
BRANCH   7   9
ATOM      9  C   UNL     1       5.398   5.076  17.288  0.00  0.00    +0.000 A 
ATOM     10  C   UNL     1       5.067   4.105  16.354  0.00  0.00    +0.000 A 
ATOM     11  C   UNL     1       6.115   4.093  15.430  0.00  0.00    +0.000 A 
ATOM     12  N   UNL     1       7.093   4.919  15.778  0.00  0.00    +0.000 NA
ATOM     13  N   UNL     1       6.677   5.475  16.939  0.00  0.00    +0.000 N 
BRANCH  13  14
ATOM     14  C   UNL     1       7.639   6.289  17.687  0.00  0.00    +0.000 C 
ATOM     15  C   UNL     1       7.279   7.773  17.571  0.00  0.00    +0.000 C 
ATOM     16  C   UNL     1       7.725   5.894  19.168  0.00  0.00    +0.000 C 
ENDBRANCH  13  14
ENDBRANCH   7   9
BRANCH   1  19
ATOM     17  C   UNL     1       2.087   8.316  18.545  0.00  0.00    +0.000 C 
ATOM     18  O   UNL     1       2.246   8.737  17.401  0.00  0.00    +0.000 OA
ATOM     19  N   UNL     1       2.573   7.088  18.955  0.00  0.00    +0.000 N 
ATOM     20  H   UNL     1       2.133   6.687  19.778  0.00  0.00    +0.000 HD
BRANCH  17  21
ATOM     21  C   UNL     1       1.379   9.117  19.626  0.00  0.00    +0.000 C 
BRANCH  21  29
ATOM     22  C   UNL     1       3.094  14.696  19.616  0.00  0.00    +0.000 C 
ATOM     23  C   UNL     1       1.911  13.845  19.251  0.00  0.00    +0.000 A 
ATOM     24  C   UNL     1       0.744  14.434  18.746  0.00  0.00    +0.000 A 
ATOM     25  C   UNL     1      -0.367  13.660  18.389  0.00  0.00    +0.000 A 
ATOM     26  C   UNL     1      -0.249  12.284  18.560  0.00  0.00    +0.000 A 
ATOM     27  O   UNL     1      -1.220  11.374  18.275  0.00  0.00    +0.000 OA
ATOM     28  C   UNL     1      -0.730  10.156  18.608  0.00  0.00    +0.000 A 
ATOM     29  C   UNL     1       0.560  10.247  19.098  0.00  0.00    +0.000 A 
ATOM     30  C   UNL     1       0.880  11.645  19.058  0.00  0.00    +0.000 A 
ATOM     31  C   UNL     1       1.985  12.445  19.414  0.00  0.00    +0.000 A 
ENDBRANCH  21  29
ENDBRANCH  17  21
ENDBRANCH   1  19
TORSDOF 5
ENDMDL
MODEL 5
REMARK VINA RESULT:      -8.3      3.921      7.714
REMARK  Name = 
REMARK  8 active torsions:
REMARK  status: ('A' for Active; 'I' for Inactive)
REMARK    1  A    between atoms: C_1  and  C_2
REMARK    2  A    between atoms: C_8  and  C_9
REMARK    3  A    between atoms: C_9  and  C_10
REMARK    4  A    between atoms: N_12  and  C_13
REMARK    5  A    between atoms: C_19  and  C_20
REMARK    6  A    between atoms: N_24  and  C_25
REMARK    7  A    between atoms: C_25  and  C_26
REMARK    8  A    between atoms: C_25  and  C_27
REMARK                            x       y       z     vdW  Elec       q    Type
REMARK                         _______ _______ _______ _____ _____    ______ ____
ROOT
ATOM      1  C   UNL     1       6.269   6.168  17.546  0.00  0.00    +0.000 C 
ATOM      2  C   UNL     1       7.326   5.113  17.192  0.00  0.00    +0.000 C 
ATOM      3  C   UNL     1       7.521   4.974  15.689  0.00  0.00    +0.000 C 
ATOM      4  C   UNL     1       6.242   4.915  14.883  0.00  0.00    +0.000 C 
ATOM      5  O   UNL     1       6.213   4.435  13.754  0.00  0.00    +0.000 OA
ATOM      6  N   UNL     1       5.132   5.512  15.400  0.00  0.00    +0.000 N 
ATOM      7  C   UNL     1       4.926   5.863  16.794  0.00  0.00    +0.000 C 
ATOM      8  H   UNL     1       4.314   5.427  14.808  0.00  0.00    +0.000 HD
ENDROOT
BRANCH   7   9
ATOM      9  C   UNL     1       4.156   4.733  17.433  0.00  0.00    +0.000 A 
ATOM     10  C   UNL     1       4.014   3.415  17.026  0.00  0.00    +0.000 A 
ATOM     11  C   UNL     1       3.314   2.773  18.051  0.00  0.00    +0.000 A 
ATOM     12  N   UNL     1       2.949   3.618  19.007  0.00  0.00    +0.000 NA
ATOM     13  N   UNL     1       3.416   4.821  18.600  0.00  0.00    +0.000 N 
BRANCH  13  14
ATOM     14  C   UNL     1       2.993   6.005  19.352  0.00  0.00    +0.000 C 
ATOM     15  C   UNL     1       2.338   7.022  18.413  0.00  0.00    +0.000 C 
ATOM     16  C   UNL     1       2.029   5.666  20.498  0.00  0.00    +0.000 C 
ENDBRANCH  13  14
ENDBRANCH   7   9
BRANCH   1  19
ATOM     17  C   UNL     1       7.921   7.981  17.957  0.00  0.00    +0.000 C 
ATOM     18  O   UNL     1       8.426   7.367  18.894  0.00  0.00    +0.000 OA
ATOM     19  N   UNL     1       6.817   7.509  17.271  0.00  0.00    +0.000 N 
ATOM     20  H   UNL     1       6.671   7.892  16.343  0.00  0.00    +0.000 HD
BRANCH  17  21
ATOM     21  C   UNL     1       8.435   9.333  17.487  0.00  0.00    +0.000 C 
BRANCH  21  29
ATOM     22  C   UNL     1      12.306  13.608  16.595  0.00  0.00    +0.000 C 
ATOM     23  C   UNL     1      11.609  12.890  17.715  0.00  0.00    +0.000 A 
ATOM     24  C   UNL     1      11.883  13.222  19.049  0.00  0.00    +0.000 A 
ATOM     25  C   UNL     1      11.237  12.573  20.108  0.00  0.00    +0.000 A 
ATOM     26  C   UNL     1      10.314  11.588  19.767  0.00  0.00    +0.000 A 
ATOM     27  O   UNL     1       9.595  10.849  20.654  0.00  0.00    +0.000 OA
ATOM     28  C   UNL     1       8.841   9.986  19.931  0.00  0.00    +0.000 A 
ATOM     29  C   UNL     1       9.043  10.156  18.574  0.00  0.00    +0.000 A 
ATOM     30  C   UNL     1      10.005  11.215  18.465  0.00  0.00    +0.000 A 
ATOM     31  C   UNL     1      10.670  11.880  17.414  0.00  0.00    +0.000 A 
ENDBRANCH  21  29
ENDBRANCH  17  21
ENDBRANCH   1  19
TORSDOF 5
ENDMDL
MODEL 6
REMARK VINA RESULT:      -8.3      2.170      4.104
REMARK  Name = 
REMARK  8 active torsions:
REMARK  status: ('A' for Active; 'I' for Inactive)
REMARK    1  A    between atoms: C_1  and  C_2
REMARK    2  A    between atoms: C_8  and  C_9
REMARK    3  A    between atoms: C_9  and  C_10
REMARK    4  A    between atoms: N_12  and  C_13
REMARK    5  A    between atoms: C_19  and  C_20
REMARK    6  A    between atoms: N_24  and  C_25
REMARK    7  A    between atoms: C_25  and  C_26
REMARK    8  A    between atoms: C_25  and  C_27
REMARK                            x       y       z     vdW  Elec       q    Type
REMARK                         _______ _______ _______ _____ _____    ______ ____
ROOT
ATOM      1  C   UNL     1       3.773   6.016  18.548  0.00  0.00    +0.000 C 
ATOM      2  C   UNL     1       5.279   6.147  18.279  0.00  0.00    +0.000 C 
ATOM      3  C   UNL     1       5.638   5.818  16.837  0.00  0.00    +0.000 C 
ATOM      4  C   UNL     1       4.980   4.573  16.285  0.00  0.00    +0.000 C 
ATOM      5  O   UNL     1       5.441   3.976  15.316  0.00  0.00    +0.000 OA
ATOM      6  N   UNL     1       3.790   4.185  16.823  0.00  0.00    +0.000 N 
ATOM      7  C   UNL     1       3.266   4.596  18.114  0.00  0.00    +0.000 C 
ATOM      8  H   UNL     1       3.414   3.341  16.407  0.00  0.00    +0.000 HD
ENDROOT
BRANCH   7   9
ATOM      9  C   UNL     1       3.638   3.526  19.111  0.00  0.00    +0.000 A 
ATOM     10  C   UNL     1       4.855   2.895  19.324  0.00  0.00    +0.000 A 
ATOM     11  C   UNL     1       4.676   2.093  20.454  0.00  0.00    +0.000 A 
ATOM     12  N   UNL     1       3.423   2.125  20.891  0.00  0.00    +0.000 NA
ATOM     13  N   UNL     1       2.782   2.956  20.038  0.00  0.00    +0.000 N 
BRANCH  13  14
ATOM     14  C   UNL     1       1.322   3.038  20.136  0.00  0.00    +0.000 C 
ATOM     15  C   UNL     1       0.891   4.479  20.425  0.00  0.00    +0.000 C 
ATOM     16  C   UNL     1       0.613   2.530  18.872  0.00  0.00    +0.000 C 
ENDBRANCH  13  14
ENDBRANCH   7   9
BRANCH   1  19
ATOM     17  C   UNL     1       2.255   7.986  18.607  0.00  0.00    +0.000 C 
ATOM     18  O   UNL     1       1.990   7.799  19.792  0.00  0.00    +0.000 OA
ATOM     19  N   UNL     1       3.068   7.130  17.887  0.00  0.00    +0.000 N 
ATOM     20  H   UNL     1       3.488   7.515  17.046  0.00  0.00    +0.000 HD
BRANCH  17  21
ATOM     21  C   UNL     1       1.686   9.149  17.809  0.00  0.00    +0.000 C 
BRANCH  21  29
ATOM     22  C   UNL     1      -3.801  10.286  16.178  0.00  0.00    +0.000 C 
ATOM     23  C   UNL     1      -2.817  10.630  17.261  0.00  0.00    +0.000 A 
ATOM     24  C   UNL     1      -3.171  11.522  18.282  0.00  0.00    +0.000 A 
ATOM     25  C   UNL     1      -2.275  11.848  19.307  0.00  0.00    +0.000 A 
ATOM     26  C   UNL     1      -1.023  11.241  19.257  0.00  0.00    +0.000 A 
ATOM     27  O   UNL     1      -0.023  11.438  20.158  0.00  0.00    +0.000 OA
ATOM     28  C   UNL     1       1.034  10.698  19.743  0.00  0.00    +0.000 A 
ATOM     29  C   UNL     1       0.739  10.003  18.585  0.00  0.00    +0.000 A 
ATOM     30  C   UNL     1      -0.616  10.353  18.269  0.00  0.00    +0.000 A 
ATOM     31  C   UNL     1      -1.534  10.042  17.246  0.00  0.00    +0.000 A 
ENDBRANCH  21  29
ENDBRANCH  17  21
ENDBRANCH   1  19
TORSDOF 5
ENDMDL
MODEL 7
REMARK VINA RESULT:      -8.2      1.650      2.465
REMARK  Name = 
REMARK  8 active torsions:
REMARK  status: ('A' for Active; 'I' for Inactive)
REMARK    1  A    between atoms: C_1  and  C_2
REMARK    2  A    between atoms: C_8  and  C_9
REMARK    3  A    between atoms: C_9  and  C_10
REMARK    4  A    between atoms: N_12  and  C_13
REMARK    5  A    between atoms: C_19  and  C_20
REMARK    6  A    between atoms: N_24  and  C_25
REMARK    7  A    between atoms: C_25  and  C_26
REMARK    8  A    between atoms: C_25  and  C_27
REMARK                            x       y       z     vdW  Elec       q    Type
REMARK                         _______ _______ _______ _____ _____    ______ ____
ROOT
ATOM      1  C   UNL     1       3.178   6.061  18.023  0.00  0.00    +0.000 C 
ATOM      2  C   UNL     1       2.203   4.901  17.774  0.00  0.00    +0.000 C 
ATOM      3  C   UNL     1       2.101   3.967  18.972  0.00  0.00    +0.000 C 
ATOM      4  C   UNL     1       3.425   3.588  19.599  0.00  0.00    +0.000 C 
ATOM      5  O   UNL     1       3.544   2.582  20.294  0.00  0.00    +0.000 OA
ATOM      6  N   UNL     1       4.467   4.453  19.464  0.00  0.00    +0.000 N 
ATOM      7  C   UNL     1       4.576   5.508  18.472  0.00  0.00    +0.000 C 
ATOM      8  H   UNL     1       5.321   4.129  19.904  0.00  0.00    +0.000 HD
ENDROOT
BRANCH   7   9
ATOM      9  C   UNL     1       5.371   4.957  17.314  0.00  0.00    +0.000 A 
ATOM     10  C   UNL     1       5.026   3.992  16.379  0.00  0.00    +0.000 A 
ATOM     11  C   UNL     1       6.074   3.965  15.455  0.00  0.00    +0.000 A 
ATOM     12  N   UNL     1       7.063   4.779  15.803  0.00  0.00    +0.000 NA
ATOM     13  N   UNL     1       6.656   5.339  16.965  0.00  0.00    +0.000 N 
BRANCH  13  14
ATOM     14  C   UNL     1       7.629   6.140  17.713  0.00  0.00    +0.000 C 
ATOM     15  C   UNL     1       7.310   7.630  17.569  0.00  0.00    +0.000 C 
ATOM     16  C   UNL     1       7.686   5.765  19.200  0.00  0.00    +0.000 C 
ENDBRANCH  13  14
ENDBRANCH   7   9
BRANCH   1  19
ATOM     17  C   UNL     1       2.157   8.259  18.585  0.00  0.00    +0.000 C 
ATOM     18  O   UNL     1       2.375   8.696  17.457  0.00  0.00    +0.000 OA
ATOM     19  N   UNL     1       2.570   7.001  18.984  0.00  0.00    +0.000 N 
ATOM     20  H   UNL     1       2.084   6.604  19.782  0.00  0.00    +0.000 HD
BRANCH  17  21
ATOM     21  C   UNL     1       1.451   9.070  19.660  0.00  0.00    +0.000 C 
BRANCH  21  29
ATOM     22  C   UNL     1      -1.655  12.804  22.896  0.00  0.00    +0.000 C 
ATOM     23  C   UNL     1      -1.619  12.220  21.513  0.00  0.00    +0.000 A 
ATOM     24  C   UNL     1      -2.597  12.568  20.571  0.00  0.00    +0.000 A 
ATOM     25  C   UNL     1      -2.578  12.044  19.273  0.00  0.00    +0.000 A 
ATOM     26  C   UNL     1      -1.540  11.167  18.970  0.00  0.00    +0.000 A 
ATOM     27  O   UNL     1      -1.359  10.556  17.769  0.00  0.00    +0.000 OA
ATOM     28  C   UNL     1      -0.266   9.764  17.888  0.00  0.00    +0.000 A 
ATOM     29  C   UNL     1       0.287   9.855  19.153  0.00  0.00    +0.000 A 
ATOM     30  C   UNL     1      -0.546  10.784  19.862  0.00  0.00    +0.000 A 
ATOM     31  C   UNL     1      -0.588  11.321  21.164  0.00  0.00    +0.000 A 
ENDBRANCH  21  29
ENDBRANCH  17  21
ENDBRANCH   1  19
TORSDOF 5
ENDMDL
MODEL 8
REMARK VINA RESULT:      -8.1      2.071      3.987
REMARK  Name = 
REMARK  8 active torsions:
REMARK  status: ('A' for Active; 'I' for Inactive)
REMARK    1  A    between atoms: C_1  and  C_2
REMARK    2  A    between atoms: C_8  and  C_9
REMARK    3  A    between atoms: C_9  and  C_10
REMARK    4  A    between atoms: N_12  and  C_13
REMARK    5  A    between atoms: C_19  and  C_20
REMARK    6  A    between atoms: N_24  and  C_25
REMARK    7  A    between atoms: C_25  and  C_26
REMARK    8  A    between atoms: C_25  and  C_27
REMARK                            x       y       z     vdW  Elec       q    Type
REMARK                         _______ _______ _______ _____ _____    ______ ____
ROOT
ATOM      1  C   UNL     1       3.562   5.891  18.419  0.00  0.00    +0.000 C 
ATOM      2  C   UNL     1       5.021   6.001  18.883  0.00  0.00    +0.000 C 
ATOM      3  C   UNL     1       5.990   6.125  17.715  0.00  0.00    +0.000 C 
ATOM      4  C   UNL     1       5.736   5.167  16.573  0.00  0.00    +0.000 C 
ATOM      5  O   UNL     1       6.615   4.880  15.765  0.00  0.00    +0.000 OA
ATOM      6  N   UNL     1       4.467   4.708  16.392  0.00  0.00    +0.000 N 
ATOM      7  C   UNL     1       3.408   4.720  17.386  0.00  0.00    +0.000 C 
ATOM      8  H   UNL     1       4.376   4.066  15.613  0.00  0.00    +0.000 HD
ENDROOT
BRANCH   7   9
ATOM      9  C   UNL     1       3.401   3.367  18.054  0.00  0.00    +0.000 A 
ATOM     10  C   UNL     1       3.884   2.149  17.597  0.00  0.00    +0.000 A 
ATOM     11  C   UNL     1       3.745   1.259  18.665  0.00  0.00    +0.000 A 
ATOM     12  N   UNL     1       3.140   1.822  19.704  0.00  0.00    +0.000 NA
ATOM     13  N   UNL     1       2.882   3.089  19.307  0.00  0.00    +0.000 N 
BRANCH  13  14
ATOM     14  C   UNL     1       2.029   3.912  20.170  0.00  0.00    +0.000 C 
ATOM     15  C   UNL     1       0.553   3.605  19.900  0.00  0.00    +0.000 C 
ATOM     16  C   UNL     1       2.333   3.718  21.662  0.00  0.00    +0.000 C 
ENDBRANCH  13  14
ENDBRANCH   7   9
BRANCH   1  19
ATOM     17  C   UNL     1       2.306   8.025  18.662  0.00  0.00    +0.000 C 
ATOM     18  O   UNL     1       1.822   7.667  19.733  0.00  0.00    +0.000 OA
ATOM     19  N   UNL     1       3.121   7.202  17.906  0.00  0.00    +0.000 N 
ATOM     20  H   UNL     1       3.721   7.666  17.232  0.00  0.00    +0.000 HD
BRANCH  17  21
ATOM     21  C   UNL     1       2.027   9.388  18.047  0.00  0.00    +0.000 C 
BRANCH  21  29
ATOM     22  C   UNL     1      -3.423   9.924  16.031  0.00  0.00    +0.000 C 
ATOM     23  C   UNL     1      -2.557  10.384  17.169  0.00  0.00    +0.000 A 
ATOM     24  C   UNL     1      -3.069  11.248  18.145  0.00  0.00    +0.000 A 
ATOM     25  C   UNL     1      -2.284  11.681  19.220  0.00  0.00    +0.000 A 
ATOM     26  C   UNL     1      -0.975  11.207  19.267  0.00  0.00    +0.000 A 
ATOM     27  O   UNL     1      -0.064  11.520  20.227  0.00  0.00    +0.000 OA
ATOM     28  C   UNL     1       1.089  10.888  19.900  0.00  0.00    +0.000 A 
ATOM     29  C   UNL     1       0.947  10.150  18.739  0.00  0.00    +0.000 A 
ATOM     30  C   UNL     1      -0.413  10.352  18.327  0.00  0.00    +0.000 A 
ATOM     31  C   UNL     1      -1.222   9.933  17.252  0.00  0.00    +0.000 A 
ENDBRANCH  21  29
ENDBRANCH  17  21
ENDBRANCH   1  19
TORSDOF 5
ENDMDL
MODEL 9
REMARK VINA RESULT:      -7.9      1.669      2.186
REMARK  Name = 
REMARK  8 active torsions:
REMARK  status: ('A' for Active; 'I' for Inactive)
REMARK    1  A    between atoms: C_1  and  C_2
REMARK    2  A    between atoms: C_8  and  C_9
REMARK    3  A    between atoms: C_9  and  C_10
REMARK    4  A    between atoms: N_12  and  C_13
REMARK    5  A    between atoms: C_19  and  C_20
REMARK    6  A    between atoms: N_24  and  C_25
REMARK    7  A    between atoms: C_25  and  C_26
REMARK    8  A    between atoms: C_25  and  C_27
REMARK                            x       y       z     vdW  Elec       q    Type
REMARK                         _______ _______ _______ _____ _____    ______ ____
ROOT
ATOM      1  C   UNL     1       2.509   6.117  17.782  0.00  0.00    +0.000 C 
ATOM      2  C   UNL     1       1.693   4.817  17.821  0.00  0.00    +0.000 C 
ATOM      3  C   UNL     1       1.495   4.303  19.240  0.00  0.00    +0.000 C 
ATOM      4  C   UNL     1       2.738   4.322  20.103  0.00  0.00    +0.000 C 
ATOM      5  O   UNL     1       2.841   3.613  21.100  0.00  0.00    +0.000 OA
ATOM      6  N   UNL     1       3.706   5.233  19.810  0.00  0.00    +0.000 N 
ATOM      7  C   UNL     1       3.868   5.927  18.544  0.00  0.00    +0.000 C 
ATOM      8  H   UNL     1       4.509   5.182  20.426  0.00  0.00    +0.000 HD
ENDROOT
BRANCH   7   9
ATOM      9  C   UNL     1       4.876   5.152  17.731  0.00  0.00    +0.000 A 
ATOM     10  C   UNL     1       4.703   4.021  16.946  0.00  0.00    +0.000 A 
ATOM     11  C   UNL     1       5.930   3.805  16.314  0.00  0.00    +0.000 A 
ATOM     12  N   UNL     1       6.855   4.666  16.719  0.00  0.00    +0.000 NA
ATOM     13  N   UNL     1       6.224   5.450  17.623  0.00  0.00    +0.000 N 
BRANCH  13  14
ATOM     14  C   UNL     1       7.042   6.379  18.407  0.00  0.00    +0.000 C 
ATOM     15  C   UNL     1       8.110   5.610  19.191  0.00  0.00    +0.000 C 
ATOM     16  C   UNL     1       7.713   7.455  17.541  0.00  0.00    +0.000 C 
ENDBRANCH  13  14
ENDBRANCH   7   9
BRANCH   1  19
ATOM     17  C   UNL     1       1.954   8.534  17.968  0.00  0.00    +0.000 C 
ATOM     18  O   UNL     1       2.950   8.856  17.325  0.00  0.00    +0.000 OA
ATOM     19  N   UNL     1       1.681   7.220  18.302  0.00  0.00    +0.000 N 
ATOM     20  H   UNL     1       0.715   7.010  18.534  0.00  0.00    +0.000 HD
BRANCH  17  21
ATOM     21  C   UNL     1       0.948   9.548  18.491  0.00  0.00    +0.000 C 
BRANCH  21  29
ATOM     22  C   UNL     1      -2.647  13.052  21.466  0.00  0.00    +0.000 C 
ATOM     23  C   UNL     1      -1.699  11.908  21.685  0.00  0.00    +0.000 A 
ATOM     24  C   UNL     1      -1.474  11.410  22.976  0.00  0.00    +0.000 A 
ATOM     25  C   UNL     1      -0.603  10.338  23.201  0.00  0.00    +0.000 A 
ATOM     26  C   UNL     1       0.021   9.795  22.081  0.00  0.00    +0.000 A 
ATOM     27  O   UNL     1       0.901   8.757  22.103  0.00  0.00    +0.000 OA
ATOM     28  C   UNL     1       1.303   8.553  20.826  0.00  0.00    +0.000 A 
ATOM     29  C   UNL     1       0.689   9.437  19.956  0.00  0.00    +0.000 A 
ATOM     30  C   UNL     1      -0.161  10.248  20.781  0.00  0.00    +0.000 A 
ATOM     31  C   UNL     1      -1.039  11.331  20.578  0.00  0.00    +0.000 A 
ENDBRANCH  21  29
ENDBRANCH  17  21
ENDBRANCH   1  19
TORSDOF 5
ENDMDL
